@<TRIPOS>MOLECULE
AVN
   17    17     1     0     0
SMALL
bcc


@<TRIPOS>ATOM
      1 C1          2.6020    0.5660   -0.6140 c         1 AVN      0.888600
      2 O1          3.1210    1.7030   -0.4380 o         1 AVN     -0.831800
      3 O2          2.8440   -0.2040   -1.5820 o         1 AVN     -0.831800
      4 C2          1.5760    0.0580    0.4620 c3        1 AVN      0.005500
      5 N1          1.3880    0.9470    1.5970 n3        1 AVN     -0.878800
      6 C3          0.2870   -0.2770   -0.2800 c3        1 AVN      0.129100
      7 O3         -0.6170   -1.0710    0.6260 os        1 AVN     -0.155300
      8 N2         -1.7740   -0.4960    0.7870 n2        1 AVN     -0.352200
      9 C4         -1.8580    0.6150    0.0710 c2        1 AVN      0.291300
     10 C5         -0.5920    0.9080   -0.7130 c3        1 AVN     -0.145700
     11 CL1        -3.1990    1.6390    0.0110 cl        1 AVN     -0.108300
     12 H2          1.9790   -0.9180    0.8630 h1        1 AVN      0.061700
     13 HN11        2.2650    0.9950    2.0870 hn        1 AVN      0.333300
     14 HN12        1.2140    1.8750    1.2480 hn        1 AVN      0.333300
     15 H3          0.5270   -0.9690   -1.1280 h1        1 AVN      0.100700
     16 H51        -0.1500    1.8970   -0.4480 hc        1 AVN      0.079200
     17 H52        -0.7860    0.8900   -1.8130 hc        1 AVN      0.079200
@<TRIPOS>BOND
     1    1    2 1   
     2    1    3 1   
     3    1    4 1   
     4    4    5 1   
     5    4    6 1   
     6    4   12 1   
     7    5   13 1   
     8    5   14 1   
     9    6    7 1   
    10    6   10 1   
    11    6   15 1   
    12    7    8 1   
    13    8    9 2   
    14    9   10 1   
    15    9   11 1   
    16   10   16 1   
    17   10   17 1   
@<TRIPOS>SUBSTRUCTURE
     1 AVN         1 TEMP              0 ****  ****    0 ROOT
