@<TRIPOS>MOLECULE
AVN
   17    15     1     0     0
SMALL
bcc


@<TRIPOS>ATOM
      1 C1         -2.0060    0.6430    0.2020 c1        1 AVN      0.308000
      2 O1         -2.2920    1.7520   -0.3660 os        1 AVN     -0.570000
      3 O2         -2.8930   -0.2320    0.3540 o         1 AVN     -0.563000
      4 C2         -0.5440    0.3640    0.6740 c3        1 AVN     -0.142000
      5 N1         -0.5560   -0.0460    2.0820 n3        1 AVN     -0.311000
      6 C3          0.0180   -0.6580   -0.1160 c3        1 AVN      0.018000
      7 O3         -0.6640   -0.7180   -1.4530 os        1 AVN     -0.182000
      8 N2          0.2170   -0.3480   -2.2560 n2        1 AVN      0.034000
      9 C4          1.5030   -0.3980   -1.7340 c1        1 AVN     -0.184000
     10 C5          1.5400   -0.3270   -0.4570 c3        1 AVN     -0.149000
     11 CL1         2.8420    0.1560   -2.6730 cl        1 AVN      0.004000
     12 H2         -0.0270    1.1530    0.5790 h1        1 AVN      0.101000
     13 HN11        0.2130    0.3130    2.5270 hn        1 AVN      0.128500
     14 HN12       -1.2990    0.2620    2.4750 hn        1 AVN      0.128500
     15 H3         -0.0510   -1.5480    0.3550 h1        1 AVN      0.140000
     16 H51         2.2110   -0.8950   -0.0540 hc        1 AVN      0.118500
     17 H52         1.7870    0.5290   -0.1390 hc        1 AVN      0.118500
@<TRIPOS>BOND
     1    1    3 1   
     2    1    4 1   
     3    4    5 1   
     4    4    6 1   
     5    4   12 1   
     6    5   13 1   
     7    5   14 1   
     8    6    7 1   
     9    6   10 1   
    10    6   15 1   
    11    7    8 1   
    12    8    9 1   
    13    9   10 1   
    14   10   16 1   
    15   10   17 1   
@<TRIPOS>SUBSTRUCTURE
     1 AVN         1 TEMP              0 ****  ****    0 ROOT
