@<TRIPOS>MOLECULE
AVP
   38    39     1     0     0
SMALL
bcc


@<TRIPOS>ATOM
      1 PA          0.0000    0.0000    0.0000 p5        1 AVP      0.905800
      2 O1A         1.4800    0.0000    0.0000 o         1 AVP     -0.674000
      3 O2A        -0.5350    0.0000    1.5190 o         1 AVP     -0.674000
      4 O5'        -0.5380    1.3140   -0.7570 os        1 AVP     -0.467200
      5 C5'        -0.0290    2.4400   -0.0410 c3        1 AVP      0.242400
      6 C4'        -0.5050    3.7290   -0.7130 c3        1 AVP      0.186400
      7 O4'        -1.9340    3.7680   -0.7120 os        1 AVP     -0.364600
      8 C1'        -2.3150    4.9890   -1.3480 c3        1 AVP      0.201100
      9 N9         -3.7760    5.0880   -1.3800 na        1 AVP      0.188100
     10 C4         -4.5060    6.1170   -1.9090 cc        1 AVP     -0.167200
     11 N3         -4.1930    7.2660   -2.5210 nc        1 AVP     -0.529100
     12 C2         -5.1280    8.0890   -2.9400 cd        1 AVP     -0.069200
     13 N2         -4.7590    9.2550   -3.5620 nv        1 AVP     -0.530800
     14 N1         -6.4530    7.8210   -2.7710 ns        1 AVP     -0.012400
     15 C6         -6.8460    6.6770   -2.1680 c         1 AVP      0.573000
     16 O6         -8.0290    6.4250   -2.0160 o         1 AVP     -0.834500
     17 C5         -5.8500    5.7820   -1.7120 cd        1 AVP      0.011800
     18 N7         -5.8760    4.5840   -1.0790 nd        1 AVP     -0.560000
     19 C8         -4.6570    4.1740   -0.8820 cc        1 AVP      0.162400
     20 O3A        -0.5370   -1.3150   -0.7570 os        1 AVP     -0.486800
     21 PB          0.0350   -2.5850    0.0510 p5        1 AVP      0.993800
     22 O1B        -0.4570   -2.5440    1.4450 o         1 AVP     -0.482500
     23 O2B         1.6430   -2.5420    0.0480 o         1 AVP     -0.482500
     24 O3B        -0.4660   -3.9410   -0.6570 os        1 AVP     -0.481800
     25 PG          0.1390   -5.1630    0.1980 p5        1 AVP      0.812900
     26 O1G        -0.3250   -6.5590   -0.4570 o         1 AVP     -0.624833
     27 O2G         1.7460   -5.0770    0.1940 o         1 AVP     -0.624833
     28 O3G        -0.3550   -5.0840    1.5900 o         1 AVP     -0.624833
     29 H'51        1.0540    2.4100   -0.0430 h1        1 AVP      0.005200
     30 H'52       -0.3890    2.4110    0.9800 h1        1 AVP      0.005200
     31 H'41       -0.1200    4.5840   -0.1700 h1        1 AVP     -0.037300
     32 H'42       -0.1440    3.7590   -1.7340 h1        1 AVP     -0.037300
     33 H'11       -1.9080    5.8260   -0.7960 h2        1 AVP     -0.026300
     34 H'12       -1.9300    5.0030   -2.3610 h2        1 AVP     -0.026300
     35 HN21       -4.5960   10.0810   -3.0200 hn        1 AVP      0.195300
     36 HN22       -4.6250    9.2720   -4.5530 hn        1 AVP      0.195300
     37 HN11       -7.1380    8.4700   -3.1030 hn        1 AVP      0.110500
     38 HC81       -4.3830    3.2460   -0.3960 h5        1 AVP      0.028100
@<TRIPOS>BOND
     1    1    2 1   
     2    1    3 1   
     3    1    4 1   
     4    1   20 1   
     5    4    5 1   
     6    5    6 1   
     7    5   29 1   
     8    5   30 1   
     9    6    7 1   
    10    6   31 1   
    11    6   32 1   
    12    7    8 1   
    13    8    9 1   
    14    8   33 1   
    15    8   34 1   
    16    9   10 1   
    17    9   19 1   
    18   10   11 1   
    19   10   17 2   
    20   11   12 2   
    21   12   13 1   
    22   12   14 1   
    23   13   35 1   
    24   13   36 1   
    25   14   15 1   
    26   14   37 1   
    27   15   16 2   
    28   15   17 1   
    29   17   18 1   
    30   18   19 2   
    31   19   38 1   
    32   20   21 1   
    33   21   22 1   
    34   21   23 1   
    35   21   24 1   
    36   24   25 1   
    37   25   26 1   
    38   25   27 1   
    39   25   28 1   
@<TRIPOS>SUBSTRUCTURE
     1 AVP         1 TEMP              0 ****  ****    0 ROOT
