@<TRIPOS>MOLECULE
AVQ
   31    33     1     0     0
SMALL
bcc


@<TRIPOS>ATOM
      1 CLD        -0.0020   -0.1550    0.1210 cl        1 AVQ     -0.073400
      2 CAQ         1.6880   -0.0150    0.0110 ca        1 AVQ      0.032400
      3 CAF         2.4210    0.0950    1.1990 ca        1 AVQ     -0.120000
      4 CAE         3.8060    0.2090    1.1610 ca        1 AVQ     -0.108000
      5 CAO         4.4630    0.2100   -0.0740 ca        1 AVQ      0.013400
      6 CLC         6.1550    0.3460   -0.1300 cl        1 AVQ     -0.081400
      7 CAH         3.7390    0.1010   -1.2620 ca        1 AVQ     -0.101000
      8 CAR         2.3410   -0.0100   -1.2330 ca        1 AVQ     -0.070300
      9 CAI         1.6100   -0.1440   -2.5130 c3        1 AVQ      0.007000
     10 SAM         1.2740    1.5160   -3.0600 ss        1 AVQ     -0.058300
     11 CAS         0.4470    1.2980   -4.5160 cc        1 AVQ      0.513200
     12 NAK         0.1730    0.0350   -5.0800 nc        1 AVQ     -0.387300
     13 NAL        -0.0170    2.3610   -5.2590 nd        1 AVQ     -0.592100
     14 NAU        -0.6030    1.7850   -6.3250 na        1 AVQ     -0.040800
     15 CAT        -0.5000    0.3180   -6.2390 cd        1 AVQ      0.448500
     16 NAJ        -1.0240   -0.5120   -7.2130 nd        1 AVQ     -0.657000
     17 CAN        -1.6340    0.0790   -8.2420 cc        1 AVQ      0.498600
     18 CAA        -2.2260   -0.7590   -9.3330 c3        1 AVQ     -0.159400
     19 CAG        -1.7730    1.4980   -8.3920 cc        1 AVQ     -0.356300
     20 CAP        -1.2490    2.3450   -7.4180 cd        1 AVQ      0.261800
     21 OAB        -1.3950    3.6940   -7.5860 oh        1 AVQ     -0.476100
     22 HAF         1.8990    0.0920    2.1700 ha        1 AVQ      0.155000
     23 HAE         4.3790    0.2950    2.0980 ha        1 AVQ      0.154000
     24 HAH         4.2610    0.1020   -2.2330 ha        1 AVQ      0.159000
     25 HAI1        2.2290   -0.6860   -3.2710 h1        1 AVQ      0.100200
     26 HAI2        0.6600   -0.7220   -2.3900 h1        1 AVQ      0.100200
     27 HAB        -0.9960    4.1850   -6.8470 ho        1 AVQ      0.463000
     28 HAA1       -2.0830   -1.8530   -9.1560 hc        1 AVQ      0.066033
     29 HAA2       -1.7430   -0.4860  -10.3040 hc        1 AVQ      0.066033
     30 HAA3       -3.3210   -0.5460   -9.4010 hc        1 AVQ      0.066033
     31 HAG        -2.2860    1.9250   -9.2620 ha        1 AVQ      0.178000
@<TRIPOS>BOND
     1    1    2 1   
     2    2    3 ar  
     3    2    8 ar  
     4    3    4 ar  
     5    3   22 1   
     6    4    5 ar  
     7    4   23 1   
     8    5    6 1   
     9    5    7 ar  
    10    7    8 ar  
    11    7   24 1   
    12    8    9 1   
    13    9   10 1   
    14    9   25 1   
    15    9   26 1   
    16   10   11 1   
    17   11   12 1   
    18   11   13 2   
    19   12   15 2   
    20   13   14 1   
    21   14   15 1   
    22   14   20 1   
    23   15   16 1   
    24   16   17 2   
    25   17   18 1   
    26   17   19 1   
    27   18   28 1   
    28   18   29 1   
    29   18   30 1   
    30   19   20 2   
    31   19   31 1   
    32   20   21 1   
    33   21   27 1   
@<TRIPOS>SUBSTRUCTURE
     1 AVQ         1 TEMP              0 ****  ****    0 ROOT
