@<TRIPOS>MOLECULE
AVQ
   31    28     1     0     0
SMALL
bcc


@<TRIPOS>ATOM
      1 CLD        -0.4960   -0.8320    4.1450 cl        1 AVQ      0.004000
      2 CAQ         1.2480   -0.8170    4.1630 c2        1 AVQ     -0.047000
      3 CAF         1.9270   -0.7660    5.3700 c2        1 AVQ     -0.119000
      4 CAE         3.3120   -0.7070    5.3840 c1        1 AVQ     -0.108000
      5 CAO         4.0170   -0.6990    4.1910 c1        1 AVQ     -0.064000
      6 CLC         5.7550   -0.5550    4.2080 cl        1 AVQ     -0.003000
      7 CAH         3.3380   -0.7500    2.9840 c1        1 AVQ     -0.102000
      8 CAR         1.9530   -0.8080    2.9700 c1        1 AVQ     -0.061000
      9 CAI         1.2120   -0.8900    1.6530 c3        1 AVQ     -0.274000
     10 SAM         0.4640    0.6790    1.2960 ss        1 AVQ      0.372000
     11 CAS        -0.4720    0.5600   -0.2050 c2        1 AVQ     -0.237000
     12 NAK        -0.1310    1.3660   -1.2360 n2        1 AVQ     -0.121000
     13 NAL        -1.5470   -0.1660   -0.5800 n2        1 AVQ     -0.110000
     14 NAU        -1.8760    0.1930   -1.8530 n2        1 AVQ     -0.117000
     15 CAT        -1.0030    1.1370   -2.2560 c1        1 AVQ      0.084000
     16 NAJ        -1.0890    1.6590   -3.5350 n1        1 AVQ     -0.125000
     17 CAN        -2.0430    1.2250   -4.3760 c1        1 AVQ      0.080000
     18 CAA        -2.1260    1.7830   -5.7800 c3        1 AVQ     -0.183000
     19 CAG        -2.9300    0.2670   -3.9670 c1        1 AVQ     -0.351000
     20 CAP        -2.8440   -0.2480   -2.7050 c1        1 AVQ      0.242000
     21 OAB        -3.6260   -1.1340   -1.9400 oh        1 AVQ     -0.216000
     22 HAF         1.4300   -0.7720    6.2110 ha        1 AVQ      0.155000
     23 HAE         3.7910   -0.6720    6.2350 ha        1 AVQ      0.154000
     24 HAH         3.8350   -0.7440    2.1440 ha        1 AVQ      0.158000
     25 HAI1        0.5180   -1.5760    1.7110 h1        1 AVQ      0.135000
     26 HAI2        1.8400   -1.1220    0.9400 h1        1 AVQ      0.135000
     27 HAB        -4.4050   -1.2700   -2.3480 ho        1 AVQ      0.244000
     28 HAA1       -2.8950    2.3860   -5.8470 hc        1 AVQ      0.104667
     29 HAA2       -1.3050    2.2770   -5.9840 hc        1 AVQ      0.104667
     30 HAA3       -2.2310    1.0470   -6.4180 hc        1 AVQ      0.104667
     31 HAG        -3.6230   -0.0490   -4.5770 ha        1 AVQ      0.161000
@<TRIPOS>BOND
     1    1    2 1   
     2    2    3 1   
     3    2    8 1   
     4    3    4 1   
     5    3   22 1   
     6    4   23 1   
     7    5    6 1   
     8    5    7 1   
     9    7   24 1   
    10    8    9 1   
    11    9   10 1   
    12    9   25 1   
    13    9   26 1   
    14   10   11 1   
    15   11   12 1   
    16   11   13 1   
    17   12   15 1   
    18   13   14 1   
    19   14   20 1   
    20   15   16 1   
    21   17   18 1   
    22   17   19 1   
    23   18   28 1   
    24   18   29 1   
    25   18   30 1   
    26   19   31 1   
    27   20   21 1   
    28   21   27 1   
@<TRIPOS>SUBSTRUCTURE
     1 AVQ         1 TEMP              0 ****  ****    0 ROOT
