@<TRIPOS>MOLECULE
AVQ
   31    33     1     0     0
SMALL
bcc


@<TRIPOS>ATOM
      1 CLD         2.4270   -2.9430    0.0340 cl        1 AVQ     -0.074400
      2 CAQ         3.2470   -1.4560   -0.0300 ca        1 AVQ      0.031400
      3 CAF         4.6190   -1.4460    0.2480 ca        1 AVQ     -0.120000
      4 CAE         5.3350   -0.2540    0.2050 ca        1 AVQ     -0.109000
      5 CAO         4.6720    0.9350   -0.1190 ca        1 AVQ      0.014400
      6 CLC         5.5400    2.3950   -0.1760 cl        1 AVQ     -0.082400
      7 CAH         3.3050    0.9320   -0.3970 ca        1 AVQ     -0.101000
      8 CAR         2.5750   -0.2650   -0.3530 ca        1 AVQ     -0.069300
      9 CAI         1.1300   -0.2300   -0.6710 c3        1 AVQ      0.005000
     10 SAM         0.2980    0.1200    0.8610 ss        1 AVQ     -0.054300
     11 CAS        -1.3350    0.1490    0.4310 cc        1 AVQ      0.495200
     12 NAK        -1.8010   -0.0470   -0.8880 nc        1 AVQ     -0.382300
     13 NAL        -2.3320    0.3740    1.3550 nd        1 AVQ     -0.535100
     14 NAU        -3.4660    0.3240    0.6340 na        1 AVQ     -0.003800
     15 CAT        -3.1590    0.0590   -0.7890 cd        1 AVQ      0.439500
     16 NAJ        -4.1500   -0.0430   -1.7500 nd        1 AVQ     -0.654000
     17 CAN        -5.4070    0.1110   -1.3380 cc        1 AVQ      0.503600
     18 CAA        -6.5300    0.0140   -2.3240 c3        1 AVQ     -0.159400
     19 CAG        -5.7790    0.3700    0.0230 cc        1 AVQ     -0.417300
     20 CAP        -4.7920    0.4740    0.9980 cd        1 AVQ      0.264800
     21 OAB        -5.0390    0.7200    2.3240 oh        1 AVQ     -0.458100
     22 HAF         5.1360   -2.3850    0.5010 ha        1 AVQ      0.154000
     23 HAE         6.4140   -0.2500    0.4250 ha        1 AVQ      0.154000
     24 HAH         2.7880    1.8720   -0.6510 ha        1 AVQ      0.159000
     25 HAI1        0.9090    0.5670   -1.4260 h1        1 AVQ      0.099200
     26 HAI2        0.7780   -1.2000   -1.1040 h1        1 AVQ      0.099200
     27 HAB        -6.0030    0.7970    2.4250 ho        1 AVQ      0.445000
     28 HAA1       -6.1690   -0.1880   -3.3630 hc        1 AVQ      0.065033
     29 HAA2       -7.2150   -0.8140   -2.0150 hc        1 AVQ      0.065033
     30 HAA3       -7.1000    0.9760   -2.3220 hc        1 AVQ      0.065033
     31 HAG        -6.8360    0.4850    0.2890 ha        1 AVQ      0.162000
@<TRIPOS>BOND
     1    1    2 1   
     2    2    3 ar  
     3    2    8 ar  
     4    3    4 ar  
     5    3   22 1   
     6    4    5 ar  
     7    4   23 1   
     8    5    6 1   
     9    5    7 ar  
    10    7    8 ar  
    11    7   24 1   
    12    8    9 1   
    13    9   10 1   
    14    9   25 1   
    15    9   26 1   
    16   10   11 1   
    17   11   12 1   
    18   11   13 2   
    19   12   15 2   
    20   13   14 1   
    21   14   15 1   
    22   14   20 1   
    23   15   16 1   
    24   16   17 2   
    25   17   18 1   
    26   17   19 1   
    27   18   28 1   
    28   18   29 1   
    29   18   30 1   
    30   19   20 2   
    31   19   31 1   
    32   20   21 1   
    33   21   27 1   
@<TRIPOS>SUBSTRUCTURE
     1 AVQ         1 TEMP              0 ****  ****    0 ROOT
