@<TRIPOS>MOLECULE
AVR
   35    34     1     0     0
SMALL
bcc


@<TRIPOS>ATOM
      1 C          -0.6280   -0.5030    0.3080 c         1 AVR      0.486000
      2 N           1.6400   -1.2730   -0.3690 nh        1 AVR     -0.293100
      3 O          -1.0550   -1.6600    0.3240 o         1 AVR     -0.473100
      4 N1         -1.4590    3.2020    0.3810 n2        1 AVR     -0.421400
      5 C2         -1.0700    2.0040   -0.0410 ce        1 AVR      0.445600
      6 C3         -1.3400    0.7120    0.6080 ce        1 AVR     -0.428900
      7 C4         -2.3800    0.6750    1.4780 c1        1 AVR      0.122100
      8 N5         -1.9960    3.3680    1.6030 nh        1 AVR     -0.391100
      9 C6         -3.2720    3.8440    1.8450 c2        1 AVR      0.199000
     10 C7         -4.1680    3.1970    2.6910 ce        1 AVR     -0.283000
     11 C8         -4.1500    1.8030    2.9400 ce        1 AVR      0.088900
     12 C9         -3.2720    1.0340    2.2570 c1        1 AVR     -0.171900
     13 CA          0.8710   -0.3130    0.0480 ce        1 AVR      0.335200
     14 CB          4.4450    0.4720   -0.6760 c3        1 AVR     -0.132800
     15 C11        -1.3930    2.3970   -2.4840 c3        1 AVR     -0.098100
     16 C12         0.8360    2.8340   -1.4590 c3        1 AVR     -0.098100
     17 HN          1.2660   -2.1940   -0.5530 hn        1 AVR      0.339700
     18 HNA         2.6310   -1.1460   -0.5170 hn        1 AVR      0.339700
     19 H6         -1.6700    2.7230    2.3170 hn        1 AVR      0.407800
     20 H7         -3.5320    4.8070    1.3580 h4        1 AVR      0.190000
     21 H8         -5.0010    3.7830    3.1150 ha        1 AVR      0.181000
     22 H9         -4.8940    1.3630    3.6300 ha        1 AVR      0.181000
     23 HA          4.5860   -0.1650    0.2250 hc        1 AVR      0.034950
     24 HB          3.5080    1.0660   -0.5830 hc        1 AVR      0.034950
     25 HBA         4.4080   -0.1590   -1.5910 hc        1 AVR      0.034950
     26 HBB         5.3080    1.1720   -0.7580 hc        1 AVR      0.034950
     27 H10        -0.1190    0.9020   -1.6360 hc        1 AVR      0.013700
     28 H11        -1.6570    3.4770   -2.3740 hc        1 AVR      0.054200
     29 H11A       -0.9360    2.2460   -3.4920 hc        1 AVR      0.054200
     30 H11B       -2.3290    1.7920   -2.4200 hc        1 AVR      0.054200
     31 H12         0.5720    3.9150   -1.3430 hc        1 AVR      0.054200
     32 H12A        1.3470    2.7050   -2.4440 hc        1 AVR      0.054200
     33 H12B        1.5520    2.5620   -0.6460 hc        1 AVR      0.054200
     34 HN3         1.3010    0.6960    0.2640 h4        1 AVR      0.085800
     35 C10        -0.4080    1.9700   -1.4110 c3        1 AVR     -0.087000
@<TRIPOS>BOND
     1    1    3 2   
     2    1    6 1   
     3    1   13 1   
     4    2   13 2   
     5    2   17 1   
     6    2   18 1   
     7    4    5 2   
     8    4    8 1   
     9    5    6 1   
    10    5   35 1   
    11    6    7 2   
    12    7   12 2   
    13    8    9 1   
    14    8   19 1   
    15    9   10 2   
    16    9   20 1   
    17   10   11 1   
    18   10   21 1   
    19   11   12 2   
    20   11   22 1   
    21   13   34 1   
    22   14   23 1   
    23   14   24 1   
    24   14   25 1   
    25   14   26 1   
    26   15   28 1   
    27   15   29 1   
    28   15   30 1   
    29   15   35 1   
    30   16   31 1   
    31   16   32 1   
    32   16   33 1   
    33   16   35 1   
    34   27   35 1   
@<TRIPOS>SUBSTRUCTURE
     1 AVR         1 TEMP              0 ****  ****    0 ROOT
