@<TRIPOS>MOLECULE
AVR
   35    35     1     0     0
SMALL
bcc


@<TRIPOS>ATOM
      1 C          -0.0020   -0.2650    0.0880 c         1 AVR      0.606300
      2 N           1.8930   -0.9700   -1.3920 n4        1 AVR     -0.837600
      3 O          -0.4080   -1.4270    0.0370 o         1 AVR     -0.503100
      4 N1         -1.2210    3.3220    0.2510 n2        1 AVR     -0.395400
      5 C2         -0.8880    2.1260   -0.2060 ce        1 AVR      0.405600
      6 C3         -0.7290    0.8920    0.5930 ce        1 AVR     -0.369900
      7 C4         -1.3680    0.8540    1.7660 c1        1 AVR      0.079100
      8 N5         -1.2180    3.6290    1.5580 nh        1 AVR     -0.408100
      9 C6         -2.3840    4.0250    2.2450 c2        1 AVR      0.141000
     10 C7         -2.9140    3.3610    3.3190 ce        1 AVR     -0.247000
     11 C8         -2.6350    1.9940    3.6680 ce        1 AVR      0.040900
     12 C9         -1.9800    1.2390    2.7860 c1        1 AVR     -0.125900
     13 CA          1.4520    0.0290   -0.3560 c3        1 AVR      0.002500
     14 CB          2.3570   -0.0020    0.8660 c3        1 AVR     -0.128100
     15 C11        -2.1800    2.1190   -2.3370 c3        1 AVR     -0.098100
     16 C12         0.1690    2.9530   -2.3310 c3        1 AVR     -0.098100
     17 HN          1.4570   -0.7510   -2.2920 hn        1 AVR      0.464800
     18 HNA         1.5860   -1.9100   -1.0980 hn        1 AVR      0.464800
     19 H6         -0.6340    3.0370    2.1410 hn        1 AVR      0.379800
     20 H7         -2.8060    4.9890    1.8940 h4        1 AVR      0.184000
     21 H8         -3.6610    3.8820    3.9440 ha        1 AVR      0.174000
     22 H9         -3.0140    1.6010    4.6280 ha        1 AVR      0.177000
     23 HA          2.3290   -0.9980    1.3730 hc        1 AVR      0.085367
     24 HB          1.4980    1.0540   -0.8390 hx        1 AVR      0.134700
     25 HBA         3.4130    0.2460    0.5960 hc        1 AVR      0.085367
     26 HBB         1.9920    0.7700    1.5900 hc        1 AVR      0.085367
     27 H10        -0.4440    0.9220   -1.9360 hc        1 AVR      0.002700
     28 H11        -2.5630    3.1590   -2.2040 hc        1 AVR      0.052033
     29 H11A       -2.1230    1.9010   -3.4320 hc        1 AVR      0.052033
     30 H11B       -2.9030    1.4100   -1.8670 hc        1 AVR      0.052033
     31 H12         0.2950    2.7320   -3.4180 hc        1 AVR      0.052033
     32 H12A        1.1670    2.8990   -1.8330 hc        1 AVR      0.052033
     33 H12B       -0.2120    4.0000   -2.2310 hc        1 AVR      0.052033
     34 HN3         2.9110   -0.9570   -1.4860 hn        1 AVR      0.464800
     35 C10        -0.8040    1.9680   -1.7160 c3        1 AVR     -0.079000
@<TRIPOS>BOND
     1    1    3 2   
     2    1    6 1   
     3    1   13 1   
     4    2   13 1   
     5    2   17 1   
     6    2   18 1   
     7    2   34 1   
     8    4    5 2   
     9    4    8 1   
    10    5    6 1   
    11    5   35 1   
    12    6    7 2   
    13    7   12 2   
    14    8    9 1   
    15    8   19 1   
    16    9   10 2   
    17    9   20 1   
    18   10   11 1   
    19   10   21 1   
    20   11   12 2   
    21   11   22 1   
    22   13   14 1   
    23   13   24 1   
    24   14   23 1   
    25   14   25 1   
    26   14   26 1   
    27   15   28 1   
    28   15   29 1   
    29   15   30 1   
    30   15   35 1   
    31   16   31 1   
    32   16   32 1   
    33   16   33 1   
    34   16   35 1   
    35   27   35 1   
@<TRIPOS>SUBSTRUCTURE
     1 AVR         1 TEMP              0 ****  ****    0 ROOT
