@<TRIPOS>MOLECULE
AVR
   34    30     1     0     0
SMALL
bcc


@<TRIPOS>ATOM
      1 C           1.0510    0.1060    1.2200 c1        1 AVR      0.316000
      2 N           3.0110   -1.0780    1.9280 n3        1 AVR     -0.327000
      3 O           0.4970    0.3340    2.2770 o         1 AVR     -0.312000
      4 N1         -1.8370    0.0930   -0.7760 n2        1 AVR     -0.067000
      5 C2         -1.0840    0.0010    0.3500 c1        1 AVR      0.015500
      6 C3          0.2300   -0.1360   -0.0270 c1        1 AVR     -0.275000
      7 C4          0.2800   -0.1280   -1.4090 c1        1 AVR      0.015500
      8 N5         -0.9850    0.0120   -1.8710 n2        1 AVR     -0.067000
      9 C6         -1.2250    0.0320   -3.2310 c1        1 AVR     -0.105250
     10 C7         -0.1700   -0.0920   -4.1250 c1        1 AVR     -0.105250
     11 C8          1.1100   -0.2340   -3.6580 c1        1 AVR     -0.105250
     12 C9          1.3480   -0.2530   -2.3110 c1        1 AVR     -0.105250
     13 CA          2.5590    0.0300    1.1590 c3        1 AVR     -0.076000
     14 CB          3.1510    1.3050    1.7160 c3        1 AVR     -0.252000
     15 C10        -2.1590   -0.1380    1.4060 c2        1 AVR     -0.055000
     16 C11        -3.1000    1.0440    1.3260 c3        1 AVR     -0.205000
     17 C12        -2.9320   -1.4170    1.1720 c3        1 AVR     -0.205000
     18 HN          3.8420   -1.3310    1.6400 hn        1 AVR      0.150500
     19 HNA         3.0530   -0.8400    2.8110 hn        1 AVR      0.150500
     20 H6         -2.1370    0.1330   -3.5640 ha        1 AVR      0.160500
     21 H7         -0.3400   -0.0780   -5.0870 ha        1 AVR      0.160500
     22 H8          1.8530   -0.3210   -4.2870 ha        1 AVR      0.160500
     23 H9          2.2600   -0.3540   -1.9780 ha        1 AVR      0.160500
     24 HA          2.8420   -0.0810    0.2300 h1        1 AVR      0.110000
     25 HB          2.7580    1.4910    2.5950 hc        1 AVR      0.084667
     26 HBA         4.1210    1.2020    1.8070 hc        1 AVR      0.084667
     27 HBB         2.9570    2.0490    1.1080 hc        1 AVR      0.084667
     28 H10        -1.7450   -0.1660    2.2900 ha        1 AVR      0.130000
     29 H11        -3.7680    0.8830    0.6270 hc        1 AVR      0.079667
     30 H11A       -3.5520    1.1600    2.1880 hc        1 AVR      0.079667
     31 H11B       -2.5910    1.8530    1.1110 hc        1 AVR      0.079667
     32 H12        -3.3730   -1.6890    2.0040 hc        1 AVR      0.079667
     33 H12A       -3.6080   -1.2670    0.4780 hc        1 AVR      0.079667
     34 H12B       -2.3170   -2.1230    0.8820 hc        1 AVR      0.079667
@<TRIPOS>BOND
     1    1    3 1   
     2    1   13 1   
     3    2   13 1   
     4    2   18 1   
     5    2   19 1   
     6    4    5 1   
     7    4    8 1   
     8    5    6 1   
     9    6    7 1   
    10    7    8 1   
    11    9   10 1   
    12    9   20 1   
    13   10   21 1   
    14   11   12 1   
    15   11   22 1   
    16   12   23 1   
    17   13   14 1   
    18   13   24 1   
    19   14   25 1   
    20   14   26 1   
    21   14   27 1   
    22   15   16 1   
    23   15   17 1   
    24   15   28 1   
    25   16   29 1   
    26   16   30 1   
    27   16   31 1   
    28   17   32 1   
    29   17   33 1   
    30   17   34 1   
@<TRIPOS>SUBSTRUCTURE
     1 AVR         1 TEMP              0 ****  ****    0 ROOT
