@<TRIPOS>MOLECULE
AVR
   35    34     1     0     0
SMALL
bcc


@<TRIPOS>ATOM
      1 C           0.6710    0.4750   -0.4130 c         1 AVR      0.497000
      2 N           0.3290   -1.6680    0.8030 nv        1 AVR     -0.328100
      3 O           1.2180    0.4740   -1.5180 o         1 AVR     -0.504100
      4 N1         -1.6540    3.4430    0.0110 n2        1 AVR     -0.519400
      5 C2         -0.8620    2.5020   -0.5150 ce        1 AVR      0.578600
      6 C3         -0.2840    1.3530    0.1810 ce        1 AVR     -0.496900
      7 C4         -0.7180    1.0930    1.4670 c1        1 AVR      0.014100
      8 N5         -1.8260    3.4890    1.3520 nu        1 AVR     -0.271100
      9 C6         -2.9570    3.3140    2.0440 c2        1 AVR      0.204000
     10 C7         -2.9230    2.6890    3.3440 ce        1 AVR     -0.267000
     11 C8         -2.1110    1.6000    3.5710 ce        1 AVR      0.039900
     12 C9         -1.2780    1.1670    2.5500 c1        1 AVR     -0.200900
     13 CA          1.1240   -0.6630    0.5320 ce        1 AVR      0.357300
     14 CB          2.5210   -0.5540    1.0160 c3        1 AVR     -0.222400
     15 C11        -1.4760    1.6170   -2.7440 c3        1 AVR     -0.087600
     16 C12        -0.8350    4.0140   -2.5740 c3        1 AVR     -0.087600
     17 HN         -0.6090   -1.6970    0.4460 hn        1 AVR      0.325700
     18 HNA         0.6200   -2.4360    1.3800 hn        1 AVR      0.325700
     19 H6         -0.9660    3.4310    1.8990 hn        1 AVR      0.441800
     20 H7         -3.9300    3.5900    1.5820 h4        1 AVR      0.206000
     21 H8         -3.6500    3.0250    4.1000 ha        1 AVR      0.189000
     22 H9         -2.1630    1.0450    4.5250 ha        1 AVR      0.178000
     23 HA          2.6190    0.3740    1.6410 hc        1 AVR      0.117367
     24 HB          3.6980    0.3260   -1.8410 ha        1 AVR      0.001500
     25 HBA         2.8690   -1.4330    1.6130 hc        1 AVR      0.117367
     26 HBB         3.1900   -0.4300    0.1160 hc        1 AVR      0.117367
     27 H10         0.4810    2.3740   -2.1800 hc        1 AVR      0.093700
     28 H11        -2.5580    1.8290   -2.5750 hc        1 AVR      0.048867
     29 H11A       -1.2680    1.6780   -3.8400 hc        1 AVR      0.048867
     30 H11B       -1.2470    0.5810   -2.3980 hc        1 AVR      0.048867
     31 H12        -1.9150    4.2940   -2.5480 hc        1 AVR      0.048867
     32 H12A       -0.2530    4.7760   -2.0030 hc        1 AVR      0.048867
     33 H12B       -0.4950    4.0340   -3.6380 hc        1 AVR      0.048867
     34 HN3         3.4800    0.5370   -2.4470 ha        1 AVR      0.001500
     35 C10        -0.6080    2.6240   -2.0120 c3        1 AVR     -0.114000
@<TRIPOS>BOND
     1    1    3 2   
     2    1    6 1   
     3    1   13 1   
     4    2   13 2   
     5    2   17 1   
     6    2   18 1   
     7    4    5 2   
     8    4    8 1   
     9    5    6 1   
    10    5   35 1   
    11    6    7 2   
    12    7   12 2   
    13    8    9 1   
    14    8   19 1   
    15    9   10 2   
    16    9   20 1   
    17   10   11 1   
    18   10   21 1   
    19   11   12 2   
    20   11   22 1   
    21   13   14 1   
    22   14   23 1   
    23   14   25 1   
    24   14   26 1   
    25   15   28 1   
    26   15   29 1   
    27   15   30 1   
    28   15   35 1   
    29   16   31 1   
    30   16   32 1   
    31   16   33 1   
    32   16   35 1   
    33   24   34 1   
    34   27   35 1   
@<TRIPOS>SUBSTRUCTURE
     1 AVR         1 TEMP              0 ****  ****    0 ROOT
