@<TRIPOS>MOLECULE
AVR
   34    35     1     0     0
SMALL
bcc


@<TRIPOS>ATOM
      1 C          -0.9330   -1.3780    0.3960 c         1 AVR      0.624300
      2 N          -3.3890   -1.4740    0.2660 n3        1 AVR     -0.899800
      3 O          -0.7340   -2.2940    1.2060 o         1 AVR     -0.553100
      4 N1          0.9900    1.7710   -0.1840 nc        1 AVR     -0.576100
      5 C2         -0.2070    1.1180   -0.0520 cd        1 AVR      0.436600
      6 C3          0.0060   -0.2910    0.2030 cd        1 AVR     -0.383800
      7 C4          1.4200   -0.4440    0.2510 cc        1 AVR      0.002700
      8 N5          1.9570    0.8500   -0.0160 na        1 AVR      0.205000
      9 C6          3.3320    1.0310   -0.0610 cc        1 AVR     -0.041300
     10 C7          4.1690   -0.0410    0.1580 cd        1 AVR     -0.178000
     11 C8          3.6480   -1.3350    0.4370 cd        1 AVR     -0.103000
     12 C9          2.2930   -1.5400    0.4850 cc        1 AVR     -0.114000
     13 CA         -2.1670   -1.4220   -0.5140 c3        1 AVR      0.071500
     14 CB         -1.9580   -2.5830   -1.4910 c3        1 AVR     -0.130100
     15 C11        -1.5380    3.0210    0.8270 c3        1 AVR     -0.087600
     16 C12        -1.8280    2.2650   -1.5290 c3        1 AVR     -0.087600
     17 HN         -4.1560   -1.7420   -0.3210 hn        1 AVR      0.355300
     18 HNA        -3.3020   -2.1390    1.0120 hn        1 AVR      0.355300
     19 H6          3.6920    2.0530   -0.2750 h4        1 AVR      0.180000
     20 H7          5.2570    0.1100    0.1200 ha        1 AVR      0.155000
     21 H8          4.3510   -2.1620    0.6170 ha        1 AVR      0.146000
     22 H9          1.8350   -2.5150    0.7150 ha        1 AVR      0.174000
     23 HA         -2.2120   -0.4690   -1.1230 h1        1 AVR      0.075700
     24 HB         -1.8590   -3.5480   -0.9390 hc        1 AVR      0.045700
     25 HBA        -2.8200   -2.6560   -2.1970 hc        1 AVR      0.045700
     26 HBB        -1.0280   -2.4140   -2.0850 hc        1 AVR      0.045700
     27 H10        -2.3150    1.1050    0.2350 hc        1 AVR      0.082700
     28 H11        -1.2620    2.7080    1.8620 hc        1 AVR      0.040700
     29 H11A       -0.8220    3.8080    0.4890 hc        1 AVR      0.040700
     30 H11B       -2.5640    3.4620    0.8490 hc        1 AVR      0.040700
     31 H12        -1.8110    1.3920   -2.2250 hc        1 AVR      0.040700
     32 H12A       -2.8430    2.7300   -1.5660 hc        1 AVR      0.040700
     33 H12B       -1.0800    3.0150   -1.8830 hc        1 AVR      0.040700
     34 C10        -1.5190    1.8280   -0.1100 c3        1 AVR     -0.090000
@<TRIPOS>BOND
     1    1    3 2   
     2    1    6 1   
     3    1   13 1   
     4    2   13 1   
     5    2   17 1   
     6    2   18 1   
     7    4    5 2   
     8    4    8 1   
     9    5    6 1   
    10    5   34 1   
    11    6    7 2   
    12    7    8 1   
    13    7   12 1   
    14    8    9 1   
    15    9   10 2   
    16    9   19 1   
    17   10   11 1   
    18   10   20 1   
    19   11   12 2   
    20   11   21 1   
    21   12   22 1   
    22   13   14 1   
    23   13   23 1   
    24   14   24 1   
    25   14   25 1   
    26   14   26 1   
    27   15   28 1   
    28   15   29 1   
    29   15   30 1   
    30   15   34 1   
    31   16   31 1   
    32   16   32 1   
    33   16   33 1   
    34   16   34 1   
    35   27   34 1   
@<TRIPOS>SUBSTRUCTURE
     1 AVR         1 TEMP              0 ****  ****    0 ROOT
