@<TRIPOS>MOLECULE
AVU
   56    59     1     0     0
SMALL
bcc


@<TRIPOS>ATOM
      1 N1         -0.4300   -1.6800    4.8950 nb        1 AVU     -0.793000
      2 C2          0.1420   -0.5780    4.3580 ca        1 AVU      0.677900
      3 N3          1.4130   -0.3700    3.9270 nb        1 AVU     -0.767000
      4 C4          2.1950   -1.4820    4.0290 ca        1 AVU      0.472800
      5 C5          1.6940   -2.7600    4.5210 ca        1 AVU     -0.207200
      6 C6          0.3510   -2.8110    5.0190 ca        1 AVU      0.744200
      7 N6         -0.1520   -3.9870    5.5430 nh        1 AVU     -0.888500
      8 N7          2.7120   -3.7320    4.4650 nc        1 AVU     -0.510100
      9 C8          3.7760   -3.0920    3.9890 cd        1 AVU      0.406700
     10 N9          3.5410   -1.7140    3.6460 na        1 AVU     -0.276000
     11 PA          3.7510   -1.1590    8.5480 p5        1 AVU      1.805500
     12 PB          1.6490   -3.5350    9.2070 p5        1 AVU      1.608800
     13 C1'         4.6470   -0.7900    3.6780 c3        1 AVU      0.210800
     14 O1A         5.1640   -1.1660    8.8770 o         1 AVU     -0.845300
     15 O1B         0.7440   -2.7950   10.0850 o         1 AVU     -0.856500
     16 C1R         2.9070   -9.1590    9.1740 c3        1 AVU      0.103400
     17 C2'         4.3630    0.6820    3.2440 c3        1 AVU      0.091100
     18 O2'         5.0800    0.9820    2.0710 oh        1 AVU     -0.578800
     19 O2A         2.9330    0.0280    9.2420 oh        1 AVU     -0.813400
     20 O2B         1.2790   -4.2960    7.9980 o         1 AVU     -0.856500
     21 C2R         2.1350   -8.7170    7.9140 c3        1 AVU      0.126600
     22 F2R         0.8760   -9.2880    7.8560 f         1 AVU     -0.246300
     23 C3'         4.7770    1.5380    4.4700 c3        1 AVU      0.082100
     24 O3'         5.9640    2.2620    4.2040 oh        1 AVU     -0.594800
     25 O3A         2.7980   -2.3610    8.8190 os        1 AVU     -0.799800
     26 C3R         2.0670   -7.1670    8.0150 c3        1 AVU      0.116100
     27 O3R         2.6450   -6.6480    6.8380 oh        1 AVU     -0.618800
     28 C4'         4.9620    0.5230    5.6170 c3        1 AVU      0.076100
     29 O4'         5.2450   -0.7280    4.9880 os        1 AVU     -0.406600
     30 C4R         2.9060   -6.8060    9.2590 c3        1 AVU      0.078100
     31 O4R         3.1750   -8.0200    9.9840 os        1 AVU     -0.424600
     32 C5'         3.7300    0.4790    6.5310 c3        1 AVU      0.181400
     33 O5'         3.4700   -0.8120    6.9910 os        1 AVU     -0.574200
     34 C5R         2.1930   -5.8510   10.2300 c3        1 AVU      0.201400
     35 O5R         2.6290   -4.5360   10.0620 os        1 AVU     -0.585200
     36 H2         -0.5280    0.3050    4.2810 h5        1 AVU      0.035100
     37 HN6         2.0940   -0.1840    9.6440 ho        1 AVU      0.490000
     38 HN6A        0.5430   -4.5690    5.9810 hn        1 AVU      0.438800
     39 H8          4.7670   -3.5340    3.8330 h5        1 AVU      0.066800
     40 H1'         5.4530   -1.2420    3.0210 h2        1 AVU      0.085700
     41 H2'         3.2890    0.8610    2.9680 h1        1 AVU      0.135700
     42 HO2'        5.9930    1.1880    2.3130 ho        1 AVU      0.402000
     43 H3'         4.0060    2.3200    4.6960 h1        1 AVU      0.103700
     44 HO3'        6.7110    1.6650    4.3470 ho        1 AVU      0.405000
     45 H3R         1.0040   -6.8190    8.1180 h1        1 AVU      0.082700
     46 HO3R        2.3760   -5.7150    6.7800 ho        1 AVU      0.463000
     47 H4'         5.8830    0.7380    6.2290 h1        1 AVU      0.091700
     48 H4R         3.8950   -6.3710    8.9500 h1        1 AVU      0.083700
     49 H5'         2.8190    0.8120    5.9560 h1        1 AVU      0.049700
     50 H5'A        3.8960    1.1770    7.3990 h1        1 AVU      0.049700
     51 H5R         2.4500   -6.1580   11.2830 h1        1 AVU      0.034200
     52 H5RA        1.0780   -5.9080   10.0870 h1        1 AVU      0.034200
     53 H1R         3.8890   -9.6200    8.8930 h1        1 AVU      0.045700
     54 H1RA        2.3120   -9.8700    9.8020 h1        1 AVU      0.045700
     55 H63        -0.9840   -3.8970    6.0880 hn        1 AVU      0.438800
     56 H2R         2.6950   -9.0090    6.9810 h1        1 AVU      0.077700
@<TRIPOS>BOND
     1    1    2 ar  
     2    1    6 ar  
     3    2    3 ar  
     4    2   36 1   
     5    3    4 ar  
     6    4    5 ar  
     7    4   10 1   
     8    5    6 ar  
     9    5    8 1   
    10    6    7 1   
    11    7   38 1   
    12    7   55 1   
    13    8    9 2   
    14    9   10 1   
    15    9   39 1   
    16   10   13 1   
    17   11   14 2   
    18   11   19 1   
    19   11   25 1   
    20   11   33 1   
    21   12   15 1   
    22   12   20 1   
    23   12   25 1   
    24   12   35 1   
    25   13   17 1   
    26   13   29 1   
    27   13   40 1   
    28   16   21 1   
    29   16   31 1   
    30   16   53 1   
    31   16   54 1   
    32   17   18 1   
    33   17   23 1   
    34   17   41 1   
    35   18   42 1   
    36   19   37 1   
    37   21   22 1   
    38   21   26 1   
    39   21   56 1   
    40   23   24 1   
    41   23   28 1   
    42   23   43 1   
    43   24   44 1   
    44   26   27 1   
    45   26   30 1   
    46   26   45 1   
    47   27   46 1   
    48   28   29 1   
    49   28   32 1   
    50   28   47 1   
    51   30   31 1   
    52   30   34 1   
    53   30   48 1   
    54   32   33 1   
    55   32   49 1   
    56   32   50 1   
    57   34   35 1   
    58   34   51 1   
    59   34   52 1   
@<TRIPOS>SUBSTRUCTURE
     1 AVU         1 TEMP              0 ****  ****    0 ROOT
