@<TRIPOS>MOLECULE
AVU
   55    58     1     0     0
SMALL
bcc


@<TRIPOS>ATOM
      1 N1          0.2140    1.8200    0.0330 nb        1 AVU     -0.802000
      2 C2          1.3730    1.1060   -0.0530 ca        1 AVU      0.654900
      3 N3          2.0620    0.4410    0.8970 nb        1 AVU     -0.709000
      4 C4          1.4730    0.5140    2.1310 ca        1 AVU      0.445800
      5 C5          0.2290    1.2460    2.3800 ca        1 AVU     -0.212200
      6 C6         -0.3710    1.9180    1.2680 ca        1 AVU      0.714200
      7 N6         -1.4980    2.7060    1.4640 nh        1 AVU     -0.937500
      8 N7         -0.1380    1.1190    3.7260 nc        1 AVU     -0.577100
      9 C8          0.8240    0.3580    4.2770 cd        1 AVU      0.443700
     10 N9          1.8390   -0.0250    3.3710 na        1 AVU     -0.260000
     11 PA          2.7670   -1.9160    9.2110 p5        1 AVU      1.629800
     12 PB          3.6950   -4.3840   11.0790 p5        1 AVU      1.624800
     13 C1'         2.9730   -0.8990    3.6330 c3        1 AVU      0.212800
     14 O1A         1.6060   -1.2030    9.7650 o         1 AVU     -0.890500
     15 O1B         2.6670   -5.4490   11.1360 o         1 AVU     -0.885500
     16 C1R         5.3190   -9.7540    9.7680 c3        1 AVU      0.108400
     17 C2'         4.1390   -0.1970    4.4100 c3        1 AVU      0.109100
     18 O2'         5.3440   -0.4490    3.7260 oh        1 AVU     -0.601800
     19 O2A         3.9270   -1.1940    8.6330 o         1 AVU     -0.890500
     20 O2B         4.3940   -3.8910   12.2750 o         1 AVU     -0.885500
     21 C2R         3.9170   -9.6870   10.4060 c3        1 AVU      0.118600
     22 F2R         3.8870  -10.3120   11.6420 f         1 AVU     -0.256300
     23 C3'         4.0600   -0.7870    5.8350 c3        1 AVU      0.122100
     24 O3'         5.3500   -1.2070    6.2140 oh        1 AVU     -0.650800
     25 O3A         3.2210   -3.1500   10.1390 os        1 AVU     -0.805800
     26 C3R         3.5960   -8.1670   10.5010 c3        1 AVU      0.134100
     27 O3R         2.3620   -7.9660    9.8510 oh        1 AVU     -0.646800
     28 C4'         3.0930   -1.9850    5.7370 c3        1 AVU      0.056100
     29 O4'         2.5490   -2.0190    4.3990 os        1 AVU     -0.422600
     30 C4R         4.7520   -7.4660    9.7590 c3        1 AVU      0.073100
     31 O4R         5.8010   -8.4370    9.5510 os        1 AVU     -0.432600
     32 C5'         1.9370   -1.9400    6.7570 c3        1 AVU      0.213400
     33 O5'         2.2110   -2.7370    7.8510 os        1 AVU     -0.569200
     34 C5R         5.3650   -6.2820   10.5320 c3        1 AVU      0.215400
     35 O5R         4.8510   -5.0770   10.0860 os        1 AVU     -0.578200
     36 H2          1.8120    1.0650   -1.0710 h5        1 AVU      0.035100
     37 HN6        -2.0040    2.5230    2.3000 hn        1 AVU      0.417800
     38 HN6A       -2.0410    2.9320    0.6640 hn        1 AVU      0.417800
     39 H8          0.8590    0.0230    5.3280 h5        1 AVU      0.104800
     40 H1'         3.3350   -1.3000    2.6410 h2        1 AVU      0.105700
     41 H2'         4.0300    0.9190    4.4200 h1        1 AVU      0.076700
     42 HO2'        5.7680   -1.2160    4.1360 ho        1 AVU      0.432000
     43 H2R         3.1570  -10.1900    9.7460 h1        1 AVU      0.064700
     44 H3'         3.6800   -0.0150    6.5580 h1        1 AVU      0.095700
     45 HO3'        5.3180   -1.3430    7.1840 ho        1 AVU      0.500000
     46 H3R         3.5310   -7.8350   11.5720 h1        1 AVU      0.086700
     47 HO3R        2.0730   -7.0600   10.0820 ho        1 AVU      0.489000
     48 H4'         3.6520   -2.9540    5.8560 h1        1 AVU      0.102700
     49 H4R         4.4090   -7.1200    8.7470 h1        1 AVU      0.081700
     50 H5'         1.0130   -2.3380    6.2500 h1        1 AVU      0.013200
     51 H5'A        1.7500   -0.8770    7.0840 h1        1 AVU      0.013200
     52 H5R         5.1840   -6.4050   11.6360 h1        1 AVU      0.020200
     53 H5RA        6.4760   -6.2840   10.3400 h1        1 AVU      0.020200
     54 H1R         6.0560  -10.2680   10.4360 h1        1 AVU      0.030700
     55 H1RA        5.2760  -10.2750    8.7770 h1        1 AVU      0.030700
@<TRIPOS>BOND
     1    1    2 ar  
     2    1    6 ar  
     3    2    3 ar  
     4    2   36 1   
     5    3    4 ar  
     6    4    5 ar  
     7    4   10 1   
     8    5    6 ar  
     9    5    8 1   
    10    6    7 1   
    11    7   37 1   
    12    7   38 1   
    13    8    9 2   
    14    9   10 1   
    15    9   39 1   
    16   10   13 1   
    17   11   14 1   
    18   11   19 1   
    19   11   25 1   
    20   11   33 1   
    21   12   15 1   
    22   12   20 1   
    23   12   25 1   
    24   12   35 1   
    25   13   17 1   
    26   13   29 1   
    27   13   40 1   
    28   16   21 1   
    29   16   31 1   
    30   16   54 1   
    31   16   55 1   
    32   17   18 1   
    33   17   23 1   
    34   17   41 1   
    35   18   42 1   
    36   21   22 1   
    37   21   26 1   
    38   21   43 1   
    39   23   24 1   
    40   23   28 1   
    41   23   44 1   
    42   24   45 1   
    43   26   27 1   
    44   26   30 1   
    45   26   46 1   
    46   27   47 1   
    47   28   29 1   
    48   28   32 1   
    49   28   48 1   
    50   30   31 1   
    51   30   34 1   
    52   30   49 1   
    53   32   33 1   
    54   32   50 1   
    55   32   51 1   
    56   34   35 1   
    57   34   52 1   
    58   34   53 1   
@<TRIPOS>SUBSTRUCTURE
     1 AVU         1 TEMP              0 ****  ****    0 ROOT
