@<TRIPOS>MOLECULE
AVU
   55    49     1     0     0
SMALL
bcc


@<TRIPOS>ATOM
      1 N1         -4.0220    5.3710   -5.6130 n1        1 AVU     -0.276000
      2 C2         -3.1410    4.3240   -5.7670 c1        1 AVU     -0.009000
      3 N3         -2.6820    3.6530   -4.6750 n1        1 AVU     -0.182000
      4 C4         -3.0950    4.0180   -3.4270 c1        1 AVU     -0.084500
      5 C5         -3.9530    5.0380   -3.2760 c1        1 AVU     -0.084500
      6 C6         -4.4250    5.7270   -4.4000 c1        1 AVU      0.193000
      7 N6         -5.2190    6.8890   -4.5990 n3        1 AVU     -0.335000
      8 N7         -4.1390    5.2370   -1.9390 n1        1 AVU     -0.164000
      9 C8         -3.3970    4.3420   -1.2800 c1        1 AVU     -0.011000
     10 N9         -2.7450    3.5800   -2.1960 n1        1 AVU     -0.164000
     11 PA         -1.4670   -1.3340    2.8980 p3        1 AVU      2.730000
     12 PB          0.4390   -3.2660    3.5290 p3        1 AVU      2.720000
     13 C1'        -1.9430    2.4170   -1.9560 c2        1 AVU      0.124000
     14 O1A        -2.6340   -1.6530    3.8670 o         1 AVU     -1.212000
     15 O1B        -0.1950   -4.1460    4.5420 o         1 AVU     -1.226000
     16 C1R         4.8150   -4.1310    0.8000 c3        1 AVU     -0.042000
     17 C2'        -0.7770    2.7620   -1.5750 c3        1 AVU     -0.002000
     18 O2'         0.1570    2.8060   -2.7480 oh        1 AVU     -0.328000
     19 O2A        -0.5160   -0.3220    3.5570 o         1 AVU     -1.212000
     20 O2B         1.1760   -2.1450    4.2250 o         1 AVU     -1.226000
     21 C2R         5.6420   -5.1280    1.7450 c3        1 AVU      0.010000
     22 F2R         6.8340   -4.5500    2.1070 f         1 AVU     -0.180000
     23 C3'        -0.3420    1.6720   -0.5950 c3        1 AVU      0.011000
     24 O3'         0.6130    0.8770   -1.1610 oh        1 AVU     -0.379000
     25 O3A        -0.6840   -2.6530    2.5770 o         1 AVU     -1.226000
     26 C3R         4.8960   -5.3250    2.8060 c3        1 AVU      0.019000
     27 O3R         5.0680   -6.6920    3.2940 oh        1 AVU     -0.376000
     28 C4'        -1.6320    0.8400   -0.2870 c3        1 AVU     -0.055000
     29 O4'        -2.5780    1.5440   -0.7560 os        1 AVU     -0.279000
     30 C4R         3.4350   -5.1110    2.3110 c3        1 AVU     -0.033000
     31 O4R         3.5540   -4.4770    0.9100 os        1 AVU     -0.288000
     32 C5'        -1.8010    0.6510    1.2450 c3        1 AVU      0.060000
     33 O5'        -2.0590   -0.7050    1.5270 os        1 AVU     -0.730000
     34 C5R         2.7610   -4.2620    3.1570 c3        1 AVU      0.055000
     35 O5R         1.4330   -4.0910    2.6820 o         1 AVU     -0.746000
     36 H2         -2.8360    4.0570   -6.6850 ha        1 AVU      0.172000
     37 HN6        -5.4640    7.1240   -5.4190 hn        1 AVU      0.213000
     38 HN6A       -5.4740    7.3850   -3.8970 hn        1 AVU      0.213000
     39 H8         -3.3460    4.2430   -0.3120 DU        1 AVU      0.236000
     40 H1'        -1.8820    1.8590   -2.7950 h4        1 AVU      0.142000
     41 H1R         5.1110   -4.2270   -0.1310 h1        1 AVU      0.070500
     42 H1RA        4.9370   -3.2070    1.0990 h1        1 AVU      0.070500
     43 H2'        -0.8080    3.6680   -1.1100 h1        1 AVU      0.117000
     44 HO2'        0.7420    3.4590   -2.6350 ho        1 AVU      0.231000
     45 H2R         5.8080   -5.9980    1.2720 h1        1 AVU      0.098000
     46 H3'         0.0070    2.0830    0.2430 h1        1 AVU      0.134000
     47 HO3'        1.4220    1.0240   -0.7450 ho        1 AVU      0.299000
     48 H3R         5.1280   -4.6580    3.5330 h1        1 AVU      0.139000
     49 HO3R        5.5010   -6.6790    4.0480 ho        1 AVU      0.280000
     50 H4'        -1.5970   -0.0300   -0.7400 h1        1 AVU      0.140000
     51 H4R         2.9660   -5.9760    2.2540 h1        1 AVU      0.112000
     52 H5'        -0.9980    0.9190    1.6880 h1        1 AVU      0.055000
     53 H5'A       -2.5620    1.2070    1.5680 h1        1 AVU      0.055000
     54 H5R         3.2290   -3.3660    3.1790 h1        1 AVU      0.075500
     55 H5RA        2.7420   -4.6450    4.0590 h1        1 AVU      0.075500
@<TRIPOS>BOND
     1    1    6 1   
     2    2    3 1   
     3    2   36 1   
     4    4    5 1   
     5    6    7 1   
     6    7   37 1   
     7    7   38 1   
     8    8    9 1   
     9    9   10 1   
    10   11   14 1   
    11   11   19 1   
    12   11   33 1   
    13   12   15 1   
    14   12   20 1   
    15   12   25 1   
    16   13   17 1   
    17   13   29 1   
    18   13   40 1   
    19   16   21 1   
    20   16   31 1   
    21   16   41 1   
    22   16   42 1   
    23   17   18 1   
    24   17   23 1   
    25   17   43 1   
    26   18   44 1   
    27   21   22 1   
    28   21   26 1   
    29   21   45 1   
    30   23   24 1   
    31   23   28 1   
    32   23   46 1   
    33   24   47 1   
    34   26   27 1   
    35   26   30 1   
    36   26   48 1   
    37   27   49 1   
    38   28   29 1   
    39   28   32 1   
    40   28   50 1   
    41   30   31 1   
    42   30   34 1   
    43   30   51 1   
    44   32   33 1   
    45   32   52 1   
    46   32   53 1   
    47   34   35 1   
    48   34   54 1   
    49   34   55 1   
@<TRIPOS>SUBSTRUCTURE
     1 AVU         1 TEMP              0 ****  ****    0 ROOT
