@<TRIPOS>MOLECULE
AVU
   55    58     1     0     0
SMALL
bcc


@<TRIPOS>ATOM
      1 N1          0.1270    1.7820    0.0410 nb        1 AVU     -0.802000
      2 C2          1.2760    1.0550   -0.0620 ca        1 AVU      0.654900
      3 N3          1.9780    0.3920    0.8810 nb        1 AVU     -0.709000
      4 C4          1.4160    0.4830    2.1260 ca        1 AVU      0.445800
      5 C5          0.1850    1.2300    2.3920 ca        1 AVU     -0.212200
      6 C6         -0.4310    1.8980    1.2880 ca        1 AVU      0.714200
      7 N6         -1.5460    2.7000    1.4990 nv        1 AVU     -0.937500
      8 N7         -0.1550    1.1200    3.7480 nc        1 AVU     -0.577100
      9 C8          0.8100    0.3540    4.2860 cd        1 AVU      0.443700
     10 N9          1.8020   -0.0480    3.3620 na        1 AVU     -0.260000
     11 PA          2.8330   -1.8900    9.2010 p5        1 AVU      1.629800
     12 PB          3.7710   -4.3480   11.0760 p5        1 AVU      1.624800
     13 C1'         2.9320   -0.9310    3.6100 c3        1 AVU      0.212800
     14 O1A         1.6920   -1.1580    9.7710 o         1 AVU     -0.890500
     15 O1B         2.7330   -5.4010   11.1650 o         1 AVU     -0.885500
     16 C1R         5.3030   -9.7500    9.7840 c3        1 AVU      0.108400
     17 C2'         4.1210   -0.2340    4.3550 c3        1 AVU      0.109100
     18 O2'         5.3090   -0.5050    3.6480 oh        1 AVU     -0.601800
     19 O2A         3.9890   -1.1870    8.5920 o         1 AVU     -0.890500
     20 O2B         4.4990   -3.8510   12.2530 o         1 AVU     -0.885500
     21 C2R         3.9150   -9.6590   10.4490 c3        1 AVU      0.118600
     22 F2R         3.9010  -10.2730   11.6900 f         1 AVU     -0.256300
     23 C3'         4.0670   -0.8090    5.7870 c3        1 AVU      0.122100
     24 O3'         5.3600   -1.2380    6.1430 oh        1 AVU     -0.650800
     25 O3A         3.2930   -3.1190   10.1330 os        1 AVU     -0.805800
     26 C3R         3.6140   -8.1350   10.5360 c3        1 AVU      0.134100
     27 O3R         2.3710   -7.9240    9.9080 oh        1 AVU     -0.646800
     28 C4'         3.0850   -1.9970    5.7220 c3        1 AVU      0.056100
     29 O4'         2.5130   -2.0390    4.3950 os        1 AVU     -0.422600
     30 C4R         4.7640   -7.4560    9.7650 c3        1 AVU      0.073100
     31 O4R         5.7970   -8.4400    9.5450 os        1 AVU     -0.432600
     32 C5'         1.9520   -1.9290    6.7660 c3        1 AVU      0.213400
     33 O5'         2.2400   -2.7180    7.8620 os        1 AVU     -0.569200
     34 C5R         5.4070   -6.2720   10.5150 c3        1 AVU      0.215400
     35 O5R         4.8990   -5.0640   10.0680 os        1 AVU     -0.578200
     36 H2          1.6940    1.0000   -1.0890 h5        1 AVU      0.035100
     37 HN6        -2.0360    2.5310    2.3470 hn        1 AVU      0.417800
     38 HN6A       -2.1030    2.9240    0.7080 hn        1 AVU      0.417800
     39 H8          0.8630    0.0300    5.3390 h5        1 AVU      0.104800
     40 H1'         3.2690   -1.3460    2.6140 h2        1 AVU      0.105700
     41 H2'         4.0240    0.8840    4.3560 h1        1 AVU      0.076700
     42 HO2'        5.7340   -1.2730    4.0570 ho        1 AVU      0.432000
     43 H2R         3.1360  -10.1590    9.8080 h1        1 AVU      0.064700
     44 H3'         3.7100   -0.0260    6.5100 h1        1 AVU      0.095700
     45 HO3'        5.3470   -1.3650    7.1150 ho        1 AVU      0.500000
     46 H3R         3.5750   -7.7930   11.6040 h1        1 AVU      0.086700
     47 HO3R        2.0970   -7.0130   10.1370 ho        1 AVU      0.489000
     48 H4'         3.6360   -2.9710    5.8390 h1        1 AVU      0.102700
     49 H4R         4.4060   -7.1140    8.7560 h1        1 AVU      0.081700
     50 H5'         1.0130   -2.3230    6.2820 h1        1 AVU      0.013200
     51 H5'A        1.7820   -0.8620    7.0850 h1        1 AVU      0.013200
     52 H5R         5.2460   -6.3830   11.6240 h1        1 AVU      0.020200
     53 H5RA        6.5140   -6.2900   10.3020 h1        1 AVU      0.020200
     54 H1R         6.0470  -10.2670   10.4420 h1        1 AVU      0.030700
     55 H1RA        5.2340  -10.2790    8.7990 h1        1 AVU      0.030700
@<TRIPOS>BOND
     1    1    2 ar  
     2    1    6 ar  
     3    2    3 ar  
     4    2   36 1   
     5    3    4 ar  
     6    4    5 ar  
     7    4   10 1   
     8    5    6 ar  
     9    5    8 1   
    10    6    7 1   
    11    7   37 1   
    12    7   38 1   
    13    8    9 2   
    14    9   10 1   
    15    9   39 1   
    16   10   13 1   
    17   11   14 1   
    18   11   19 1   
    19   11   25 1   
    20   11   33 1   
    21   12   15 1   
    22   12   20 1   
    23   12   25 1   
    24   12   35 1   
    25   13   17 1   
    26   13   29 1   
    27   13   40 1   
    28   16   21 1   
    29   16   31 1   
    30   16   54 1   
    31   16   55 1   
    32   17   18 1   
    33   17   23 1   
    34   17   41 1   
    35   18   42 1   
    36   21   22 1   
    37   21   26 1   
    38   21   43 1   
    39   23   24 1   
    40   23   28 1   
    41   23   44 1   
    42   24   45 1   
    43   26   27 1   
    44   26   30 1   
    45   26   46 1   
    46   27   47 1   
    47   28   29 1   
    48   28   32 1   
    49   28   48 1   
    50   30   31 1   
    51   30   34 1   
    52   30   49 1   
    53   32   33 1   
    54   32   50 1   
    55   32   51 1   
    56   34   35 1   
    57   34   52 1   
    58   34   53 1   
@<TRIPOS>SUBSTRUCTURE
     1 AVU         1 TEMP              0 ****  ****    0 ROOT
