@<TRIPOS>MOLECULE
AVU
   55    58     1     0     0
SMALL
bcc


@<TRIPOS>ATOM
      1 N1         -8.6170   -2.5800    0.0780 nb        1 AVU     -0.802000
      2 C2         -7.9850   -2.3200   -1.1030 ca        1 AVU      0.654900
      3 N3         -6.7630   -1.8000   -1.3440 nb        1 AVU     -0.709000
      4 C4         -6.0770   -1.5020   -0.1980 ca        1 AVU      0.445800
      5 C5         -6.6260   -1.7220    1.1420 ca        1 AVU     -0.212200
      6 C6         -7.9470   -2.2630    1.2300 ca        1 AVU      0.714200
      7 N6         -8.5550   -2.4030    2.4720 nh        1 AVU     -0.937500
      8 N7         -5.6850   -1.3450    2.1100 nc        1 AVU     -0.577100
      9 C8         -4.6210   -0.9130    1.4100 cd        1 AVU      0.443700
     10 N9         -4.8010   -0.9640    0.0090 na        1 AVU     -0.260000
     11 PA          0.6200    1.4630    1.8170 p5        1 AVU      1.629800
     12 PB          3.8050    1.5310    1.2740 p5        1 AVU      1.624800
     13 C1'        -3.8220   -0.6370   -1.0190 c3        1 AVU      0.212800
     14 O1A         0.3000    1.4380    3.2520 o         1 AVU     -0.890500
     15 O1B         4.4670    0.2850    1.7240 o         1 AVU     -0.885500
     16 C1R         7.0780   -1.2990   -2.5310 c3        1 AVU      0.108400
     17 C2'        -3.6440    0.9030   -1.2470 c3        1 AVU      0.109100
     18 O2'        -3.7420    1.1620   -2.6280 oh        1 AVU     -0.601800
     19 O2A        -0.1220    2.3240    0.8620 o         1 AVU     -0.890500
     20 O2B         4.3480    2.8670    1.5590 o         1 AVU     -0.885500
     21 C2R         7.2480   -1.8140   -1.0880 c3        1 AVU      0.118600
     22 F2R         8.5250   -1.5790   -0.6080 f         1 AVU     -0.256300
     23 C3'        -2.2720    1.2270   -0.6180 c3        1 AVU      0.122100
     24 O3'        -1.5240    1.9800   -1.5440 oh        1 AVU     -0.650800
     25 O3A         2.2070    1.4880    1.5490 os        1 AVU     -0.805800
     26 C3R         6.1570   -1.0670   -0.2680 c3        1 AVU      0.134100
     27 O3R         5.3920   -2.0490    0.3920 oh        1 AVU     -0.646800
     28 C4'        -1.6060   -0.1370   -0.3430 c3        1 AVU      0.056100
     29 O4'        -2.5570   -1.1770   -0.6650 os        1 AVU     -0.422600
     30 C4R         5.3230   -0.3020   -1.3140 c3        1 AVU      0.073100
     31 O4R         6.0450   -0.3250   -2.5640 os        1 AVU     -0.432600
     32 C5'        -1.1250   -0.3160    1.1110 c3        1 AVU      0.213400
     33 O5'         0.2280   -0.0610    1.2210 os        1 AVU     -0.569200
     34 C5R         5.0690    1.1750   -0.9560 c3        1 AVU      0.215400
     35 O5R         3.8160    1.3420   -0.3900 os        1 AVU     -0.578200
     36 H2         -8.5730   -2.5850   -2.0060 h5        1 AVU      0.035100
     37 HN6        -7.9360   -2.4050    3.2490 hn        1 AVU      0.417800
     38 HN6A       -9.3350   -3.0150    2.5310 hn        1 AVU      0.417800
     39 H8         -3.6690   -0.5570    1.8390 h5        1 AVU      0.104800
     40 H1'        -4.1420   -1.1510   -1.9730 h2        1 AVU      0.105700
     41 H2'        -4.4670    1.5010   -0.7730 h1        1 AVU      0.076700
     42 HO2'       -2.8470    1.1810   -2.9950 ho        1 AVU      0.432000
     43 H2R         7.0590   -2.9230   -1.0390 h1        1 AVU      0.064700
     44 H3'        -2.4060    1.8130    0.3330 h1        1 AVU      0.095700
     45 HO3'       -0.7800    2.3720   -1.0400 ho        1 AVU      0.500000
     46 H3R         6.6230   -0.3690    0.4790 h1        1 AVU      0.086700
     47 HO3R        4.8460   -1.5760    1.0510 ho        1 AVU      0.489000
     48 H4'        -0.7390   -0.3000   -1.0410 h1        1 AVU      0.102700
     49 H4R         4.3420   -0.8230   -1.4840 h1        1 AVU      0.081700
     50 H5'        -1.7080    0.3610    1.7990 h1        1 AVU      0.013200
     51 H5'A       -1.3100   -1.3890    1.4060 h1        1 AVU      0.013200
     52 H5R         5.8700    1.5480   -0.2590 h1        1 AVU      0.020200
     53 H5RA        5.1070    1.7730   -1.9110 h1        1 AVU      0.020200
     54 H1R         8.0090   -0.8040   -2.9090 h1        1 AVU      0.030700
     55 H1RA        6.7870   -2.1360   -3.2170 h1        1 AVU      0.030700
@<TRIPOS>BOND
     1    1    2 ar  
     2    1    6 ar  
     3    2    3 ar  
     4    2   36 1   
     5    3    4 ar  
     6    4    5 ar  
     7    4   10 1   
     8    5    6 ar  
     9    5    8 1   
    10    6    7 1   
    11    7   37 1   
    12    7   38 1   
    13    8    9 2   
    14    9   10 1   
    15    9   39 1   
    16   10   13 1   
    17   11   14 1   
    18   11   19 1   
    19   11   25 1   
    20   11   33 1   
    21   12   15 1   
    22   12   20 1   
    23   12   25 1   
    24   12   35 1   
    25   13   17 1   
    26   13   29 1   
    27   13   40 1   
    28   16   21 1   
    29   16   31 1   
    30   16   54 1   
    31   16   55 1   
    32   17   18 1   
    33   17   23 1   
    34   17   41 1   
    35   18   42 1   
    36   21   22 1   
    37   21   26 1   
    38   21   43 1   
    39   23   24 1   
    40   23   28 1   
    41   23   44 1   
    42   24   45 1   
    43   26   27 1   
    44   26   30 1   
    45   26   46 1   
    46   27   47 1   
    47   28   29 1   
    48   28   32 1   
    49   28   48 1   
    50   30   31 1   
    51   30   34 1   
    52   30   49 1   
    53   32   33 1   
    54   32   50 1   
    55   32   51 1   
    56   34   35 1   
    57   34   52 1   
    58   34   53 1   
@<TRIPOS>SUBSTRUCTURE
     1 AVU         1 TEMP              0 ****  ****    0 ROOT
