@<TRIPOS>MOLECULE
AVV
   56    59     1     0     0
SMALL
bcc


@<TRIPOS>ATOM
      1 PA         -1.7250    0.0420    0.8440 p5        1 AVV      1.629800
      2 PN         -0.8470   -3.0140    0.2680 p5        1 AVV      1.625800
      3 F1A        -6.0240    8.9250   -3.9080 f         1 AVV     -0.217200
      4 N1A        -6.7080    8.5760   -1.7330 nb        1 AVV     -0.818000
      5 O1A        -0.7530    1.0140    0.2850 o         1 AVV     -0.890500
      6 O1N         0.3850   -3.3450    1.0000 o         1 AVV     -0.886500
      7 C2A        -5.9410    8.1400   -2.7970 ca        1 AVV      0.866200
      8 O2A        -2.3090    0.2100    2.1820 o         1 AVV     -0.890500
      9 O2N        -2.0160   -3.9230    0.2250 o         1 AVV     -0.886500
     10 O3         -1.2940   -1.4820    0.5540 os        1 AVV     -0.805800
     11 N3A        -5.1270    7.0480   -2.9090 nb        1 AVV     -0.723000
     12 C4A        -5.1020    6.3010   -1.7630 ca        1 AVV      0.463800
     13 C5A        -5.8560    6.6410   -0.5570 ca        1 AVV     -0.226200
     14 C6A        -6.6510    7.8290   -0.5880 ca        1 AVV      0.744200
     15 N6A        -7.3150    8.2460    0.5530 nv        1 AVV     -0.942500
     16 N7A        -5.6390    5.6710    0.4310 nc        1 AVV     -0.570100
     17 C8A        -4.7960    4.7880   -0.1310 cd        1 AVV      0.443700
     18 N9A        -4.4160    5.1220   -1.4520 na        1 AVV     -0.256000
     19 C1'A       -3.5750    4.3420   -2.3520 c3        1 AVV      0.211800
     20 C1'N       -1.4270   -6.4340   -4.3130 c3        1 AVV      0.102400
     21 C2'A       -2.0460    4.4530   -2.0300 c3        1 AVV      0.109100
     22 O2'A       -1.3620    4.7490   -3.2250 oh        1 AVV     -0.599800
     23 C2'N       -2.2750   -6.8510   -3.1010 c3        1 AVV      0.109100
     24 O2'N       -3.5870   -7.1870   -3.4990 oh        1 AVV     -0.618800
     25 C3'A       -1.6890    3.0930   -1.3920 c3        1 AVV      0.122100
     26 O3'A       -0.5350    2.5940   -2.0240 oh        1 AVV     -0.649800
     27 C3'N       -2.1700   -5.6640   -2.1150 c3        1 AVV      0.121100
     28 O3'N       -3.4660   -5.1590   -1.8810 oh        1 AVV     -0.657800
     29 C4'A       -2.9040    2.1790   -1.6520 c3        1 AVV      0.055100
     30 O4'A       -3.9400    2.9710   -2.2770 os        1 AVV     -0.420600
     31 C4'N       -1.2840   -4.6180   -2.8240 c3        1 AVV      0.071100
     32 O4'N       -0.7210   -5.2390   -3.9980 os        1 AVV     -0.436600
     33 C5'A       -3.4690    1.5120   -0.3810 c3        1 AVV      0.213400
     34 O5'A       -2.9940    0.2220   -0.2470 os        1 AVV     -0.568200
     35 C5'N       -0.1150   -4.1000   -1.9640 c3        1 AVV      0.215400
     36 O5'N       -0.4390   -2.9010   -1.3510 os        1 AVV     -0.579200
     37 HAN6       -8.0300    8.9260    0.4580 hn        1 AVV      0.427300
     38 HANA       -7.4310    7.5610    1.2630 hn        1 AVV      0.427300
     39 HC1'       -3.7930    4.6810   -3.4080 h2        1 AVV      0.108700
     40 HC1B       -2.0760   -6.2400   -5.2060 h1        1 AVV      0.027700
     41 HC2'       -1.8180    5.3060   -1.3380 h1        1 AVV      0.076700
     42 HO2'       -1.0410    3.9180   -3.6020 ho        1 AVV      0.433000
     43 HC2A       -1.8680   -7.7880   -2.6340 h1        1 AVV      0.054700
     44 HO2A       -4.1310   -6.3900   -3.4390 ho        1 AVV      0.428000
     45 HC3'       -1.5010    3.2160   -0.2900 h1        1 AVV      0.096700
     46 HO3'       -0.1950    1.8780   -1.4470 ho        1 AVV      0.501000
     47 HC3A       -1.7100   -5.9980   -1.1460 h1        1 AVV      0.082700
     48 HO3A       -3.3980   -4.5890   -1.0880 ho        1 AVV      0.495000
     49 HC4'       -2.6460    1.3830   -2.4030 h1        1 AVV      0.103700
     50 HC4A       -1.9100   -3.7510   -3.1680 h1        1 AVV      0.078700
     51 HC5'       -4.5910    1.4690   -0.4830 h1        1 AVV      0.013200
     52 HC5A       -3.2040    2.1230    0.5280 h1        1 AVV      0.013200
     53 HC5B        0.7630   -3.9190   -2.6480 h1        1 AVV      0.019200
     54 HC5C        0.1730   -4.8710   -1.1960 h1        1 AVV      0.019200
     55 HC8        -4.4150    3.8670    0.3430 h5        1 AVV      0.107800
     56 HC1A       -0.6530   -7.2010   -4.5690 h1        1 AVV      0.027700
@<TRIPOS>BOND
     1    1    5 1   
     2    1    8 1   
     3    1   10 1   
     4    1   34 1   
     5    2    6 1   
     6    2    9 1   
     7    2   10 1   
     8    2   36 1   
     9    3    7 1   
    10    4    7 ar  
    11    4   14 ar  
    12    7   11 ar  
    13   11   12 ar  
    14   12   13 ar  
    15   12   18 1   
    16   13   14 ar  
    17   13   16 1   
    18   14   15 1   
    19   15   37 1   
    20   15   38 1   
    21   16   17 2   
    22   17   18 1   
    23   17   55 1   
    24   18   19 1   
    25   19   21 1   
    26   19   30 1   
    27   19   39 1   
    28   20   23 1   
    29   20   32 1   
    30   20   40 1   
    31   20   56 1   
    32   21   22 1   
    33   21   25 1   
    34   21   41 1   
    35   22   42 1   
    36   23   24 1   
    37   23   27 1   
    38   23   43 1   
    39   24   44 1   
    40   25   26 1   
    41   25   29 1   
    42   25   45 1   
    43   26   46 1   
    44   27   28 1   
    45   27   31 1   
    46   27   47 1   
    47   28   48 1   
    48   29   30 1   
    49   29   33 1   
    50   29   49 1   
    51   31   32 1   
    52   31   35 1   
    53   31   50 1   
    54   33   34 1   
    55   33   51 1   
    56   33   52 1   
    57   35   36 1   
    58   35   53 1   
    59   35   54 1   
@<TRIPOS>SUBSTRUCTURE
     1 AVV         1 TEMP              0 ****  ****    0 ROOT
