@<TRIPOS>MOLECULE
AVV
   56    50     1     0     0
SMALL
bcc


@<TRIPOS>ATOM
      1 PA         -0.5610    0.9100    1.4970 p3        1 AVV      2.746000
      2 PN         -1.1850    3.6510    1.4520 p3        1 AVV      2.703000
      3 F1A         0.5160   -8.3480   -4.4290 f         1 AVV     -0.077000
      4 N1A         2.5110   -8.1010   -3.1780 n1        1 AVV     -0.292000
      5 O1A         0.9260    0.9240    1.4590 o         1 AVV     -1.222000
      6 O1N        -2.6010    3.8850    2.0490 os        1 AVV     -1.172000
      7 C2A         1.1880   -7.8320   -3.3420 c1        1 AVV      0.200000
      8 O2A        -1.0220    0.8990    2.9130 o         1 AVV     -1.222000
      9 O2N        -0.1540    3.7330    2.5540 o         1 AVV     -1.239500
     10 O3         -1.1220    2.1990    0.7700 o         1 AVV     -1.239500
     11 N3A         0.5430   -6.9910   -2.4700 n1        1 AVV     -0.198000
     12 C4A         1.2350   -6.4180   -1.4260 c1        1 AVV     -0.082000
     13 C5A         2.5460   -6.6840   -1.2610 c1        1 AVV     -0.082000
     14 C6A         3.1980   -7.5380   -2.1480 c1        1 AVV      0.225000
     15 N6A         4.5630   -7.9830   -2.2420 n3        1 AVV     -0.340000
     16 N7A         2.9780   -6.0080   -0.1670 n1        1 AVV     -0.158000
     17 C8A         1.9320   -5.3280    0.3400 c1        1 AVV     -0.013000
     18 N9A         0.8500   -5.5810   -0.4390 n1        1 AVV     -0.158000
     19 C1'A       -0.3600   -4.8380   -0.4430 c2        1 AVV      0.120000
     20 C1'N       -1.3790    9.2890   -0.3390 c3        1 AVV     -0.045000
     21 C2'A       -1.1050   -5.2200    0.5070 c3        1 AVV     -0.002000
     22 O2'A       -2.0910   -6.2560    0.0140 oh        1 AVV     -0.326000
     23 C2'N       -0.2670    9.2200    0.3810 c3        1 AVV     -0.002000
     24 O2'N        0.5470   10.4280    0.1680 oh        1 AVV     -0.354000
     25 C3'A       -1.8480   -3.9610    0.9620 c3        1 AVV      0.011000
     26 O3'A       -3.1350   -4.0100    0.5610 oh        1 AVV     -0.377000
     27 C3'N        0.5180    7.9380   -0.1410 c3        1 AVV     -0.013000
     28 O3'N        1.2660    8.2660   -1.3150 oh        1 AVV     -0.388000
     29 C4'A       -1.1150   -2.7660    0.2740 c3        1 AVV     -0.055000
     30 O4'A       -0.0470   -3.2720   -0.1780 os        1 AVV     -0.277000
     31 C4'N       -0.4200    7.0160   -0.4300 c3        1 AVV     -0.024000
     32 O4'N       -1.6820    7.8150   -0.7730 os        1 AVV     -0.303000
     33 C5'A       -0.7930   -1.6640    1.3070 c3        1 AVV      0.062000
     34 O5'A       -1.0970   -0.3910    0.7530 os        1 AVV     -0.731000
     35 C5'N       -0.6690    6.1300    0.7710 c3        1 AVV      0.035000
     36 O5'N       -0.8770    4.7860    0.3350 os        1 AVV     -0.748000
     37 HAN6        4.7560   -8.8460   -2.1500 hn        1 AVV      0.224000
     38 HANA        5.2550   -7.3560   -2.3450 hn        1 AVV      0.224000
     39 HC8         1.9260   -4.8290    1.1900 DU        1 AVV      0.236000
     40 HC1'       -0.8350   -4.9530   -1.3240 h4        1 AVV      0.148000
     41 HC1A       -2.1170    9.6410    0.2050 h1        1 AVV      0.063500
     42 HC1B       -1.2430    9.8360   -1.1050 h1        1 AVV      0.063500
     43 HC2'       -0.5700   -5.5780    1.2320 h1        1 AVV      0.117000
     44 HO2'       -2.2000   -6.8890    0.6420 ho        1 AVV      0.231000
     45 HC2A       -0.4840    9.1220    1.3360 h1        1 AVV      0.122000
     46 HO2A        0.3410   11.0440    0.7920 ho        1 AVV      0.222000
     47 HC3'       -1.8000   -3.8730    1.9330 h1        1 AVV      0.136000
     48 HO3'       -3.6960   -3.9760    1.3060 ho        1 AVV      0.298000
     49 HC3A        1.1310    7.5910    0.5760 h1        1 AVV      0.170000
     50 HO3A        2.1010    7.9980   -1.2160 ho        1 AVV      0.286000
     51 HC4'       -1.6690   -2.3980   -0.4690 h1        1 AVV      0.143000
     52 HC4A       -0.1380    6.4670   -1.2120 h1        1 AVV      0.118000
     53 HC5'       -1.3320   -1.8050    2.1190 h1        1 AVV      0.054000
     54 HC5A        0.1180   -1.6990    1.5270 h1        1 AVV      0.054000
     55 HC5B       -1.4480    6.4390    1.2420 h1        1 AVV      0.064000
     56 HC5C        0.1180    6.1640    1.3740 h1        1 AVV      0.064000
@<TRIPOS>BOND
     1    1    5 1   
     2    1    8 1   
     3    1   34 1   
     4    2    9 1   
     5    2   10 1   
     6    2   36 1   
     7    3    7 1   
     8    4   14 1   
     9    7   11 1   
    10   12   13 1   
    11   14   15 1   
    12   15   37 1   
    13   15   38 1   
    14   16   17 1   
    15   17   18 1   
    16   19   21 1   
    17   19   30 1   
    18   19   40 1   
    19   20   23 1   
    20   20   32 1   
    21   20   41 1   
    22   20   42 1   
    23   21   22 1   
    24   21   25 1   
    25   21   43 1   
    26   22   44 1   
    27   23   24 1   
    28   23   27 1   
    29   23   45 1   
    30   24   46 1   
    31   25   26 1   
    32   25   29 1   
    33   25   47 1   
    34   26   48 1   
    35   27   28 1   
    36   27   31 1   
    37   27   49 1   
    38   28   50 1   
    39   29   30 1   
    40   29   33 1   
    41   29   51 1   
    42   31   32 1   
    43   31   35 1   
    44   31   52 1   
    45   33   34 1   
    46   33   53 1   
    47   33   54 1   
    48   35   36 1   
    49   35   55 1   
    50   35   56 1   
@<TRIPOS>SUBSTRUCTURE
     1 AVV         1 TEMP              0 ****  ****    0 ROOT
