@<TRIPOS>MOLECULE
AVV
   56    59     1     0     0
SMALL
bcc


@<TRIPOS>ATOM
      1 PA         -1.0410   -1.6380    1.7010 p5        1 AVV      1.629800
      2 PN         -4.2190   -1.5620    1.1260 p5        1 AVV      1.625800
      3 F1A         8.5490    2.3700   -1.7570 f         1 AVV     -0.217200
      4 N1A         8.3770    2.1380    0.5310 nb        1 AVV     -0.818000
      5 O1A        -0.3140   -2.4610    0.7020 o         1 AVV     -0.890500
      6 O1N        -4.8130   -2.8930    1.3240 o         1 AVV     -0.886500
      7 C2A         7.7720    1.9910   -0.7030 ca        1 AVV      0.866200
      8 O2A        -0.7360   -1.7130    3.1370 o         1 AVV     -0.890500
      9 O2N        -4.8440   -0.3250    1.6510 o         1 AVV     -0.886500
     10 O3         -2.6240   -1.5930    1.4150 os        1 AVV     -0.805800
     11 N3A         6.5250    1.5360   -1.0260 nb        1 AVV     -0.723000
     12 C4A         5.7990    1.1850    0.0790 ca        1 AVV      0.463800
     13 C5A         6.3070    1.2820    1.4470 ca        1 AVV     -0.226200
     14 C6A         7.6430    1.7600    1.6230 ca        1 AVV      0.744200
     15 N6A         8.2060    1.7880    2.8880 nh        1 AVV     -0.942500
     16 N7A         5.3200    0.8720    2.3540 nc        1 AVV     -0.570100
     17 C8A         4.2670    0.5370    1.5890 cd        1 AVV      0.443700
     18 N9A         4.4980    0.6850    0.2010 na        1 AVV     -0.256000
     19 C1'A        3.5430    0.4730   -0.8800 c3        1 AVV      0.211800
     20 C1'N       -7.4530    1.5490   -2.4630 c3        1 AVV      0.102400
     21 C2'A        3.3110   -1.0390   -1.2190 c3        1 AVV      0.109100
     22 O2'A        3.4380   -1.2060   -2.6120 oh        1 AVV     -0.599800
     23 C2'N       -7.6620    1.8790   -0.9760 c3        1 AVV      0.109100
     24 O2'N       -7.6990    3.2760   -0.7730 oh        1 AVV     -0.618800
     25 C3'A        1.9100   -1.3480   -0.6480 c3        1 AVV      0.122100
     26 O3'A        1.1600   -2.0070   -1.6420 oh        1 AVV     -0.649800
     27 C3'N       -6.5210    1.1370   -0.2400 c3        1 AVV      0.121100
     28 O3'N       -5.7380    2.0860    0.4470 oh        1 AVV     -0.657800
     29 C4'A        1.2900    0.0200   -0.3010 c3        1 AVV      0.055100
     30 O4'A        2.2900    1.0400   -0.5270 os        1 AVV     -0.420600
     31 C4'N       -5.7060    0.4370   -1.3480 c3        1 AVV      0.071100
     32 O4'N       -6.4450    0.5530   -2.5810 os        1 AVV     -0.436600
     33 C5'A        0.7740    0.1240    1.1490 c3        1 AVV      0.213400
     34 O5'A       -0.5880   -0.0940    1.2070 os        1 AVV     -0.568200
     35 C5'N       -5.4570   -1.0620   -1.0910 c3        1 AVV      0.215400
     36 O5'N       -4.2120   -1.2710   -0.5220 os        1 AVV     -0.579200
     37 HAN6        7.5690    1.7320    3.6480 hn        1 AVV      0.427300
     38 HANA        9.0290    2.3240    3.0240 hn        1 AVV      0.427300
     39 HC1'        3.9160    1.0380   -1.7840 h2        1 AVV      0.108700
     40 HC1B       -7.1250    2.4580   -3.0310 h1        1 AVV      0.027700
     41 HC2'        4.0960   -1.7020   -0.7680 h1        1 AVV      0.076700
     42 HO2'        2.5540   -1.1650   -3.0020 ho        1 AVV      0.433000
     43 HC2A       -8.6630    1.5120   -0.6240 h1        1 AVV      0.054700
     44 HO2A       -6.8000    3.5730   -0.5770 ho        1 AVV      0.428000
     45 HC3'        1.9950   -2.0000    0.2640 h1        1 AVV      0.096700
     46 HO3'        0.3910   -2.4050   -1.1840 ho        1 AVV      0.501000
     47 HC3A       -6.9440    0.3920    0.4870 h1        1 AVV      0.082700
     48 HO3A       -5.1920    1.5810    1.0840 ho        1 AVV      0.495000
     49 HC4'        0.4510    0.2650   -1.0090 h1        1 AVV      0.103700
     50 HC4A       -4.7230    0.9620   -1.4930 h1        1 AVV      0.078700
     51 HC5'        1.3160   -0.6140    1.8070 h1        1 AVV      0.013200
     52 HC5A        0.9840    1.1690    1.5160 h1        1 AVV      0.013200
     53 HC5B       -6.2670   -1.4830   -0.4330 h1        1 AVV      0.019200
     54 HC5C       -5.4820   -1.5910   -2.0860 h1        1 AVV      0.019200
     55 HC8         3.2870    0.1870    1.9570 h5        1 AVV      0.107800
     56 HC1A       -8.3760    1.1240   -2.9330 h1        1 AVV      0.027700
@<TRIPOS>BOND
     1    1    5 1   
     2    1    8 1   
     3    1   10 1   
     4    1   34 1   
     5    2    6 1   
     6    2    9 1   
     7    2   10 1   
     8    2   36 1   
     9    3    7 1   
    10    4    7 ar  
    11    4   14 ar  
    12    7   11 ar  
    13   11   12 ar  
    14   12   13 ar  
    15   12   18 1   
    16   13   14 ar  
    17   13   16 1   
    18   14   15 1   
    19   15   37 1   
    20   15   38 1   
    21   16   17 2   
    22   17   18 1   
    23   17   55 1   
    24   18   19 1   
    25   19   21 1   
    26   19   30 1   
    27   19   39 1   
    28   20   23 1   
    29   20   32 1   
    30   20   40 1   
    31   20   56 1   
    32   21   22 1   
    33   21   25 1   
    34   21   41 1   
    35   22   42 1   
    36   23   24 1   
    37   23   27 1   
    38   23   43 1   
    39   24   44 1   
    40   25   26 1   
    41   25   29 1   
    42   25   45 1   
    43   26   46 1   
    44   27   28 1   
    45   27   31 1   
    46   27   47 1   
    47   28   48 1   
    48   29   30 1   
    49   29   33 1   
    50   29   49 1   
    51   31   32 1   
    52   31   35 1   
    53   31   50 1   
    54   33   34 1   
    55   33   51 1   
    56   33   52 1   
    57   35   36 1   
    58   35   53 1   
    59   35   54 1   
@<TRIPOS>SUBSTRUCTURE
     1 AVV         1 TEMP              0 ****  ****    0 ROOT
