@<TRIPOS>MOLECULE
AVV
   56    59     1     0     0
SMALL
bcc


@<TRIPOS>ATOM
      1 PA         -1.6370    0.0700    0.8050 p5        1 AVV      1.629800
      2 PN         -0.7840   -2.9940    0.2350 p5        1 AVV      1.625800
      3 F1A        -6.1040    8.8990   -3.8930 f         1 AVV     -0.217200
      4 N1A        -6.7060    8.5780   -1.6900 nb        1 AVV     -0.818000
      5 O1A        -0.6860    1.0340    0.1980 o         1 AVV     -0.890500
      6 O1N         0.4740   -3.3170    0.9250 o         1 AVV     -0.886500
      7 C2A        -5.9810    8.1270   -2.7770 ca        1 AVV      0.866200
      8 O2A        -2.1710    0.2560    2.1620 o         1 AVV     -0.890500
      9 O2N        -1.9540   -3.9020    0.2470 o         1 AVV     -0.886500
     10 O3         -1.2190   -1.4580    0.5190 os        1 AVV     -0.805800
     11 N3A        -5.1720    7.0330   -2.9050 nb        1 AVV     -0.723000
     12 C4A        -5.1050    6.3010   -1.7520 ca        1 AVV      0.463800
     13 C5A        -5.8140    6.6560   -0.5230 ca        1 AVV     -0.226200
     14 C6A        -6.6080    7.8450   -0.5390 ca        1 AVV      0.744200
     15 N6A        -7.2290    8.2770    0.6210 nh        1 AVV     -0.942500
     16 N7A        -5.5610    5.6980    0.4690 nc        1 AVV     -0.570100
     17 C8A        -4.7400    4.8080   -0.1130 cd        1 AVV      0.443700
     18 N9A        -4.4090    5.1240   -1.4520 na        1 AVV     -0.256000
     19 C1'A       -3.6030    4.3320   -2.3730 c3        1 AVV      0.211800
     20 C1'N       -1.5360   -6.4690   -4.2780 c3        1 AVV      0.102400
     21 C2'A       -2.0630    4.4460   -2.1100 c3        1 AVV      0.109100
     22 O2'A       -1.4240    4.7260   -3.3330 oh        1 AVV     -0.599800
     23 C2'N       -2.3390   -6.8700   -3.0310 c3        1 AVV      0.109100
     24 O2'N       -3.6650   -7.2100   -3.3750 oh        1 AVV     -0.618800
     25 C3'A       -1.6840    3.0930   -1.4690 c3        1 AVV      0.122100
     26 O3'A       -0.5540    2.5840   -2.1380 oh        1 AVV     -0.649800
     27 C3'N       -2.1970   -5.6710   -2.0630 c3        1 AVV      0.121100
     28 O3'N       -3.4820   -5.1620   -1.7880 oh        1 AVV     -0.657800
     29 C4'A       -2.9080    2.1780   -1.6710 c3        1 AVV      0.055100
     30 O4'A       -3.9660    2.9630   -2.2670 os        1 AVV     -0.420600
     31 C4'N       -1.3370   -4.6360   -2.8180 c3        1 AVV      0.071100
     32 O4'N       -0.8190   -5.2720   -4.0050 os        1 AVV     -0.436600
     33 C5'A       -3.4250    1.5260   -0.3720 c3        1 AVV      0.213400
     34 O5'A       -2.9460    0.2380   -0.2400 os        1 AVV     -0.568200
     35 C5'N       -0.1360   -4.1090   -2.0090 c3        1 AVV      0.215400
     36 O5'N       -0.4360   -2.9020   -1.3990 os        1 AVV     -0.579200
     37 HAN6       -7.3190    7.6010    1.3430 hn        1 AVV      0.427300
     38 HANA       -7.9460    8.9570    0.5450 hn        1 AVV      0.427300
     39 HC1'       -3.8600    4.6580   -3.4240 h2        1 AVV      0.108700
     40 HC1B       -0.7730   -7.2400   -4.5540 h1        1 AVV      0.027700
     41 HC2'       -1.8090    5.3070   -1.4380 h1        1 AVV      0.076700
     42 HO2'       -1.1180    3.8890   -3.7120 ho        1 AVV      0.433000
     43 HC2A       -1.9150   -7.8020   -2.5680 h1        1 AVV      0.054700
     44 HO2A       -4.2060   -6.4120   -3.3040 ho        1 AVV      0.428000
     45 HC3'       -1.4540    3.2290   -0.3770 h1        1 AVV      0.096700
     46 HO3'       -0.1930    1.8750   -1.5650 ho        1 AVV      0.501000
     47 HC3A       -1.7010   -5.9940   -1.1090 h1        1 AVV      0.082700
     48 HO3A       -3.3850   -4.5820   -1.0050 ho        1 AVV      0.495000
     49 HC4'       -2.6780    1.3710   -2.4220 h1        1 AVV      0.103700
     50 HC4A       -1.9750   -3.7720   -3.1490 h1        1 AVV      0.078700
     51 HC5'       -3.1250    2.1480    0.5190 h1        1 AVV      0.013200
     52 HC5A       -4.5500    1.4840   -0.4310 h1        1 AVV      0.013200
     53 HC5B        0.7160   -3.9370   -2.7270 h1        1 AVV      0.019200
     54 HC5C        0.1790   -4.8700   -1.2420 h1        1 AVV      0.019200
     55 HC8        -4.3430    3.8920    0.3580 h5        1 AVV      0.107800
     56 HC1A       -2.2180   -6.2860   -5.1490 h1        1 AVV      0.027700
@<TRIPOS>BOND
     1    1    5 1   
     2    1    8 1   
     3    1   10 1   
     4    1   34 1   
     5    2    6 1   
     6    2    9 1   
     7    2   10 1   
     8    2   36 1   
     9    3    7 1   
    10    4    7 ar  
    11    4   14 ar  
    12    7   11 ar  
    13   11   12 ar  
    14   12   13 ar  
    15   12   18 1   
    16   13   14 ar  
    17   13   16 1   
    18   14   15 1   
    19   15   37 1   
    20   15   38 1   
    21   16   17 2   
    22   17   18 1   
    23   17   55 1   
    24   18   19 1   
    25   19   21 1   
    26   19   30 1   
    27   19   39 1   
    28   20   23 1   
    29   20   32 1   
    30   20   40 1   
    31   20   56 1   
    32   21   22 1   
    33   21   25 1   
    34   21   41 1   
    35   22   42 1   
    36   23   24 1   
    37   23   27 1   
    38   23   43 1   
    39   24   44 1   
    40   25   26 1   
    41   25   29 1   
    42   25   45 1   
    43   26   46 1   
    44   27   28 1   
    45   27   31 1   
    46   27   47 1   
    47   28   48 1   
    48   29   30 1   
    49   29   33 1   
    50   29   49 1   
    51   31   32 1   
    52   31   35 1   
    53   31   50 1   
    54   33   34 1   
    55   33   51 1   
    56   33   52 1   
    57   35   36 1   
    58   35   53 1   
    59   35   54 1   
@<TRIPOS>SUBSTRUCTURE
     1 AVV         1 TEMP              0 ****  ****    0 ROOT
