@<TRIPOS>MOLECULE
AVW
   55    58     1     0     0
SMALL
bcc


@<TRIPOS>ATOM
      1 PA          0.6400   -2.6850   -0.1060 p5        1 AVW      1.617800
      2 PN          2.8380   -1.0340   -1.8260 p5        1 AVW      1.597800
      3 N1A        -5.9760    3.1860   -0.8810 nb        1 AVW     -0.801000
      4 O1A         1.0700   -4.0760    0.0890 o         1 AVW     -0.888500
      5 O1N         4.1380   -1.0910   -1.1210 o         1 AVW     -0.871000
      6 C2A        -6.0600    2.6890    0.3850 ca        1 AVW      0.641900
      7 O2A        -0.7520   -2.3420   -0.5080 o         1 AVW     -0.888500
      8 O2N         2.6650   -1.3220   -3.2560 o         1 AVW     -0.871000
      9 O3          1.7040   -1.8040   -0.9370 os        1 AVW     -0.821800
     10 N3A        -5.3670    1.6960    0.9830 nb        1 AVW     -0.717000
     11 C4A        -4.4390    1.1240    0.1580 ca        1 AVW      0.435800
     12 C5A        -4.2470    1.5370   -1.2320 ca        1 AVW     -0.197200
     13 C6A        -5.0700    2.5960   -1.7240 ca        1 AVW      0.695200
     14 N6A        -4.9900    2.9700   -3.0660 nh        1 AVW     -0.927500
     15 N7A        -3.2290    0.7720   -1.8200 nc        1 AVW     -0.584100
     16 C8A        -2.8070   -0.0630   -0.8580 cd        1 AVW      0.458700
     17 N9A        -3.5240    0.0790    0.3620 na        1 AVW     -0.276000
     18 C1'A       -3.2740   -0.5690    1.6320 c3        1 AVW      0.228800
     19 C1'N        4.8750    1.5980    1.6530 c3        1 AVW      0.106400
     20 C2'A       -3.0080   -2.1040    1.5090 c3        1 AVW      0.055100
     21 O2'A       -4.1250   -2.8230    1.9940 oh        1 AVW     -0.606800
     22 C2'N        5.6370    1.1210    0.3940 c3        1 AVW      0.084600
     23 F2'N        6.9620    1.5240    0.4030 f         1 AVW     -0.270300
     24 C3'A       -1.7940   -2.3560    2.4270 c3        1 AVW      0.128100
     25 O3'A       -2.1670   -2.7940    3.7220 oh        1 AVW     -0.604800
     26 C3'N        4.8410    1.7330   -0.7940 c3        1 AVW      0.091100
     27 O3'N        5.4700    2.8870   -1.3240 oh        1 AVW     -0.609800
     28 C4'A       -1.1290   -0.9760    2.5550 c3        1 AVW      0.114100
     29 O4'A       -2.1500    0.0130    2.3040 os        1 AVW     -0.425600
     30 C4'N        3.5010    2.1420   -0.1660 c3        1 AVW      0.117100
     31 O4'N        3.7590    2.3840    1.2330 os        1 AVW     -0.437600
     32 C5'A        0.0340   -0.7670    1.5620 c3        1 AVW      0.191400
     33 O5'A        0.7670   -1.9270    1.3770 os        1 AVW     -0.583200
     34 C5'N        2.4500    1.0180   -0.2760 c3        1 AVW      0.187400
     35 O5'N        2.3380    0.5360   -1.5710 os        1 AVW     -0.580200
     36 HAN6       -4.1430    2.6990   -3.5140 hn        1 AVW      0.411300
     37 HANA       -5.3080    3.8860   -3.2870 hn        1 AVW      0.411300
     38 HC1'       -4.1670   -0.3710    2.2970 h2        1 AVW      0.091700
     39 HC1A        4.4890    0.7230    2.2340 h1        1 AVW      0.041700
     40 HC1B        5.5020    2.2570    2.3020 h1        1 AVW      0.041700
     41 HC2'       -2.7350   -2.4080    0.4560 h1        1 AVW      0.142700
     42 HO2'       -4.7130   -2.9490    1.2410 ho        1 AVW      0.401000
     43 HC2A        5.5860   -0.0060    0.2970 h1        1 AVW      0.145700
     44 HC3'       -1.0890   -3.0930    1.9450 h1        1 AVW      0.108700
     45 HO3'       -2.7290   -3.5670    3.5930 ho        1 AVW      0.404000
     46 HC3A        4.6840    0.9530   -1.5950 h1        1 AVW      0.124700
     47 HO3A        6.3540    2.6060   -1.5900 ho        1 AVW      0.393000
     48 HC4'       -0.7980   -0.7870    3.6100 h1        1 AVW      0.074700
     49 HC4A        3.1230    3.1110   -0.5760 h1        1 AVW      0.073700
     50 HC5'       -0.3820   -0.3930    0.5840 h1        1 AVW      0.035200
     51 HC5A        0.7150    0.0190    1.9960 h1        1 AVW      0.035200
     52 HC5B        2.7330    0.1890    0.4350 h1        1 AVW      0.031700
     53 HC5C        1.4570    1.4480    0.0380 h1        1 AVW      0.031700
     54 HC2        -6.8140    3.1910    1.0260 h5        1 AVW      0.027100
     55 HC8        -1.9890   -0.8250   -0.9660 h5        1 AVW      0.182800
@<TRIPOS>BOND
     1    1    4 1   
     2    1    7 1   
     3    1    9 1   
     4    1   33 1   
     5    2    5 1   
     6    2    8 1   
     7    2    9 1   
     8    2   35 1   
     9    3    6 ar  
    10    3   13 ar  
    11    6   10 ar  
    12    6   54 1   
    13   10   11 ar  
    14   11   12 ar  
    15   11   17 1   
    16   12   13 ar  
    17   12   15 1   
    18   13   14 1   
    19   14   36 1   
    20   14   37 1   
    21   15   16 2   
    22   16   17 1   
    23   16   55 1   
    24   17   18 1   
    25   18   20 1   
    26   18   29 1   
    27   18   38 1   
    28   19   22 1   
    29   19   31 1   
    30   19   39 1   
    31   19   40 1   
    32   20   21 1   
    33   20   24 1   
    34   20   41 1   
    35   21   42 1   
    36   22   23 1   
    37   22   26 1   
    38   22   43 1   
    39   24   25 1   
    40   24   28 1   
    41   24   44 1   
    42   25   45 1   
    43   26   27 1   
    44   26   30 1   
    45   26   46 1   
    46   27   47 1   
    47   28   29 1   
    48   28   32 1   
    49   28   48 1   
    50   30   31 1   
    51   30   34 1   
    52   30   49 1   
    53   32   33 1   
    54   32   50 1   
    55   32   51 1   
    56   34   35 1   
    57   34   52 1   
    58   34   53 1   
@<TRIPOS>SUBSTRUCTURE
     1 AVW         1 TEMP              0 ****  ****    0 ROOT
