@<TRIPOS>MOLECULE
AVW
   55    58     1     0     0
SMALL
bcc


@<TRIPOS>ATOM
      1 PA         -1.5340   -0.1520   -0.5810 p5        1 AVW      1.628800
      2 PN         -0.0610   -2.3570   -2.4270 p5        1 AVW      1.619800
      3 N1A        -6.1630    8.9380    0.2630 nb        1 AVW     -0.802000
      4 O1A        -0.5500    0.8470   -0.0930 o         1 AVW     -0.889500
      5 O1N         0.5990   -1.7390   -3.5890 o         1 AVW     -0.885000
      6 C2A        -5.0190    9.0550   -0.4710 ca        1 AVW      0.654900
      7 O2A        -2.5790   -0.7050    0.2910 o         1 AVW     -0.889500
      8 O2N         0.6250   -3.3760   -1.5980 o         1 AVW     -0.885000
      9 O3         -0.8090   -1.2620   -1.4980 os        1 AVW     -0.804800
     10 N3A        -4.1120    8.1240   -0.8300 nb        1 AVW     -0.710000
     11 C4A        -4.4240    6.8720   -0.3720 ca        1 AVW      0.445800
     12 C5A        -5.6170    6.5900    0.4300 ca        1 AVW     -0.212200
     13 C6A        -6.4730    7.6930    0.7450 ca        1 AVW      0.714200
     14 N6A        -7.5660    7.5030    1.5810 nh        1 AVW     -0.937500
     15 N7A        -5.6800    5.2220    0.7270 nc        1 AVW     -0.576100
     16 C8A        -4.5880    4.6920    0.1480 cd        1 AVW      0.442700
     17 N9A        -3.7760    5.6390   -0.5160 na        1 AVW     -0.260000
     18 C1'A       -2.5730    5.3800   -1.2940 c3        1 AVW      0.212800
     19 C1'N       -0.0010   -7.0530   -5.1960 c3        1 AVW      0.105400
     20 C2'A       -1.3020    5.1230   -0.4150 c3        1 AVW      0.109100
     21 O2'A       -0.2600    5.9450   -0.8880 oh        1 AVW     -0.601800
     22 C2'N        1.0440   -6.8530   -4.0760 c3        1 AVW      0.135600
     23 F2'N        1.3300   -8.0400   -3.4280 f         1 AVW     -0.242300
     24 C3'A       -1.0460    3.6060   -0.5460 c3        1 AVW      0.122100
     25 O3'A        0.3120    3.4090   -0.8590 oh        1 AVW     -0.650800
     26 C3'N        0.4300   -5.7680   -3.1540 c3        1 AVW      0.112100
     27 O3'N        0.3490   -6.2550   -1.8360 oh        1 AVW     -0.622800
     28 C4'A       -1.9570    3.1270   -1.6950 c3        1 AVW      0.055100
     29 O4'A       -2.7720    4.2420   -2.1210 os        1 AVW     -0.422600
     30 C4'N       -0.9670   -5.4720   -3.7360 c3        1 AVW      0.069100
     31 O4'N       -1.1610   -6.2850   -4.9090 os        1 AVW     -0.433600
     32 C5'A       -2.8690    1.9420   -1.3170 c3        1 AVW      0.213400
     33 O5'A       -2.3340    0.7460   -1.7560 os        1 AVW     -0.569200
     34 C5'N       -1.1310   -3.9920   -4.1400 c3        1 AVW      0.193400
     35 O5'N       -1.3740   -3.1980   -3.0310 os        1 AVW     -0.578200
     36 HAN6       -8.2770    8.1940    1.5670 hn        1 AVW      0.417800
     37 HANA       -7.8700    6.5610    1.6750 hn        1 AVW      0.417800
     38 HC1'       -2.4140    6.2610   -1.9840 h2        1 AVW      0.105700
     39 HC1A       -0.3230   -8.1230   -5.2710 h1        1 AVW      0.030200
     40 HC1B        0.4020   -6.7060   -6.1820 h1        1 AVW      0.030200
     41 HC2'       -1.4560    5.4250    0.6540 h1        1 AVW      0.076700
     42 HO2'        0.2740    5.4270   -1.5070 ho        1 AVW      0.432000
     43 HC2A        2.0060   -6.4650   -4.5140 h1        1 AVW      0.045700
     44 HC3'       -1.2980    3.0820    0.4170 h1        1 AVW      0.094700
     45 HO3'        0.4940    2.4590   -0.6980 ho        1 AVW      0.500000
     46 HC3A        1.0510   -4.8230   -3.1730 h1        1 AVW      0.107700
     47 HO3A        0.3940   -5.4650   -1.2620 ho        1 AVW      0.472000
     48 HC4'       -1.3420    2.8470   -2.5960 h1        1 AVW      0.103700
     49 HC4A       -1.7700   -5.7640   -3.0080 h1        1 AVW      0.080700
     50 HC5'       -3.8630    2.0950   -1.8270 h1        1 AVW      0.013200
     51 HC5A       -3.0260    1.9140   -0.2010 h1        1 AVW      0.013200
     52 HC5B       -0.2170   -3.6350   -4.6920 h1        1 AVW      0.027200
     53 HC5C       -2.0220   -3.9220   -4.8250 h1        1 AVW      0.027200
     54 HC2        -4.8080   10.0850   -0.8290 h5        1 AVW      0.035100
     55 HC8        -4.3130    3.6230    0.1490 h5        1 AVW      0.104800
@<TRIPOS>BOND
     1    1    4 1   
     2    1    7 1   
     3    1    9 1   
     4    1   33 1   
     5    2    5 1   
     6    2    8 1   
     7    2    9 1   
     8    2   35 1   
     9    3    6 ar  
    10    3   13 ar  
    11    6   10 ar  
    12    6   54 1   
    13   10   11 ar  
    14   11   12 ar  
    15   11   17 1   
    16   12   13 ar  
    17   12   15 1   
    18   13   14 1   
    19   14   36 1   
    20   14   37 1   
    21   15   16 2   
    22   16   17 1   
    23   16   55 1   
    24   17   18 1   
    25   18   20 1   
    26   18   29 1   
    27   18   38 1   
    28   19   22 1   
    29   19   31 1   
    30   19   39 1   
    31   19   40 1   
    32   20   21 1   
    33   20   24 1   
    34   20   41 1   
    35   21   42 1   
    36   22   23 1   
    37   22   26 1   
    38   22   43 1   
    39   24   25 1   
    40   24   28 1   
    41   24   44 1   
    42   25   45 1   
    43   26   27 1   
    44   26   30 1   
    45   26   46 1   
    46   27   47 1   
    47   28   29 1   
    48   28   32 1   
    49   28   48 1   
    50   30   31 1   
    51   30   34 1   
    52   30   49 1   
    53   32   33 1   
    54   32   50 1   
    55   32   51 1   
    56   34   35 1   
    57   34   52 1   
    58   34   53 1   
@<TRIPOS>SUBSTRUCTURE
     1 AVW         1 TEMP              0 ****  ****    0 ROOT
