@<TRIPOS>MOLECULE
AVW
   56    59     1     0     0
SMALL
bcc


@<TRIPOS>ATOM
      1 PA          0.6530   -0.7360   -1.0190 p5        1 AVW      1.789500
      2 PN          0.5260    1.5060   -3.3400 p5        1 AVW      1.618800
      3 N1A         0.6050   -2.7830   -6.1410 nb        1 AVW     -0.691000
      4 O1A         1.9350   -1.4150   -1.7040 oh        1 AVW     -0.815400
      5 O1N         1.4400    0.8090   -4.2640 o         1 AVW     -0.855500
      6 C2A        -0.3850   -3.6890   -6.1570 ca        1 AVW      0.599900
      7 O2A         0.8430   -0.5150    0.4070 o         1 AVW     -0.872300
      8 O2N         0.6700    2.8460   -2.7690 o         1 AVW     -0.855500
      9 O3          0.4160    0.4170   -2.0360 os        1 AVW     -0.782800
     10 N3A        -0.7370   -4.6090   -5.1910 nb        1 AVW     -0.671000
     11 C4A         0.0940   -4.6390   -4.1460 ca        1 AVW      0.416800
     12 C5A         1.3270   -3.7880   -4.0530 ca        1 AVW     -0.032200
     13 C6A         1.4330   -2.8000   -5.0390 ca        1 AVW      0.407200
     14 N6A         2.3610   -1.6870   -4.8250 n4        1 AVW     -0.803300
     15 N7A         2.0370   -4.1050   -2.9070 ne        1 AVW     -0.689800
     16 C8A         1.2980   -5.0080   -2.2210 c1        1 AVW      0.116400
     17 N9A         0.1000   -5.3810   -2.9290 nh        1 AVW     -0.271200
     18 C1'A       -1.1500   -5.5660   -2.2310 c3        1 AVW      0.212800
     19 C1'N       -4.1610    4.3120   -2.4070 c3        1 AVW      0.104400
     20 C2'A       -1.0000   -6.2740   -0.8460 c3        1 AVW      0.139100
     21 O2'A       -1.8310   -7.4050   -0.7770 oh        1 AVW     -0.582800
     22 C2'N       -2.8650    5.1490   -2.4610 c3        1 AVW      0.100600
     23 F2'N       -3.1050    6.4740   -2.7730 f         1 AVW     -0.245300
     24 C3'A       -1.3580   -5.1840    0.1940 c3        1 AVW      0.074100
     25 O3'A       -2.5330   -5.6040    0.8680 oh        1 AVW     -0.602800
     26 C3'N       -1.9860    4.4460   -3.5370 c3        1 AVW      0.075100
     27 O3'N       -1.9880    5.1740   -4.7520 oh        1 AVW     -0.588800
     28 C4'A       -1.5970   -3.8910   -0.6210 c3        1 AVW      0.113100
     29 O4'A       -1.7900   -4.2920   -1.9750 os        1 AVW     -0.408600
     30 C4'N       -2.6910    3.1050   -3.8010 c3        1 AVW      0.117100
     31 O4'N       -4.0380    3.2140   -3.3060 os        1 AVW     -0.420600
     32 C5'A       -0.4160   -2.9410   -0.4270 c3        1 AVW      0.127400
     33 O5'A       -0.5280   -1.8130   -1.2610 os        1 AVW     -0.570200
     34 C5'N       -2.0150    1.9230   -3.0880 c3        1 AVW      0.179400
     35 O5'N       -1.0040    1.3790   -3.8850 os        1 AVW     -0.579200
     36 HAN6        2.4300   -1.5100   -3.8080 hn        1 AVW      0.475467
     37 HANA        1.9990   -0.8130   -5.2610 hn        1 AVW      0.475467
     38 HC1'       -1.8720   -6.1140   -2.9040 h2        1 AVW      0.097700
     39 HC1B       -4.3290    3.9010   -1.3800 h1        1 AVW      0.049200
     40 HC2'        0.0440   -6.6600   -0.6830 h1        1 AVW      0.129700
     41 HO2'       -2.7470   -7.0980   -0.7350 ho        1 AVW      0.412000
     42 HC2A       -2.3400    5.1150   -1.4660 h1        1 AVW      0.068700
     43 HC3'       -0.5270   -5.0560    0.9380 h1        1 AVW      0.063700
     44 HO3'       -2.8220   -4.8610    1.4110 ho        1 AVW      0.407000
     45 HC3A       -0.9320    4.3100   -3.1630 h1        1 AVW      0.131700
     46 HO3A       -1.5650    6.0210   -4.5610 ho        1 AVW      0.403000
     47 HC4'       -2.5530   -3.3720   -0.3400 h1        1 AVW      0.077700
     48 HC4A       -2.7830    2.9000   -4.9010 h1        1 AVW      0.101700
     49 HC5'        0.5510   -3.4660   -0.6660 h1        1 AVW      0.055200
     50 HC5A       -0.3980   -2.5870    0.6430 h1        1 AVW      0.055200
     51 HC5B       -2.7960    1.1250   -2.9280 h1        1 AVW      0.044200
     52 HC5C       -1.5950    2.2490   -2.0970 h1        1 AVW      0.044200
     53 HC2        -1.0400   -3.6740   -7.0500 h5        1 AVW      0.045100
     54 HC8         2.3290   -2.1740   -1.2840 ho        1 AVW      0.486000
     55 H6A3        3.2770   -1.9160   -5.1990 hn        1 AVW      0.475467
     56 HC1A       -5.0510    4.9040   -2.7390 h1        1 AVW      0.049200
@<TRIPOS>BOND
     1    1    4 1   
     2    1    7 2   
     3    1    9 1   
     4    1   33 1   
     5    2    5 1   
     6    2    8 1   
     7    2    9 1   
     8    2   35 1   
     9    3    6 ar  
    10    3   13 ar  
    11    4   54 1   
    12    6   10 ar  
    13    6   53 1   
    14   10   11 ar  
    15   11   12 ar  
    16   11   17 1   
    17   12   13 ar  
    18   12   15 1   
    19   13   14 1   
    20   14   36 1   
    21   14   37 1   
    22   14   55 1   
    23   15   16 2   
    24   16   17 2   
    25   17   18 1   
    26   18   20 1   
    27   18   29 1   
    28   18   38 1   
    29   19   22 1   
    30   19   31 1   
    31   19   39 1   
    32   19   56 1   
    33   20   21 1   
    34   20   24 1   
    35   20   40 1   
    36   21   41 1   
    37   22   23 1   
    38   22   26 1   
    39   22   42 1   
    40   24   25 1   
    41   24   28 1   
    42   24   43 1   
    43   25   44 1   
    44   26   27 1   
    45   26   30 1   
    46   26   45 1   
    47   27   46 1   
    48   28   29 1   
    49   28   32 1   
    50   28   47 1   
    51   30   31 1   
    52   30   34 1   
    53   30   48 1   
    54   32   33 1   
    55   32   49 1   
    56   32   50 1   
    57   34   35 1   
    58   34   51 1   
    59   34   52 1   
@<TRIPOS>SUBSTRUCTURE
     1 AVW         1 TEMP              0 ****  ****    0 ROOT
