@<TRIPOS>MOLECULE
AVW
   55    49     1     0     0
SMALL
bcc


@<TRIPOS>ATOM
      1 PA          2.0040   -1.1670    0.9440 p3        1 AVW      2.736000
      2 PN          1.7500   -3.9350    0.6050 p3        1 AVW      2.730000
      3 N1A        -4.1030    7.7450    0.1010 n1        1 AVW     -0.276000
      4 O1A         3.5190   -1.0510    1.2190 o         1 AVW     -1.210000
      5 O1N         3.1960   -4.3060    0.9880 o         1 AVW     -1.228000
      6 C2A        -3.2430    7.5930   -0.9580 c1        1 AVW     -0.008000
      7 O2A         1.2610   -1.2850    2.2560 o         1 AVW     -1.210000
      8 O2N         0.8810   -4.0260    1.8070 o         1 AVW     -1.228000
      9 O3          1.7170   -2.4700    0.0460 o         1 AVW     -1.228000
     10 N3A        -2.1890    6.7290   -0.8660 n1        1 AVW     -0.183000
     11 C4A        -1.9900    6.0160    0.2790 c1        1 AVW     -0.083500
     12 C5A        -2.8340    6.1650    1.3200 c1        1 AVW     -0.083500
     13 C6A        -3.9130    7.0530    1.2200 c1        1 AVW      0.193000
     14 N6A        -4.9740    7.4610    2.1150 n3        1 AVW     -0.335000
     15 N7A        -2.3820    5.3740    2.3490 n1        1 AVW     -0.163500
     16 C8A        -1.2540    4.7400    1.9250 c1        1 AVW     -0.012000
     17 N9A        -1.0080    5.1310    0.6520 n1        1 AVW     -0.163500
     18 C1'A       -0.0590    4.5270   -0.1490 c2        1 AVW      0.121000
     19 C1'N        0.6550   -8.5820   -2.8390 c3        1 AVW     -0.046000
     20 C2'A        1.1330    5.0200    0.1100 c3        1 AVW     -0.002000
     21 O2'A        1.4500    6.1100   -0.8290 oh        1 AVW     -0.329000
     22 C2'N       -0.3870   -9.1770   -1.8540 c3        1 AVW      0.021000
     23 F2'N       -1.6680   -9.0990   -2.3990 f         1 AVW     -0.168000
     24 C3'A        2.1130    3.8310   -0.0950 c3        1 AVW      0.011000
     25 O3'A        2.8080    3.9960   -1.2090 oh        1 AVW     -0.378000
     26 C3'N       -0.3020   -8.4180   -0.7670 c3        1 AVW      0.021000
     27 O3'N       -1.5880   -8.2950   -0.1450 oh        1 AVW     -0.355000
     28 C4'A        1.1990    2.5330   -0.1980 c3        1 AVW     -0.055000
     29 O4'A        0.0260    2.9150    0.1850 os        1 AVW     -0.279000
     30 C4'N        0.2180   -6.9650   -1.2700 c3        1 AVW     -0.042000
     31 O4'N        1.0840   -7.1910   -2.2180 os        1 AVW     -0.289000
     32 C5'A        1.7410    1.4090    0.7440 c3        1 AVW      0.063000
     33 O5'A        1.5000    0.1450    0.1600 os        1 AVW     -0.731000
     34 C5'N        0.8870   -6.2190   -0.1060 c3        1 AVW      0.065000
     35 O5'N        1.2230   -4.9410   -0.5010 o         1 AVW     -0.739000
     36 HC2        -3.3860    8.1030   -1.7770 ha        1 AVW      0.172000
     37 HAN6       -5.1310    6.9960    2.8700 hn        1 AVW      0.213000
     38 HANA       -5.4740    8.2600    1.9330 hn        1 AVW      0.213000
     39 HC8        -0.6780    4.1760    2.4700 DU        1 AVW      0.234000
     40 HC1'       -0.2890    4.6680   -1.1270 h4        1 AVW      0.145000
     41 HC1A        0.2380   -8.4480   -3.7450 h1        1 AVW      0.070500
     42 HC1B        1.4250   -9.1690   -2.9060 h1        1 AVW      0.070500
     43 HC2'        1.1770    5.3500    1.0610 h1        1 AVW      0.116000
     44 HO2'        2.0600    6.6120   -0.4920 ho        1 AVW      0.231000
     45 HC2A       -0.1530  -10.1540   -1.6290 h1        1 AVW      0.076000
     46 HC3'        2.7270    3.7590    0.6830 h1        1 AVW      0.135000
     47 HO3'        3.6830    3.9320   -1.0290 ho        1 AVW      0.299000
     48 HC3A        0.3200   -8.7920   -0.1560 h1        1 AVW      0.120000
     49 HO3A       -1.5340   -8.5640    0.7000 ho        1 AVW      0.282000
     50 HC4'        1.1660    2.2020   -1.1580 h1        1 AVW      0.143000
     51 HC4A       -0.5790   -6.4070   -1.6410 h1        1 AVW      0.122000
     52 HC5'        1.2880    1.4600    1.6050 h1        1 AVW      0.053000
     53 HC5A        2.7070    1.5290    0.8750 h1        1 AVW      0.053000
     54 HC5B        1.7100   -6.7050    0.1710 h1        1 AVW      0.059000
     55 HC5C        0.2490   -6.1730    0.6700 h1        1 AVW      0.059000
@<TRIPOS>BOND
     1    1    4 1   
     2    1    7 1   
     3    1   33 1   
     4    2    5 1   
     5    2    8 1   
     6    2    9 1   
     7    3   13 1   
     8    6   10 1   
     9    6   36 1   
    10   11   12 1   
    11   13   14 1   
    12   14   37 1   
    13   14   38 1   
    14   15   16 1   
    15   16   17 1   
    16   18   20 1   
    17   18   29 1   
    18   18   40 1   
    19   19   22 1   
    20   19   31 1   
    21   19   41 1   
    22   19   42 1   
    23   20   21 1   
    24   20   24 1   
    25   20   43 1   
    26   21   44 1   
    27   22   23 1   
    28   22   26 1   
    29   22   45 1   
    30   24   25 1   
    31   24   28 1   
    32   24   46 1   
    33   25   47 1   
    34   26   27 1   
    35   26   30 1   
    36   26   48 1   
    37   27   49 1   
    38   28   29 1   
    39   28   32 1   
    40   28   50 1   
    41   30   31 1   
    42   30   34 1   
    43   30   51 1   
    44   32   33 1   
    45   32   52 1   
    46   32   53 1   
    47   34   35 1   
    48   34   54 1   
    49   34   55 1   
@<TRIPOS>SUBSTRUCTURE
     1 AVW         1 TEMP              0 ****  ****    0 ROOT
