@<TRIPOS>MOLECULE
AVW
   55    58     1     0     0
SMALL
bcc


@<TRIPOS>ATOM
      1 PA         -0.7240   -0.3680    0.2340 p5        1 AVW      1.621800
      2 PN          0.6970   -2.9640   -1.0840 p5        1 AVW      1.600800
      3 N1A        -6.1350    8.2620   -0.7080 nb        1 AVW     -0.802000
      4 O1A         0.2140    0.7830    0.2220 o         1 AVW     -0.891000
      5 O1N         1.0220   -2.7100   -2.5050 o         1 AVW     -0.872500
      6 C2A        -5.1380    8.2250   -1.6390 ca        1 AVW      0.654900
      7 O2A        -1.5650   -0.6730    1.4010 o         1 AVW     -0.891000
      8 O2N         1.6510   -3.5140   -0.1110 o         1 AVW     -0.872500
      9 O3         -0.0750   -1.6720   -0.4450 os        1 AVW     -0.814800
     10 N3A        -4.2050    7.2810   -1.8830 nb        1 AVW     -0.710000
     11 C4A        -4.3070    6.2030   -1.0450 ca        1 AVW      0.445800
     12 C5A        -5.3230    6.1020    0.0050 ca        1 AVW     -0.212200
     13 C6A        -6.2310    7.1980    0.1500 ca        1 AVW      0.714200
     14 N6A        -7.1530    7.1990    1.1890 nv        1 AVW     -0.937500
     15 N7A        -5.1930    4.8790    0.6770 nc        1 AVW     -0.577100
     16 C8A        -4.1550    4.2650    0.0820 cd        1 AVW      0.443700
     17 N9A        -3.5620    5.0210   -0.9550 na        1 AVW     -0.260000
     18 C1'A       -2.4760    4.6140   -1.8350 c3        1 AVW      0.212800
     19 C1'N       -0.6660   -3.6390   -4.9540 c3        1 AVW      0.099400
     20 C2'A       -1.0610    4.7090   -1.1680 c3        1 AVW      0.109100
     21 O2'A       -0.2060    5.4120   -2.0380 oh        1 AVW     -0.601800
     22 C2'N        0.1640   -4.8750   -4.5360 c3        1 AVW      0.089600
     23 F2'N        0.4600   -5.7090   -5.6040 f         1 AVW     -0.277300
     24 C3'A       -0.6620    3.2400   -0.9060 c3        1 AVW      0.122100
     25 O3'A        0.6440    3.0410   -1.3930 oh        1 AVW     -0.650800
     26 C3'N       -0.7210   -5.5930   -3.4730 c3        1 AVW      0.098100
     27 O3'N       -1.3020   -6.7930   -3.9700 oh        1 AVW     -0.617800
     28 C4'A       -1.6820    2.3850   -1.6850 c3        1 AVW      0.055100
     29 O4'A       -2.6750    3.2700   -2.2520 os        1 AVW     -0.421600
     30 C4'N       -1.8610   -4.5970   -3.1970 c3        1 AVW      0.118100
     31 O4'N       -1.9680   -3.7810   -4.3800 os        1 AVW     -0.437600
     32 C5'A       -2.3850    1.3140   -0.8260 c3        1 AVW      0.212400
     33 O5'A       -1.7900    0.0790   -0.9910 os        1 AVW     -0.570200
     34 C5'N       -1.6450   -3.6820   -1.9720 c3        1 AVW      0.188400
     35 O5'N       -0.5650   -4.0490   -1.1850 os        1 AVW     -0.587200
     36 HAN6       -7.3380    6.3100    1.5930 hn        1 AVW      0.417800
     37 HANA       -7.9280    7.8140    1.1100 hn        1 AVW      0.417800
     38 HC1'       -2.5270    5.2550   -2.7630 h2        1 AVW      0.105700
     39 HC1A       -0.1840   -2.7150   -4.5320 h1        1 AVW      0.074700
     40 HC1B       -0.8160   -3.5750   -6.0580 h1        1 AVW      0.074700
     41 HC2'       -1.0770    5.3070   -0.2190 h1        1 AVW      0.076700
     42 HO2'        0.2780    4.7660   -2.5710 ho        1 AVW      0.432000
     43 HC2A        1.1280   -4.5270   -4.0660 h1        1 AVW      0.126700
     44 HC3'       -0.6990    3.0150    0.1950 h1        1 AVW      0.095700
     45 HO3'        0.9560    2.1980   -1.0000 ho        1 AVW      0.500000
     46 HC3A       -0.1400   -5.8370   -2.5470 h1        1 AVW      0.096700
     47 HO3A       -0.6200   -7.2400   -4.4850 ho        1 AVW      0.393000
     48 HC4'       -1.1900    1.8870   -2.5660 h1        1 AVW      0.103700
     49 HC4A       -2.8460   -5.1290   -3.1270 h1        1 AVW      0.061700
     50 HC5'       -3.4560    1.2420   -1.1720 h1        1 AVW      0.013700
     51 HC5A       -2.3680    1.6140    0.2600 h1        1 AVW      0.013700
     52 HC5B       -2.5780   -3.7470   -1.3410 h1        1 AVW      0.038200
     53 HC5C       -1.5210   -2.6240   -2.3440 h1        1 AVW      0.038200
     54 HC2        -5.0970    9.1140   -2.3020 h5        1 AVW      0.035100
     55 HC8        -3.7710    3.2610    0.3310 h5        1 AVW      0.104800
@<TRIPOS>BOND
     1    1    4 1   
     2    1    7 1   
     3    1    9 1   
     4    1   33 1   
     5    2    5 1   
     6    2    8 1   
     7    2    9 1   
     8    2   35 1   
     9    3    6 ar  
    10    3   13 ar  
    11    6   10 ar  
    12    6   54 1   
    13   10   11 ar  
    14   11   12 ar  
    15   11   17 1   
    16   12   13 ar  
    17   12   15 1   
    18   13   14 1   
    19   14   36 1   
    20   14   37 1   
    21   15   16 2   
    22   16   17 1   
    23   16   55 1   
    24   17   18 1   
    25   18   20 1   
    26   18   29 1   
    27   18   38 1   
    28   19   22 1   
    29   19   31 1   
    30   19   39 1   
    31   19   40 1   
    32   20   21 1   
    33   20   24 1   
    34   20   41 1   
    35   21   42 1   
    36   22   23 1   
    37   22   26 1   
    38   22   43 1   
    39   24   25 1   
    40   24   28 1   
    41   24   44 1   
    42   25   45 1   
    43   26   27 1   
    44   26   30 1   
    45   26   46 1   
    46   27   47 1   
    47   28   29 1   
    48   28   32 1   
    49   28   48 1   
    50   30   31 1   
    51   30   34 1   
    52   30   49 1   
    53   32   33 1   
    54   32   50 1   
    55   32   51 1   
    56   34   35 1   
    57   34   52 1   
    58   34   53 1   
@<TRIPOS>SUBSTRUCTURE
     1 AVW         1 TEMP              0 ****  ****    0 ROOT
