@<TRIPOS>MOLECULE
AVX
   27    29     1     0     0
SMALL
bcc


@<TRIPOS>ATOM
      1 C1          0.0220    0.3460   -0.0510 ca        1 AVX     -0.077000
      2 C2          1.3990    0.0190   -0.0280 ca        1 AVX     -0.106500
      3 C3          2.0500   -0.2930    1.1700 ca        1 AVX     -0.097000
      4 C4          1.3810   -0.2930    2.4120 ca        1 AVX     -0.020900
      5 C5          0.0370    0.0300    2.3830 ca        1 AVX      0.085100
      6 C6         -0.6240    0.3420    1.1650 ca        1 AVX      0.049100
      7 O7         -1.9620    0.6250    1.4280 os        1 AVX     -0.331900
      8 C8         -2.1460    0.4830    2.8550 c3        1 AVX      0.320200
      9 O9         -0.8710    0.1120    3.4310 os        1 AVX     -0.320900
     10 C10         2.1600    0.0100   -1.2670 cc        1 AVX      0.373800
     11 N11         1.6210   -0.2030   -2.5050 nd        1 AVX     -0.503800
     12 N12         2.6200   -0.1090   -3.3960 na        1 AVX      0.073400
     13 C13         3.8670    0.1310   -2.7550 cd        1 AVX      0.086300
     14 C14         3.5860    0.2290   -1.3730 cc        1 AVX     -0.334300
     15 Br15        2.2970   -0.7140    3.9790 br        1 AVX     -0.055100
     16 C16         2.4890   -0.4120   -4.7980 c3        1 AVX      0.039600
     17 N17         5.1050    0.1680   -3.4020 nv        1 AVX     -0.779200
     18 H1         -0.5000    0.5870   -0.9870 ha        1 AVX      0.173000
     19 H3          3.1210   -0.5540    1.1430 ha        1 AVX      0.156000
     20 H8         -2.4510    1.4730    3.2770 h2        1 AVX      0.074700
     21 H8A        -2.8750   -0.3430    3.0420 h2        1 AVX      0.074700
     22 H14         4.2810    0.4260   -0.5680 ha        1 AVX      0.168000
     23 H16         1.4130   -0.5890   -5.0640 h1        1 AVX      0.058033
     24 H16A        3.0880   -1.3290   -5.0460 h1        1 AVX      0.058033
     25 H16B        2.8780    0.4570   -5.3930 h1        1 AVX      0.058033
     26 HN17        5.7830    0.6570   -2.8540 hn        1 AVX      0.389800
     27 HN1A        5.0610    0.5140   -4.3390 hn        1 AVX      0.389800
@<TRIPOS>BOND
     1    1    2 ar  
     2    1    6 ar  
     3    1   18 1   
     4    2    3 ar  
     5    2   10 1   
     6    3    4 ar  
     7    3   19 1   
     8    4    5 ar  
     9    4   15 1   
    10    5    6 ar  
    11    5    9 1   
    12    6    7 1   
    13    7    8 1   
    14    8    9 1   
    15    8   20 1   
    16    8   21 1   
    17   10   11 2   
    18   10   14 1   
    19   11   12 1   
    20   12   13 1   
    21   12   16 1   
    22   13   14 2   
    23   13   17 1   
    24   14   22 1   
    25   16   23 1   
    26   16   24 1   
    27   16   25 1   
    28   17   26 1   
    29   17   27 1   
@<TRIPOS>SUBSTRUCTURE
     1 AVX         1 TEMP              0 ****  ****    0 ROOT
