@<TRIPOS>MOLECULE
AVX
   27    29     1     0     0
SMALL
bcc


@<TRIPOS>ATOM
      1 C1         -0.3270    1.7630   -0.2330 ca        1 AVX     -0.076000
      2 C2         -0.7710    0.4370   -0.0100 ca        1 AVX     -0.105500
      3 C3          0.1360   -0.6020    0.2170 ca        1 AVX     -0.097000
      4 C4          1.5310   -0.3940    0.2330 ca        1 AVX     -0.020900
      5 C5          1.9590    0.9020    0.0120 ca        1 AVX      0.085100
      6 C6          1.0360    1.9590   -0.2150 ca        1 AVX      0.049100
      7 O7          1.7370    3.1470   -0.4040 os        1 AVX     -0.331900
      8 C8          3.1420    2.8260   -0.2920 c3        1 AVX      0.320200
      9 O9          3.2520    1.4070   -0.0310 os        1 AVX     -0.321900
     10 C10        -2.1950    0.1420   -0.0230 cc        1 AVX      0.372800
     11 N11        -3.1760    1.0530    0.2550 nd        1 AVX     -0.503800
     12 N12        -4.3510    0.4120    0.1630 na        1 AVX      0.074400
     13 C13        -4.1740   -0.9490   -0.2110 cd        1 AVX      0.086300
     14 C14        -2.7790   -1.1470   -0.3230 cc        1 AVX     -0.334300
     15 BR15        2.6960   -1.8160    0.5380 br        1 AVX     -0.055100
     16 C16        -5.6370    1.0470    0.2880 c3        1 AVX      0.039600
     17 N17        -5.2130   -1.8400   -0.4890 nh        1 AVX     -0.780200
     18 H1         -1.0300    2.5880   -0.4090 ha        1 AVX      0.173000
     19 H3         -0.2510   -1.6190    0.3950 ha        1 AVX      0.154000
     20 H8          3.6390    3.0470   -1.2680 h2        1 AVX      0.074700
     21 H8A         3.5680    3.3820    0.5790 h2        1 AVX      0.074700
     22 H14        -2.2590   -2.0550   -0.5990 ha        1 AVX      0.168000
     23 H16        -6.1870    0.9770   -0.6890 h1        1 AVX      0.058367
     24 H16A       -6.2280    0.5190    1.0840 h1        1 AVX      0.058367
     25 H16B       -5.5200    2.1260    0.5710 h1        1 AVX      0.058367
     26 HN17       -6.0290   -1.6960    0.0700 hn        1 AVX      0.389800
     27 HN1A       -4.8940   -2.7870   -0.4480 hn        1 AVX      0.389800
@<TRIPOS>BOND
     1    1    2 ar  
     2    1    6 ar  
     3    1   18 1   
     4    2    3 ar  
     5    2   10 1   
     6    3    4 ar  
     7    3   19 1   
     8    4    5 ar  
     9    4   15 1   
    10    5    6 ar  
    11    5    9 1   
    12    6    7 1   
    13    7    8 1   
    14    8    9 1   
    15    8   20 1   
    16    8   21 1   
    17   10   11 2   
    18   10   14 1   
    19   11   12 1   
    20   12   13 1   
    21   12   16 1   
    22   13   14 2   
    23   13   17 1   
    24   14   22 1   
    25   16   23 1   
    26   16   24 1   
    27   16   25 1   
    28   17   26 1   
    29   17   27 1   
@<TRIPOS>SUBSTRUCTURE
     1 AVX         1 TEMP              0 ****  ****    0 ROOT
