@<TRIPOS>MOLECULE
AVX
   27    29     1     0     0
SMALL
bcc


@<TRIPOS>ATOM
      1 C1          0.0110    0.2990   -0.0580 ca        1 AVX     -0.076000
      2 C2          1.4030    0.0400   -0.0250 ca        1 AVX     -0.105500
      3 C3          2.0690   -0.1910    1.1820 ca        1 AVX     -0.097000
      4 C4          1.4030   -0.1730    2.4250 ca        1 AVX     -0.020900
      5 C5          0.0440    0.0830    2.3880 ca        1 AVX      0.085100
      6 C6         -0.6320    0.3130    1.1600 ca        1 AVX      0.049100
      7 O7         -1.9820    0.5420    1.4160 os        1 AVX     -0.331900
      8 C8         -2.1570    0.4520    2.8480 c3        1 AVX      0.320200
      9 O9         -0.8650    0.1630    3.4340 os        1 AVX     -0.321900
     10 C10         2.1610    0.0180   -1.2660 cc        1 AVX      0.372800
     11 N11         1.6270   -0.2590   -2.4940 nd        1 AVX     -0.503800
     12 N12         2.6280   -0.2050   -3.3840 na        1 AVX      0.074400
     13 C13         3.8600    0.1410   -2.7630 cd        1 AVX      0.086300
     14 C14         3.5790    0.2760   -1.3850 cc        1 AVX     -0.334300
     15 BR15        2.3400   -0.4850    4.0050 br        1 AVX     -0.055100
     16 C16         2.4610   -0.3400   -4.8080 c3        1 AVX      0.039600
     17 N17         5.0570    0.3780   -3.4430 nh        1 AVX     -0.780200
     18 H1         -0.5230    0.4780   -1.0000 ha        1 AVX      0.173000
     19 H3          3.1520   -0.3980    1.1630 ha        1 AVX      0.154000
     20 H8         -2.8470   -0.3990    3.0720 h2        1 AVX      0.074700
     21 H8A        -2.5070    1.4420    3.2290 h2        1 AVX      0.074700
     22 H14         4.2660    0.5410   -0.5910 ha        1 AVX      0.168000
     23 H16         2.7410    0.6240   -5.3130 h1        1 AVX      0.058367
     24 H16A        3.1340   -1.1600   -5.1780 h1        1 AVX      0.058367
     25 H16B        1.3980   -0.5950   -5.0590 h1        1 AVX      0.058367
     26 HN17        5.1800   -0.1930   -4.2540 hn        1 AVX      0.389800
     27 HN1A        5.8400    0.3200   -2.8230 hn        1 AVX      0.389800
@<TRIPOS>BOND
     1    1    2 ar  
     2    1    6 ar  
     3    1   18 1   
     4    2    3 ar  
     5    2   10 1   
     6    3    4 ar  
     7    3   19 1   
     8    4    5 ar  
     9    4   15 1   
    10    5    6 ar  
    11    5    9 1   
    12    6    7 1   
    13    7    8 1   
    14    8    9 1   
    15    8   20 1   
    16    8   21 1   
    17   10   11 2   
    18   10   14 1   
    19   11   12 1   
    20   12   13 1   
    21   12   16 1   
    22   13   14 2   
    23   13   17 1   
    24   14   22 1   
    25   16   23 1   
    26   16   24 1   
    27   16   25 1   
    28   17   26 1   
    29   17   27 1   
@<TRIPOS>SUBSTRUCTURE
     1 AVX         1 TEMP              0 ****  ****    0 ROOT
