@<TRIPOS>MOLECULE
AVX
   28    30     1     0     0
SMALL
bcc


@<TRIPOS>ATOM
      1 C1          0.0230    0.3480   -0.0430 ca        1 AVX     -0.071000
      2 C2          1.4000    0.0180   -0.0030 ca        1 AVX     -0.164500
      3 C3          2.0420   -0.2950    1.1990 ca        1 AVX     -0.080000
      4 C4          1.3650   -0.2930    2.4360 ca        1 AVX     -0.031900
      5 C5          0.0210    0.0350    2.3940 ca        1 AVX      0.122100
      6 C6         -0.6320    0.3480    1.1670 ca        1 AVX      0.061100
      7 O7         -1.9670    0.6340    1.4180 os        1 AVX     -0.320900
      8 C8         -2.1670    0.4940    2.8460 c3        1 AVX      0.319200
      9 O9         -0.8910    0.1200    3.4290 os        1 AVX     -0.305900
     10 C10         2.1690    0.0040   -1.2360 cc        1 AVX      0.409800
     11 N11         1.6380   -0.2260   -2.4860 nd        1 AVX     -0.414800
     12 N12         2.6220   -0.1630   -3.3740 na        1 AVX      0.138400
     13 C13         3.8560    0.1120   -2.7280 cd        1 AVX     -0.172700
     14 C14         3.5910    0.2260   -1.3430 cc        1 AVX     -0.185300
     15 BR15        2.2690   -0.7150    4.0060 br        1 AVX     -0.018100
     16 C16         2.4710   -0.3570   -4.8000 c3        1 AVX      0.010600
     17 N17         5.1280    0.2460   -3.3930 n4        1 AVX     -0.662000
     18 H1         -0.4950    0.5910   -0.9810 ha        1 AVX      0.174000
     19 H3          3.1110   -0.5630    1.1880 ha        1 AVX      0.143000
     20 H8         -2.8960   -0.3340    3.0270 h2        1 AVX      0.092700
     21 H8A        -2.4700    1.4860    3.2650 h2        1 AVX      0.092700
     22 H14         4.2840    0.4420   -0.5340 ha        1 AVX      0.196000
     23 H16         3.0930   -1.2350   -5.1210 h1        1 AVX      0.084700
     24 H16A        2.7990    0.5740   -5.3350 h1        1 AVX      0.084700
     25 H16B        1.3920   -0.5620   -5.0510 h1        1 AVX      0.084700
     26 HN17        5.3710   -0.6260   -3.8810 hn        1 AVX      0.470800
     27 HN1A        5.0960    1.0180   -4.0730 hn        1 AVX      0.470800
     28 H173        5.8400    0.4490   -2.6800 hn        1 AVX      0.470800
@<TRIPOS>BOND
     1    1    2 ar  
     2    1    6 ar  
     3    1   18 1   
     4    2    3 ar  
     5    2   10 1   
     6    3    4 ar  
     7    3   19 1   
     8    4    5 ar  
     9    4   15 1   
    10    5    6 ar  
    11    5    9 1   
    12    6    7 1   
    13    7    8 1   
    14    8    9 1   
    15    8   20 1   
    16    8   21 1   
    17   10   11 2   
    18   10   14 1   
    19   11   12 1   
    20   12   13 1   
    21   12   16 1   
    22   13   14 2   
    23   13   17 1   
    24   14   22 1   
    25   16   23 1   
    26   16   24 1   
    27   16   25 1   
    28   17   26 1   
    29   17   27 1   
    30   17   28 1   
@<TRIPOS>SUBSTRUCTURE
     1 AVX         1 TEMP              0 ****  ****    0 ROOT
