@<TRIPOS>MOLECULE
AVX
   27    22     1     0     0
SMALL
bcc


@<TRIPOS>ATOM
      1 C1         -1.5120    0.0330    0.6150 c1        1 AVX     -0.077000
      2 C2         -0.1110    0.0460    0.5890 c1        1 AVX      0.001000
      3 C3          0.6040   -0.0250    1.7720 c1        1 AVX     -0.097000
      4 C4         -0.0750   -0.1090    3.0040 c1        1 AVX     -0.161000
      5 C5         -1.4850   -0.1220    3.0340 c1        1 AVX      0.040000
      6 C6         -2.2000   -0.0520    1.8550 c1        1 AVX      0.004000
      7 O7         -3.6070    0.0560    2.1910 os        1 AVX     -0.215000
      8 C8         -3.7200    0.0610    3.6040 c3        1 AVX      0.098000
      9 O9         -2.4240    0.0430    4.1380 os        1 AVX     -0.204000
     10 C10         0.5690    0.0470   -0.6410 c1        1 AVX     -0.016500
     11 N11         0.9690    1.1380   -1.3220 n2        1 AVX     -0.105500
     12 N12         1.5890    0.7230   -2.4580 n2        1 AVX     -0.105500
     13 C13         1.5710   -0.6320   -2.4760 c1        1 AVX     -0.016500
     14 C14         0.9410   -1.0540   -1.3550 c1        1 AVX     -0.269000
     15 BR15        0.8970   -0.1560    4.6070 br        1 AVX      0.085000
     16 C16         2.1550    1.5450   -3.4280 c2        1 AVX     -0.059000
     17 N17         2.2030   -1.4710   -3.4610 n2        1 AVX     -0.288000
     18 H1         -2.0320    0.0850   -0.2480 ha        1 AVX      0.173000
     19 H3          1.6250   -0.0150    1.7520 ha        1 AVX      0.156000
     20 H8         -4.2020    0.9280    3.9070 h2        1 AVX      0.114000
     21 H8A        -4.1970   -0.7470    3.8920 h2        1 AVX      0.114000
     22 H14         0.7750   -2.0180   -1.0930 DU        1 AVX      0.168000
     23 H16         1.8950    1.2400   -4.2920 ha        1 AVX      0.097333
     24 H16A        3.1320    1.5170   -3.3500 ha        1 AVX      0.097333
     25 H16B        1.8400    2.4740   -3.2970 ha        1 AVX      0.097333
     26 HN17        2.4080   -2.3950   -3.2520 hn        1 AVX      0.185000
     27 HN1A        2.3900   -1.1400   -4.2880 hn        1 AVX      0.185000
@<TRIPOS>BOND
     1    1    6 1   
     2    1   18 1   
     3    2    3 1   
     4    3   19 1   
     5    4    5 1   
     6    4   15 1   
     7    5    9 1   
     8    6    7 1   
     9    7    8 1   
    10    8    9 1   
    11    8   20 1   
    12    8   21 1   
    13   10   11 1   
    14   10   14 1   
    15   11   12 1   
    16   12   13 1   
    17   13   14 1   
    18   16   23 1   
    19   16   24 1   
    20   16   25 1   
    21   17   26 1   
    22   17   27 1   
@<TRIPOS>SUBSTRUCTURE
     1 AVX         1 TEMP              0 ****  ****    0 ROOT
