@<TRIPOS>MOLECULE
AW0
   70    63     1     0     0
SMALL
bcc


@<TRIPOS>ATOM
      1 N1         -0.7950    4.2450   -7.0980 n1        1 AW0     -0.269000
      2 C2          0.0690    3.2730   -6.6930 c1        1 AW0      0.030000
      3 N3         -0.1640    2.5880   -5.5270 n1        1 AW0     -0.238000
      4 C4         -1.2620    2.8780   -4.7720 c1        1 AW0     -0.089000
      5 C5         -2.1190    3.8390   -5.1720 c1        1 AW0     -0.089000
      6 C6         -1.8800    4.5340   -6.3550 c1        1 AW0      0.247000
      7 N6         -2.5820    5.5990   -6.9960 n3        1 AW0     -0.356000
      8 N7         -3.0660    3.9860   -4.2050 n1        1 AW0     -0.164000
      9 C8         -2.7880    3.1080   -3.2070 c1        1 AW0     -0.032000
     10 N9         -1.6780    2.4230   -3.5500 n1        1 AW0     -0.164000
     11 CAA         6.7110    1.8880    6.1380 c3        1 AW0     -0.173000
     12 CAB        -3.9970   -4.0880   -1.0270 c3        1 AW0     -0.229500
     13 CAC        -4.6490   -2.7970    1.0080 c3        1 AW0     -0.229500
     14 OAE         2.9000   -3.2220    3.5300 o         1 AW0     -0.389000
     15 OAF         0.7150    0.0780   -0.6450 oh        1 AW0     -0.334000
     16 OAG         1.0180    2.1140   -2.1040 oh        1 AW0     -0.326000
     17 CAI         5.9110   -0.4220    5.5170 c1        1 AW0     -0.109000
     18 CAJ         4.9350    1.4670    4.3900 c1        1 AW0     -0.144500
     19 CAK         5.0820   -1.2790    4.7970 c1        1 AW0     -0.147000
     20 CAL         4.1040    0.6090    3.6690 c1        1 AW0     -0.144500
     21 CAN        -0.7050   -3.2650    0.9380 c3        1 AW0     -0.192000
     22 CAO         0.1360   -2.9880    2.2090 c3        1 AW0     -0.051000
     23 CAP        -2.0980   -2.6250    1.0930 c3        1 AW0     -0.062000
     24 CAQ        -2.5690   -0.7560   -0.3470 c3        1 AW0     -0.062000
     25 NAU         1.4700   -2.5630    1.8230 n         1 AW0     -0.335000
     26 NAV         3.0800   -0.9890    2.9510 n         1 AW0     -0.321000
     27 OAW        -2.0810    0.2790   -2.3880 os        1 AW0     -0.267000
     28 CAX         2.4810   -2.3060    2.8450 c2        1 AW0      0.372000
     29 CAY         5.8370    0.9480    5.3130 c1        1 AW0     -0.098000
     30 CBA         4.1780   -0.7610    3.8730 c1        1 AW0      0.071000
     31 CBD        -3.9930   -2.7060   -0.3690 c3        1 AW0     -0.001000
     32 CBE        -0.4870    0.6640   -0.7960 c3        1 AW0      0.011000
     33 CBF        -0.3980    1.8070   -1.7990 c3        1 AW0     -0.028000
     34 CBG        -1.5160   -0.3550   -1.4070 c3        1 AW0     -0.016000
     35 CBH        -1.0180    1.3570   -2.8900 c2        1 AW0      0.133000
     36 NBI        -2.6060   -2.2350   -0.2210 n3        1 AW0     -0.285000
     37 H2          0.8550    3.0650   -7.2320 ha        1 AW0      0.189000
     38 HN6        -3.3660    5.9150   -6.6350 hn        1 AW0      0.246500
     39 HN6A       -2.2620    5.9540   -7.7770 hn        1 AW0      0.246500
     40 H8         -3.2990    2.9950   -2.3840 DU        1 AW0      0.215000
     41 HAA         6.6450    1.6480    7.0880 hc        1 AW0      0.080667
     42 HAAA        7.6370    1.8110    5.8480 hc        1 AW0      0.080667
     43 HAAB        6.4050    2.8140    6.0130 hc        1 AW0      0.080667
     44 HAB        -4.5710   -4.0700   -1.8260 hc        1 AW0      0.080333
     45 HABA       -4.3420   -4.7550   -0.3890 hc        1 AW0      0.080333
     46 HABB       -3.0880   -4.3260   -1.2860 hc        1 AW0      0.080333
     47 HAC        -5.6250   -2.7250    0.9120 hc        1 AW0      0.080333
     48 HACA       -4.4250   -3.6550    1.4200 hc        1 AW0      0.080333
     49 HACB       -4.3220   -2.0660    1.5740 hc        1 AW0      0.080333
     50 HOAF        1.1120    0.4000    0.0840 ho        1 AW0      0.230000
     51 HOAG        1.2580    2.8560   -1.6800 ho        1 AW0      0.238000
     52 HAI         6.5450   -0.7870    6.1670 ha        1 AW0      0.133000
     53 HAJ         4.8830    2.4330    4.2460 ha        1 AW0      0.129500
     54 HAK         5.1340   -2.2450    4.9410 ha        1 AW0      0.174000
     55 HAL         3.4760    0.9700    3.0260 ha        1 AW0      0.129500
     56 HAN        -0.8020   -4.2340    0.8160 hc        1 AW0      0.092500
     57 HANA       -0.2570   -2.8830    0.1620 hc        1 AW0      0.092500
     58 HAO        -0.2900   -2.2840    2.7350 h1        1 AW0      0.109500
     59 HAOA        0.1960   -3.8050    2.7460 h1        1 AW0      0.109500
     60 HAP        -2.0320   -1.8390    1.6610 h1        1 AW0      0.079000
     61 HAPA       -2.7140   -3.2750    1.5030 h1        1 AW0      0.079000
     62 HAQ        -2.3290   -0.3610    0.5170 h1        1 AW0      0.083000
     63 HAQA       -3.4510   -0.4290   -0.6220 h1        1 AW0      0.083000
     64 HNAU        1.6740   -2.4530    0.9440 hn        1 AW0      0.213000
     65 HNAV        2.7630   -0.3030    2.4420 hn        1 AW0      0.236000
     66 HBD        -4.4930   -2.0780   -0.9270 h1        1 AW0      0.092000
     67 HBE        -0.8120    0.9970    0.0670 h1        1 AW0      0.145000
     68 HBF        -0.8530    2.6000   -1.4510 h1        1 AW0      0.129000
     69 HBG        -1.0510   -1.1480   -1.7400 h1        1 AW0      0.143000
     70 HBH        -0.3740    0.9380   -3.4920 h4        1 AW0      0.140000
@<TRIPOS>BOND
     1    1    6 1   
     2    2    3 1   
     3    2   37 1   
     4    4    5 1   
     5    6    7 1   
     6    7   38 1   
     7    7   39 1   
     8    8    9 1   
     9    9   10 1   
    10   11   29 1   
    11   11   41 1   
    12   11   42 1   
    13   11   43 1   
    14   12   31 1   
    15   12   44 1   
    16   12   45 1   
    17   12   46 1   
    18   13   31 1   
    19   13   47 1   
    20   13   48 1   
    21   13   49 1   
    22   14   28 1   
    23   15   32 1   
    24   15   50 1   
    25   16   33 1   
    26   16   51 1   
    27   17   29 1   
    28   17   52 1   
    29   18   20 1   
    30   18   53 1   
    31   19   30 1   
    32   19   54 1   
    33   20   55 1   
    34   21   22 1   
    35   21   23 1   
    36   21   56 1   
    37   21   57 1   
    38   22   25 1   
    39   22   58 1   
    40   22   59 1   
    41   23   36 1   
    42   23   60 1   
    43   23   61 1   
    44   24   34 1   
    45   24   36 1   
    46   24   62 1   
    47   24   63 1   
    48   25   28 1   
    49   25   64 1   
    50   26   28 1   
    51   26   30 1   
    52   26   65 1   
    53   27   34 1   
    54   27   35 1   
    55   31   36 1   
    56   31   66 1   
    57   32   33 1   
    58   32   34 1   
    59   32   67 1   
    60   33   35 1   
    61   33   68 1   
    62   34   69 1   
    63   35   70 1   
@<TRIPOS>SUBSTRUCTURE
     1 AW0         1 TEMP              0 ****  ****    0 ROOT
