@<TRIPOS>MOLECULE
AW0
   70    73     1     0     0
SMALL
bcc


@<TRIPOS>ATOM
      1 N1         -8.5920   -0.9820   -0.7910 nb        1 AW0     -0.795000
      2 C2         -8.0270   -1.3810    0.3780 ca        1 AW0      0.690900
      3 N3         -6.8050   -1.1110    0.8960 nb        1 AW0     -0.759000
      4 C4         -6.0590   -0.3040    0.0800 ca        1 AW0      0.449800
      5 C5         -6.5230    0.2050   -1.2050 ca        1 AW0     -0.228200
      6 C6         -7.8440   -0.1770   -1.6210 ca        1 AW0      0.765200
      7 N6         -8.3340    0.2400   -2.8290 nh        1 AW0     -0.957500
      8 N7         -5.5310    1.0080   -1.7880 nc        1 AW0     -0.549100
      9 C8         -4.5120    0.9960   -0.9170 cd        1 AW0      0.418700
     10 N9         -4.7630    0.2090    0.2340 na        1 AW0     -0.291000
     11 CAB         0.1830    3.3900   -0.3120 c3        1 AW0     -0.110100
     12 CAC        -1.1950    2.4100   -2.1320 c3        1 AW0     -0.110100
     13 OAE         5.6710    0.5450   -1.1030 o         1 AW0     -0.618100
     14 OAF        -1.4350   -2.1960    2.5870 oh        1 AW0     -0.575800
     15 OAG        -3.8880   -1.6530    3.1380 oh        1 AW0     -0.593800
     16 CAI         9.3490    0.7510    0.7200 ca        1 AW0     -0.109000
     17 CAJ        10.0280   -1.5580    0.6960 ca        1 AW0     -0.109000
     18 CAK         8.0460    0.3870    0.3950 ca        1 AW0     -0.154500
     19 CAL         8.7350   -1.9420    0.3640 ca        1 AW0     -0.154500
     20 CAN         2.1320   -0.2480   -0.7040 c3        1 AW0     -0.117400
     21 CAO         3.2110   -0.5360   -1.7490 c3        1 AW0      0.069000
     22 CAP         1.0340    0.5980   -1.3500 c3        1 AW0      0.181800
     23 NAU         4.3210   -1.3300   -1.2810 n         1 AW0     -0.532900
     24 NAV         6.4000   -1.4050   -0.0490 n         1 AW0     -0.458100
     25 OAW        -2.6910    0.7140    1.2440 os        1 AW0     -0.411600
     26 CAX         5.4780   -0.6580   -0.8160 c         1 AW0      0.745100
     27 CAY        10.3530   -0.2100    0.8760 ca        1 AW0     -0.098300
     28 CBA         7.7160   -0.9720    0.2110 ca        1 AW0      0.055600
     29 CBD        -0.7020    2.2040   -0.6980 c3        1 AW0      0.178500
     30 CBE        -2.1290   -1.6250    1.5060 c3        1 AW0      0.127100
     31 CBF        -3.6410   -1.4480    1.7630 c3        1 AW0      0.081100
     32 CBG        -1.5980   -0.2170    1.1610 c3        1 AW0      0.094100
     33 CBH        -3.9410    0.0450    1.4130 c3        1 AW0      0.226800
     34 H2         -8.6760   -2.0300    1.0060 h5        1 AW0      0.051100
     35 HN6        -9.2620    0.0280   -3.0980 hn        1 AW0      0.450300
     36 HN6A       -7.7980    0.8740   -3.3670 hn        1 AW0      0.450300
     37 H8         -3.5560    1.5280   -1.0320 h5        1 AW0      0.087800
     38 HAA        11.7440    1.1200    1.8350 hc        1 AW0      0.043033
     39 HAAA       12.2680   -0.6150    1.7700 hc        1 AW0      0.043033
     40 HAAB       12.3110    0.4030    0.2700 hc        1 AW0      0.043033
     41 HAB        -0.4310    4.3210   -0.3570 hc        1 AW0      0.039700
     42 HABA        0.5790    3.2720    0.7250 hc        1 AW0      0.039700
     43 HABB        1.0460    3.5030   -1.0120 hc        1 AW0      0.039700
     44 HAC        -0.3350    2.4960   -2.8390 hc        1 AW0      0.039700
     45 HACA       -1.8400    1.5620   -2.4650 hc        1 AW0      0.039700
     46 HACB       -1.7920    3.3510   -2.1840 hc        1 AW0      0.039700
     47 HOAF       -1.7100   -1.7430    3.3970 ho        1 AW0      0.426000
     48 HOAG       -4.8390   -1.8020    3.2320 ho        1 AW0      0.433000
     49 HAJ        10.8060   -2.3270    0.8160 ha        1 AW0      0.132500
     50 HAK         7.2790    1.1690    0.2720 ha        1 AW0      0.148000
     51 HAL         8.5140   -3.0120    0.2270 ha        1 AW0      0.148000
     52 HAN         1.7100   -1.2100   -0.3110 hc        1 AW0      0.053700
     53 HANA        2.5730    0.3060    0.1650 hc        1 AW0      0.053700
     54 HAO         2.7490   -1.1110   -2.6030 h1        1 AW0      0.070200
     55 HAOA        3.6050    0.4400   -2.1550 h1        1 AW0      0.070200
     56 HAP         1.5030    1.5620   -1.7000 h1        1 AW0      0.036700
     57 HAPA        0.6550    0.0590   -2.2680 h1        1 AW0      0.036700
     58 HNAU        4.0490   -2.1500   -0.7830 hn        1 AW0      0.286500
     59 HNAV        6.2920   -2.3970   -0.0500 hn        1 AW0      0.304500
     60 HBD        -1.6080    2.2360   -0.0140 h1        1 AW0      0.069700
     61 HBE        -1.9660   -2.3460    0.6570 h1        1 AW0      0.090700
     62 HBF        -4.2380   -2.1660    1.1410 h1        1 AW0      0.085700
     63 HBG        -0.8590    0.1290    1.9370 h1        1 AW0      0.102700
     64 HBH        -4.4520    0.5640    2.2810 h2        1 AW0      0.102700
     65 CAQ        -0.9860   -0.1790   -0.2500 c3        1 AW0      0.167800
     66 NBI        -0.0520    0.9180   -0.4360 n3        1 AW0     -0.744600
     67 HAI         9.5890    1.8160    0.8580 ha        1 AW0      0.132500
     68 CAA        11.7380    0.1940    1.2090 c3        1 AW0     -0.049800
     69 HAQ        -0.4310   -1.1500   -0.3970 h1        1 AW0      0.042700
     70 HAQA       -1.8320   -0.1480   -0.9980 h1        1 AW0      0.042700
@<TRIPOS>BOND
     1    1    2 ar  
     2    1    6 ar  
     3    2    3 ar  
     4    2   34 1   
     5    3    4 ar  
     6    4    5 ar  
     7    4   10 1   
     8    5    6 ar  
     9    5    8 1   
    10    6    7 1   
    11    7   35 1   
    12    7   36 1   
    13    8    9 2   
    14    9   10 1   
    15    9   37 1   
    16   10   33 1   
    17   11   29 1   
    18   11   41 1   
    19   11   42 1   
    20   11   43 1   
    21   12   29 1   
    22   12   44 1   
    23   12   45 1   
    24   12   46 1   
    25   13   26 2   
    26   14   30 1   
    27   14   47 1   
    28   15   31 1   
    29   15   48 1   
    30   16   18 ar  
    31   16   27 ar  
    32   16   67 1   
    33   17   19 ar  
    34   17   27 ar  
    35   17   49 1   
    36   18   28 ar  
    37   18   50 1   
    38   19   28 ar  
    39   19   51 1   
    40   20   21 1   
    41   20   22 1   
    42   20   52 1   
    43   20   53 1   
    44   21   23 1   
    45   21   54 1   
    46   21   55 1   
    47   22   56 1   
    48   22   57 1   
    49   22   66 1   
    50   23   26 1   
    51   23   58 1   
    52   24   26 1   
    53   24   28 1   
    54   24   59 1   
    55   25   32 1   
    56   25   33 1   
    57   27   68 1   
    58   29   60 1   
    59   29   66 1   
    60   30   31 1   
    61   30   32 1   
    62   30   61 1   
    63   31   33 1   
    64   31   62 1   
    65   32   63 1   
    66   32   65 1   
    67   33   64 1   
    68   38   68 1   
    69   39   68 1   
    70   40   68 1   
    71   65   66 1   
    72   65   69 1   
    73   65   70 1   
@<TRIPOS>SUBSTRUCTURE
     1 AW0         1 TEMP              0 ****  ****    0 ROOT
