@<TRIPOS>MOLECULE
AW1
   79    72     1     0     0
SMALL
bcc


@<TRIPOS>ATOM
      1 N1         -1.2700   10.2460    4.0700 n1        1 AW1     -0.269000
      2 C2         -0.3080    9.7050    3.2660 c1        1 AW1      0.028000
      3 N3         -0.4210    8.4190    2.8400 n1        1 AW1     -0.239000
      4 C4         -1.4950    7.6690    3.2150 c1        1 AW1     -0.089000
      5 C5         -2.4470    8.2040    4.0090 c1        1 AW1     -0.089000
      6 C6         -2.3290    9.5090    4.4400 c1        1 AW1      0.243000
      7 N6         -3.2070   10.4210    5.0530 n3        1 AW1     -0.354000
      8 N7         -3.4680    7.3070    4.1050 n1        1 AW1     -0.165000
      9 C8         -3.1430    6.2240    3.3700 c1        1 AW1     -0.031000
     10 N9         -1.9220    6.4430    2.8170 n1        1 AW1     -0.165000
     11 CAA        -4.7670    1.1450    1.1020 c3        1 AW1     -0.226500
     12 CAB        -2.8880    0.6800    2.7160 c3        1 AW1     -0.226500
     13 CAC         4.9630   -8.0640   -5.1380 c3        1 AW1     -0.203667
     14 CAD         5.5440   -8.3020   -2.7500 c3        1 AW1     -0.203667
     15 CAE         3.8400   -9.8080   -3.7330 c3        1 AW1     -0.203667
     16 OAG         0.5090   -3.1650   -3.0930 o         1 AW1     -0.378000
     17 OAH         0.7930    4.4780   -0.1270 oh        1 AW1     -0.315000
     18 OAI         1.0290    5.8690    2.2560 oh        1 AW1     -0.324000
     19 CAK         3.0530   -5.0850   -2.5480 c1        1 AW1     -0.135000
     20 CAL         1.2960   -6.7130   -2.1540 c1        1 AW1     -0.143500
     21 CAM         3.8060   -6.0500   -3.2140 c1        1 AW1     -0.109000
     22 CAN         2.0620   -7.6940   -2.8310 c1        1 AW1     -0.143500
     23 CAP        -1.9720   -0.4960   -0.7740 c3        1 AW1     -0.165000
     24 CAQ        -0.9470   -1.1460   -1.7330 c3        1 AW1     -0.038000
     25 CAR        -1.3730    0.8200   -0.1860 c3        1 AW1     -0.070000
     26 CAS        -1.8210    2.5530    1.3880 c3        1 AW1     -0.078000
     27 NAW        -0.3200   -2.3010   -1.0730 n         1 AW1     -0.360000
     28 NAX         1.0560   -4.4400   -1.2220 n         1 AW1     -0.312000
     29 OAY        -2.0390    5.0410    0.8080 os        1 AW1     -0.266000
     30 CAZ         0.4230   -3.2990   -1.8770 c2        1 AW1      0.376000
     31 CBB         1.7900   -5.4190   -2.0150 c1        1 AW1      0.064000
     32 CBC         3.3060   -7.3640   -3.3550 c1        1 AW1     -0.079000
     33 CBF        -3.3000    0.6750    1.2290 c3        1 AW1     -0.013000
     34 CBG        -0.0310    3.9780    0.9870 c3        1 AW1      0.015000
     35 CBH        -0.1960    5.1320    2.1200 c3        1 AW1     -0.027000
     36 CBI        -1.2110    3.7140    0.5740 c3        1 AW1      0.017000
     37 CBJ        -1.1560    5.9250    1.6950 c2        1 AW1      0.136000
     38 NBK        -2.4250    1.5860    0.4740 n3        1 AW1     -0.266000
     39 CBM         4.4250   -8.3900   -3.7400 c3        1 AW1     -0.014000
     40 H2          0.4490   10.2350    3.0010 ha        1 AW1      0.188000
     41 HN6        -4.0760   10.1880    5.2000 hn        1 AW1      0.244500
     42 HN6A       -2.8970   11.2250    5.3440 hn        1 AW1      0.244500
     43 H8         -3.6680    5.4020    3.2970 DU        1 AW1      0.216000
     44 HAA        -5.2350    0.9900    1.9530 hc        1 AW1      0.078667
     45 HAAA       -4.7860    2.0960    0.8900 hc        1 AW1      0.078667
     46 HAAB       -5.2140    0.6400    0.3840 hc        1 AW1      0.078667
     47 HAB        -1.9120    0.5610    2.7880 hc        1 AW1      0.078667
     48 HABA       -3.1430    1.5350    3.1230 hc        1 AW1      0.078667
     49 HABB       -3.3470   -0.0610    3.1900 hc        1 AW1      0.078667
     50 HAC         4.2140   -7.9570   -5.7620 hc        1 AW1      0.075667
     51 HACA        5.4840   -7.2250   -5.1020 hc        1 AW1      0.075667
     52 HACB        5.5440   -8.7960   -5.4460 hc        1 AW1      0.075667
     53 HAD         6.0780   -7.5020   -2.9350 hc        1 AW1      0.075667
     54 HADA        5.1770   -8.2480   -1.8470 hc        1 AW1      0.075667
     55 HADB        6.1110   -9.0960   -2.8250 hc        1 AW1      0.075667
     56 HAE         3.6590  -10.0820   -2.8120 hc        1 AW1      0.075667
     57 HAEA        3.0110   -9.8190   -4.2430 hc        1 AW1      0.075667
     58 HAEB        4.4820  -10.4280   -4.1400 hc        1 AW1      0.075667
     59 HOAH        1.5320    3.9780   -0.2000 ho        1 AW1      0.231000
     60 HOAI        1.5670    5.4450    2.8130 ho        1 AW1      0.238000
     61 HAK         3.4090   -4.1550   -2.4480 ha        1 AW1      0.170000
     62 HAL         0.4170   -6.9460   -1.7820 ha        1 AW1      0.129500
     63 HAM         4.6900   -5.8150   -3.5860 ha        1 AW1      0.135000
     64 HAN         1.7110   -8.6120   -2.9300 ha        1 AW1      0.129500
     65 HAP        -2.1720   -1.1120   -0.0480 hc        1 AW1      0.093500
     66 HAPA       -2.7990   -0.2900   -1.2680 hc        1 AW1      0.093500
     67 HAQ        -0.2670   -0.4980   -1.9650 h1        1 AW1      0.098500
     68 HAQA       -1.4050   -1.4440   -2.5480 h1        1 AW1      0.098500
     69 HAR        -0.6660    0.5920    0.4740 h1        1 AW1      0.082000
     70 HARA       -0.9800    1.3610   -0.9170 h1        1 AW1      0.082000
     71 HAS        -2.5050    2.9010    1.9920 h1        1 AW1      0.082500
     72 HASA       -1.1200    2.1160    1.9080 h1        1 AW1      0.082500
     73 HNAW       -0.4380   -2.4330   -0.1740 hn        1 AW1      0.202000
     74 HNAX        0.9120   -4.5890   -0.3600 hn        1 AW1      0.217000
     75 HBF        -3.2160   -0.2360    0.8680 h1        1 AW1      0.091000
     76 HBG         0.3780    3.1790    1.3750 h1        1 AW1      0.099000
     77 HBH        -0.4460    4.7280    2.9800 h1        1 AW1      0.115000
     78 HBI        -1.1940    3.4910   -0.3730 h1        1 AW1      0.158000
     79 HBJ        -0.7730    6.6750    1.1600 h4        1 AW1      0.142000
@<TRIPOS>BOND
     1    1    6 1   
     2    2    3 1   
     3    2   40 1   
     4    4    5 1   
     5    6    7 1   
     6    7   41 1   
     7    7   42 1   
     8    8    9 1   
     9    9   10 1   
    10   11   33 1   
    11   11   44 1   
    12   11   45 1   
    13   11   46 1   
    14   12   33 1   
    15   12   47 1   
    16   12   48 1   
    17   12   49 1   
    18   13   39 1   
    19   13   50 1   
    20   13   51 1   
    21   13   52 1   
    22   14   39 1   
    23   14   53 1   
    24   14   54 1   
    25   14   55 1   
    26   15   39 1   
    27   15   56 1   
    28   15   57 1   
    29   15   58 1   
    30   16   30 1   
    31   17   34 1   
    32   17   59 1   
    33   18   35 1   
    34   18   60 1   
    35   19   31 1   
    36   19   61 1   
    37   20   22 1   
    38   20   62 1   
    39   21   32 1   
    40   21   63 1   
    41   22   64 1   
    42   23   24 1   
    43   23   25 1   
    44   23   65 1   
    45   23   66 1   
    46   24   27 1   
    47   24   67 1   
    48   24   68 1   
    49   25   38 1   
    50   25   69 1   
    51   25   70 1   
    52   26   36 1   
    53   26   38 1   
    54   26   71 1   
    55   26   72 1   
    56   27   30 1   
    57   27   73 1   
    58   28   30 1   
    59   28   31 1   
    60   28   74 1   
    61   29   36 1   
    62   29   37 1   
    63   32   39 1   
    64   33   38 1   
    65   33   75 1   
    66   34   35 1   
    67   34   36 1   
    68   34   76 1   
    69   35   37 1   
    70   35   77 1   
    71   36   78 1   
    72   37   79 1   
@<TRIPOS>SUBSTRUCTURE
     1 AW1         1 TEMP              0 ****  ****    0 ROOT
