@<TRIPOS>MOLECULE
AW1
   79    82     1     0     0
SMALL
bcc


@<TRIPOS>ATOM
      1 N1         -9.5500   -0.9820   -0.4500 nb        1 AW1     -0.795000
      2 C2         -8.9470   -1.2310    0.7430 ca        1 AW1      0.690900
      3 N3         -7.7060   -0.9120    1.1790 nb        1 AW1     -0.759000
      4 C4         -6.9820   -0.2300    0.2390 ca        1 AW1      0.449800
      5 C5         -7.4860    0.1120   -1.0850 ca        1 AW1     -0.228200
      6 C6         -8.8240   -0.3040   -1.4030 ca        1 AW1      0.765200
      7 N6         -9.3520   -0.0430   -2.6380 nh        1 AW1     -0.957500
      8 N7         -6.5080    0.8170   -1.8030 nc        1 AW1     -0.549100
      9 C8         -5.4590    0.9060   -0.9720 cd        1 AW1      0.418700
     10 N9         -5.6760    0.2820    0.2800 na        1 AW1     -0.291000
     11 CAA        -0.7230    3.2940   -0.8470 c3        1 AW1     -0.109600
     12 CAB        -2.1740    2.1020   -2.4740 c3        1 AW1     -0.109600
     13 OAG         4.7060    0.2920   -1.4450 o         1 AW1     -0.618100
     14 OAH        -2.2900   -1.8370    2.8180 oh        1 AW1     -0.575800
     15 OAI        -4.7180   -1.1930    3.3740 oh        1 AW1     -0.593800
     16 CAK         7.1370    0.2990   -0.0290 ca        1 AW1     -0.158000
     17 CAL         7.7970   -2.0180    0.2420 ca        1 AW1     -0.158000
     18 CAM         8.4540    0.6800    0.2000 ca        1 AW1     -0.107000
     19 CAN         9.1060   -1.6130    0.4760 ca        1 AW1     -0.107000
     20 CAP         1.1760   -0.3910   -0.8210 c3        1 AW1     -0.117400
     21 CAQ         2.2140   -0.8300   -1.8550 c3        1 AW1      0.069000
     22 CAR         0.0630    0.3780   -1.5360 c3        1 AW1      0.181800
     23 NAW         3.3320   -1.5700   -1.3250 n         1 AW1     -0.532900
     24 NAX         5.4540   -1.5110   -0.1670 n         1 AW1     -0.457100
     25 OAY        -3.5650    0.8860    1.1450 os        1 AW1     -0.411600
     26 CAZ         4.5120   -0.8590   -0.9940 c         1 AW1      0.745100
     27 CBB         6.7830   -1.0670   -0.0120 ca        1 AW1      0.056600
     28 CBC         9.4600   -0.2610    0.4580 ca        1 AW1     -0.086300
     29 CBF        -1.6330    2.0800   -1.0430 c3        1 AW1      0.178500
     30 CBG        -3.0170   -1.4050    1.6950 c3        1 AW1      0.127100
     31 CBH        -4.5170   -1.1750    1.9770 c3        1 AW1      0.081100
     32 CBI        -2.4850   -0.0620    1.1490 c3        1 AW1      0.094100
     33 CBJ        -4.8150    0.2630    1.4420 c3        1 AW1      0.226800
     34 CBM        10.8680    0.2110    0.7020 c3        1 AW1     -0.006700
     35 H2         -9.5800   -1.7830    1.4720 h5        1 AW1      0.051100
     36 HN6       -10.2910   -0.2760   -2.8450 hn        1 AW1      0.450300
     37 HN6A       -8.8300    0.5070   -3.2730 hn        1 AW1      0.450300
     38 H8         -4.5030    1.4050   -1.1880 h5        1 AW1      0.087800
     39 HAA        -1.3300    4.2200   -0.9940 hc        1 AW1      0.039700
     40 HAAA       -0.2930    3.3080    0.1820 hc        1 AW1      0.039700
     41 HAAB        0.1150    3.3010   -1.5840 hc        1 AW1      0.039700
     42 HAB        -1.3390    2.0830   -3.2150 hc        1 AW1      0.039700
     43 HABA       -2.8380    1.2260   -2.6710 hc        1 AW1      0.039700
     44 HABB       -2.7640    3.0370   -2.6300 hc        1 AW1      0.039700
     45 HAC        11.5180   -1.5150    1.8720 hc        1 AW1      0.036589
     46 HACA       11.8680   -1.6320    0.0900 hc        1 AW1      0.036589
     47 HACB       12.8580   -0.5400    1.1420 hc        1 AW1      0.036589
     48 HAD        10.5250    0.5960    2.8210 hc        1 AW1      0.036589
     49 HADA       11.9320    1.4910    2.1060 hc        1 AW1      0.036589
     50 HADB       10.2380    2.0260    1.7440 hc        1 AW1      0.036589
     51 HAE        12.4120    1.3280   -0.3510 hc        1 AW1      0.036589
     52 HAEA       11.3530    0.3150   -1.4210 hc        1 AW1      0.036589
     53 HAEB       10.7200    1.8630   -0.7220 hc        1 AW1      0.036589
     54 HOAH       -2.5330   -1.2780    3.5700 ho        1 AW1      0.426000
     55 HOAI       -5.6660   -1.3160    3.5180 ho        1 AW1      0.433000
     56 HAL         7.5620   -3.0940    0.2620 ha        1 AW1      0.147500
     57 HAM         8.7020    1.7530    0.1780 ha        1 AW1      0.134500
     58 HAN         9.8610   -2.3900    0.6720 ha        1 AW1      0.134500
     59 HAP         0.7590   -1.2860   -0.2910 hc        1 AW1      0.053700
     60 HAPA        1.6530    0.2670   -0.0490 hc        1 AW1      0.053700
     61 HAQ         1.7160   -1.5060   -2.6100 h1        1 AW1      0.069700
     62 HAQA        2.6020    0.0790   -2.4010 h1        1 AW1      0.069700
     63 HAR         0.5290    1.2810   -2.0260 h1        1 AW1      0.036700
     64 HARA       -0.3530   -0.2720   -2.3610 h1        1 AW1      0.036700
     65 HNAW        3.0710   -2.3130   -0.7140 hn        1 AW1      0.286500
     66 HNAX        5.3360   -2.4920   -0.0310 hn        1 AW1      0.304500
     67 HBF        -2.5140    2.2140   -0.3390 h1        1 AW1      0.069700
     68 HBG        -2.8890   -2.2340    0.9450 h1        1 AW1      0.090700
     69 HBH        -5.1410   -1.9600    1.4750 h1        1 AW1      0.085700
     70 HBI        -1.7160    0.3730    1.8460 h1        1 AW1      0.102700
     71 HBJ        -5.2910    0.8990    2.2510 h2        1 AW1      0.102700
     72 CAS        -1.9230   -0.2190   -0.2750 c3        1 AW1      0.167800
     73 NBK        -0.9860    0.8310   -0.6350 n3        1 AW1     -0.744600
     74 HAK         6.3770    1.0700   -0.2350 ha        1 AW1      0.147500
     75 CAC        11.8300   -0.9410    0.9660 c3        1 AW1     -0.085767
     76 CAD        10.8900    1.1370    1.9160 c3        1 AW1     -0.085767
     77 CAE        11.3660    0.9750   -0.5220 c3        1 AW1     -0.085767
     78 HAS        -1.3830   -1.2090   -0.3110 h1        1 AW1      0.042700
     79 HASA       -2.7950   -0.2750   -0.9910 h1        1 AW1      0.042700
@<TRIPOS>BOND
     1    1    2 ar  
     2    1    6 ar  
     3    2    3 ar  
     4    2   35 1   
     5    3    4 ar  
     6    4    5 ar  
     7    4   10 1   
     8    5    6 ar  
     9    5    8 1   
    10    6    7 1   
    11    7   36 1   
    12    7   37 1   
    13    8    9 2   
    14    9   10 1   
    15    9   38 1   
    16   10   33 1   
    17   11   29 1   
    18   11   39 1   
    19   11   40 1   
    20   11   41 1   
    21   12   29 1   
    22   12   42 1   
    23   12   43 1   
    24   12   44 1   
    25   13   26 2   
    26   14   30 1   
    27   14   54 1   
    28   15   31 1   
    29   15   55 1   
    30   16   18 ar  
    31   16   27 ar  
    32   16   74 1   
    33   17   19 ar  
    34   17   27 ar  
    35   17   56 1   
    36   18   28 ar  
    37   18   57 1   
    38   19   28 ar  
    39   19   58 1   
    40   20   21 1   
    41   20   22 1   
    42   20   59 1   
    43   20   60 1   
    44   21   23 1   
    45   21   61 1   
    46   21   62 1   
    47   22   63 1   
    48   22   64 1   
    49   22   73 1   
    50   23   26 1   
    51   23   65 1   
    52   24   26 1   
    53   24   27 1   
    54   24   66 1   
    55   25   32 1   
    56   25   33 1   
    57   28   34 1   
    58   29   67 1   
    59   29   73 1   
    60   30   31 1   
    61   30   32 1   
    62   30   68 1   
    63   31   33 1   
    64   31   69 1   
    65   32   70 1   
    66   32   72 1   
    67   33   71 1   
    68   34   75 1   
    69   34   76 1   
    70   34   77 1   
    71   45   75 1   
    72   46   75 1   
    73   47   75 1   
    74   48   76 1   
    75   49   76 1   
    76   50   76 1   
    77   51   77 1   
    78   52   77 1   
    79   53   77 1   
    80   72   73 1   
    81   72   78 1   
    82   72   79 1   
@<TRIPOS>SUBSTRUCTURE
     1 AW1         1 TEMP              0 ****  ****    0 ROOT
