@<TRIPOS>MOLECULE
AW1
   81    82     1     0     0
SMALL
bcc


@<TRIPOS>ATOM
      1 N1          2.5200   -4.1400    3.3860 nb        1 AW1     -0.775000
      2 C2          2.9870   -3.6700    4.5580 ca        1 AW1      0.678900
      3 N3          3.5360   -2.4660    4.8830 nb        1 AW1     -0.837000
      4 C4          3.6120   -1.6310    3.8040 ca        1 AW1      0.474800
      5 C5          3.1370   -1.9830    2.4760 ca        1 AW1     -0.223200
      6 C6          2.5770   -3.2940    2.2860 ca        1 AW1      0.786200
      7 N6          2.1180   -3.6880    1.0720 nv        1 AW1     -0.916500
      8 N7          3.3260   -0.9110    1.5860 nc        1 AW1     -0.502100
      9 C8          3.8870    0.0600    2.3030 cd        1 AW1      0.449700
     10 N9          4.0810   -0.3030    3.6810 na        1 AW1     -0.107000
     11 CAA         1.1190   -1.2500    7.1130 c3        1 AW1     -0.130100
     12 CAB         1.0270   -2.5360    9.2380 c3        1 AW1     -0.130100
     13 OAG         6.9140   -5.6320   11.0070 os        1 AW1     -0.347700
     14 OAH         5.9300    2.0360    8.9530 oh        1 AW1     -0.601800
     15 OAI         5.9060    1.7810    6.3520 oh        1 AW1     -0.383600
     16 CAK         7.2480   -6.5320   13.2150 ca        1 AW1     -0.101500
     17 CAL         9.1750   -6.0020   11.8020 ca        1 AW1     -0.101500
     18 CAM         8.1170   -6.8420   14.2550 ca        1 AW1     -0.114500
     19 CAN        10.0240   -6.3200   12.8610 ca        1 AW1     -0.114500
     20 CAP         4.4640   -4.0680    7.8910 c3        1 AW1     -0.139400
     21 CAQ         5.6650   -4.8680    8.3800 c3        1 AW1      0.109800
     22 CAR         4.0870   -2.9600    8.8710 c3        1 AW1      0.104800
     23 NAW         5.3390   -5.9380    9.3650 ny        1 AW1     -0.802000
     24 NAX         7.3070   -7.5080    9.5940 n2        1 AW1     -0.708100
     25 OAY         5.5940   -0.5260    8.2260 oh        1 AW1     -0.650800
     26 CAZ         6.6290   -6.5080    9.9730 c2        1 AW1      0.733500
     27 CBB         7.7970   -6.0980   12.0030 ca        1 AW1      0.023100
     28 CBC         9.5120   -6.7430   14.0960 ca        1 AW1     -0.003300
     29 CBF         1.8450   -2.2730    7.9820 c3        1 AW1      0.142500
     30 CBG         4.6010    1.5540    9.0440 c3        1 AW1      0.103400
     31 CBH         5.3480    1.0610    5.3960 c1        1 AW1     -0.018400
     32 CBI         4.7400    0.0320    9.2090 c3        1 AW1      0.125100
     33 CBJ         4.7460    0.4100    4.5930 c1        1 AW1     -0.138300
     34 CBM        10.4060   -7.0990   15.2550 c3        1 AW1     -0.023700
     35 H2          2.9090   -4.3910    5.3990 h5        1 AW1      0.013100
     36 HN6         2.1760   -3.0620    0.3020 hn        1 AW1      0.470800
     37 HN6A        1.7310   -4.5930    0.9380 hn        1 AW1      0.470800
     38 H8          4.1810    1.0570    1.9420 h5        1 AW1      0.105800
     39 HAA         0.2090   -1.7470    6.6880 hc        1 AW1      0.078367
     40 HAAA        1.7460   -0.8950    6.2600 hc        1 AW1      0.078367
     41 HAAB        0.7820   -0.3700    7.7120 hc        1 AW1      0.078367
     42 HAB         0.9010   -1.6100    9.8500 hc        1 AW1      0.078367
     43 HABA        1.4700   -3.3370    9.8750 hc        1 AW1      0.078367
     44 HABB        0.0070   -2.8740    8.9180 hc        1 AW1      0.078367
     45 HOAH        5.8960    2.8830    8.4880 ho        1 AW1      0.440000
     46 HOAI        6.8350    1.9400    6.0780 ho        1 AW1      0.458000
     47 HAM         7.7000   -7.1750   15.2210 ha        1 AW1      0.165500
     48 HAN        11.1120   -6.2350   12.7030 ha        1 AW1      0.165500
     49 HAP         4.7750   -3.6210    6.9000 hc        1 AW1      0.107200
     50 HAPA        3.5840   -4.7340    7.6880 hc        1 AW1      0.107200
     51 HAQ         6.1580   -5.3660    7.4920 hx        1 AW1      0.127200
     52 HAQA        6.4260   -4.1840    8.8640 hx        1 AW1      0.127200
     53 HAR         5.0380   -2.4860    9.2680 hx        1 AW1      0.104700
     54 HARA        3.5070   -3.3810    9.7390 hx        1 AW1      0.104700
     55 HNAW        4.7960   -6.6820    8.9190 hn        1 AW1      0.453800
     56 HNAX        7.0460   -8.0910    8.8310 hn        1 AW1      0.475400
     57 HBF         1.9440   -3.2350    7.3890 hx        1 AW1      0.088700
     58 HBG         4.0960    1.9990    9.9400 h1        1 AW1      0.059200
     59 HBH         4.0280    1.7990    8.1100 h1        1 AW1      0.059200
     60 HBI         5.1920   -0.1940   10.2180 h1        1 AW1      0.082700
     61 HBJ         6.1870    0.1750    7.9050 ho        1 AW1      0.471000
     62 HAK         6.1610   -6.6130   13.3480 ha        1 AW1      0.145500
     63 CAC        11.8840   -6.9410   14.9200 c3        1 AW1     -0.091767
     64 CAD        10.1580   -8.5530   15.6520 c3        1 AW1     -0.091767
     65 CAE        10.0820   -6.1890   16.4380 c3        1 AW1     -0.091767
     66 HAW2        4.7830   -5.5430   10.1330 hn        1 AW1      0.453800
     67 CAS         3.3450   -0.6310    9.1180 c3        1 AW1      0.091800
     68 NBK         3.2790   -1.8570    8.2640 nx        1 AW1     -0.674400
     69 HAL         9.5840   -5.6810   10.8330 ha        1 AW1      0.145500
     70 HAS         2.6070    0.1070    8.6870 hx        1 AW1      0.106700
     71 HAC        12.1180   -5.8840   14.6490 hc        1 AW1      0.047144
     72 HACA       12.4990   -7.2160   15.8120 hc        1 AW1      0.047144
     73 HACB       12.1740   -7.6130   14.0770 hc        1 AW1      0.047144
     74 HAD        10.3820   -9.2340   14.7970 hc        1 AW1      0.047144
     75 HADA       10.8220   -8.8260   16.5080 hc        1 AW1      0.047144
     76 HADB        9.0980   -8.7050   15.9660 hc        1 AW1      0.047144
     77 HAE        10.2520   -5.1200   16.1650 hc        1 AW1      0.047144
     78 HAEA       10.7450   -6.4460   17.3000 hc        1 AW1      0.047144
     79 HAEB        9.0210   -6.3160   16.7590 hc        1 AW1      0.047144
     80 HASA        3.0090   -0.9050   10.1580 hx        1 AW1      0.106700
     81 HBK1        3.7160   -1.6140    7.3520 hn        1 AW1      0.489800
@<TRIPOS>BOND
     1    1    2 ar  
     2    1    6 ar  
     3    2    3 ar  
     4    2   35 1   
     5    3    4 ar  
     6    4    5 ar  
     7    4   10 1   
     8    5    6 ar  
     9    5    8 1   
    10    6    7 1   
    11    7   36 1   
    12    7   37 1   
    13    8    9 2   
    14    9   10 1   
    15    9   38 1   
    16   10   33 1   
    17   11   29 1   
    18   11   39 1   
    19   11   40 1   
    20   11   41 1   
    21   12   29 1   
    22   12   42 1   
    23   12   43 1   
    24   12   44 1   
    25   13   26 1   
    26   13   27 1   
    27   14   30 1   
    28   14   45 1   
    29   15   31 1   
    30   15   46 1   
    31   16   18 ar  
    32   16   27 ar  
    33   16   62 1   
    34   17   19 ar  
    35   17   27 ar  
    36   17   69 1   
    37   18   28 ar  
    38   18   47 1   
    39   19   28 ar  
    40   19   48 1   
    41   20   21 1   
    42   20   22 1   
    43   20   49 1   
    44   20   50 1   
    45   21   23 1   
    46   21   51 1   
    47   21   52 1   
    48   22   53 1   
    49   22   54 1   
    50   22   68 1   
    51   23   26 1   
    52   23   55 1   
    53   23   66 1   
    54   24   26 2   
    55   24   56 1   
    56   25   32 1   
    57   25   61 1   
    58   28   34 1   
    59   29   57 1   
    60   29   68 1   
    61   30   32 1   
    62   30   58 1   
    63   30   59 1   
    64   31   33 3   
    65   32   60 1   
    66   32   67 1   
    67   34   63 1   
    68   34   64 1   
    69   34   65 1   
    70   63   71 1   
    71   63   72 1   
    72   63   73 1   
    73   64   74 1   
    74   64   75 1   
    75   64   76 1   
    76   65   77 1   
    77   65   78 1   
    78   65   79 1   
    79   67   68 1   
    80   67   70 1   
    81   67   80 1   
    82   68   81 1   
@<TRIPOS>SUBSTRUCTURE
     1 AW1         1 TEMP              0 ****  ****    0 ROOT
