@<TRIPOS>MOLECULE
AW2
   80    83     1     0     0
SMALL
bcc


@<TRIPOS>ATOM
      1 BR9        -2.8800   -0.5670    3.7090 br        1 AW2     -0.037700
      2 N01        -5.7280   -2.3670    3.1690 nh        1 AW2     -0.961500
      3 C02        -5.5230   -2.1900    1.8240 ca        1 AW2      0.750200
      4 N03        -6.4040   -2.7370    0.9180 nb        1 AW2     -0.795000
      5 C04        -6.1810   -2.4900   -0.3990 ca        1 AW2      0.687900
      6 N05        -5.1980   -1.7760   -0.9910 nb        1 AW2     -0.770000
      7 C06        -4.3120   -1.2420   -0.0890 ca        1 AW2      0.467800
      8 C07        -4.4160   -1.4140    1.3480 ca        1 AW2     -0.353400
      9 C08        -3.2990   -0.7110    1.9280 cc        1 AW2     -0.107500
     10 C10        -2.5700   -0.1490    0.8750 cd        1 AW2     -0.054100
     11 N11        -3.1790   -0.4540   -0.3450 na        1 AW2     -0.188100
     12 C12        -2.6920   -0.1590   -1.6770 c3        1 AW2      0.218800
     13 O13        -1.4790    0.5900   -1.6220 os        1 AW2     -0.396600
     14 C14        -1.6830    1.9440   -2.0530 c3        1 AW2      0.093100
     15 C15        -1.7040    2.9180   -0.8670 c3        1 AW2      0.158800
     16 N16        -0.5020    2.9360   -0.0540 n3        1 AW2     -0.740600
     17 C17         0.7300    3.1460   -0.8040 c3        1 AW2      0.178800
     18 C18         1.5160    1.8470   -0.9980 c3        1 AW2     -0.122400
     19 C19         2.7280    2.1280   -1.8880 c3        1 AW2      0.068000
     20 N20         3.5730    0.9880   -2.1490 n         1 AW2     -0.530900
     21 C21         4.6910    0.7760   -1.3060 c         1 AW2      0.745100
     22 N22         5.2980   -0.4990   -1.3380 n         1 AW2     -0.458100
     23 C23         6.5780   -0.7590   -0.8080 ca        1 AW2      0.057600
     24 C24         7.0790   -0.1030    0.3350 ca        1 AW2     -0.158000
     25 C25         8.3200   -0.4530    0.8530 ca        1 AW2     -0.107000
     26 C26         9.1060   -1.4570    0.2710 ca        1 AW2     -0.086300
     27 C27        10.4420   -1.7950    0.8760 c3        1 AW2     -0.005700
     28 C28        11.1580   -2.9070    0.1200 c3        1 AW2     -0.085767
     29 C29        11.3340   -0.5560    0.8600 c3        1 AW2     -0.085767
     30 C30        10.2430   -2.2530    2.3200 c3        1 AW2     -0.085767
     31 C31         8.6070   -2.1070   -0.8620 ca        1 AW2     -0.107000
     32 C32         7.3710   -1.7680   -1.4010 ca        1 AW2     -0.158000
     33 O33         5.1260    1.7020   -0.5840 o         1 AW2     -0.619100
     34 C34        -0.6080    3.8010    1.1260 c3        1 AW2      0.184500
     35 C35        -0.7700    5.2950    0.8360 c3        1 AW2     -0.111600
     36 C36        -1.7190    3.3730    2.0850 c3        1 AW2     -0.111600
     37 C37        -3.0230    2.0050   -2.8220 c3        1 AW2      0.127100
     38 O38        -2.8210    2.2790   -4.1860 oh        1 AW2     -0.575800
     39 C39        -3.7100    0.6490   -2.5500 c3        1 AW2      0.084100
     40 O40        -3.8910   -0.0190   -3.7790 oh        1 AW2     -0.595800
     41 HN01       -5.0230   -2.0730    3.8000 hn        1 AW2      0.445300
     42 HN0A       -6.4430   -2.9730    3.4890 hn        1 AW2      0.445300
     43 H10        -1.6540    0.4560    0.8920 h4        1 AW2      0.212000
     44 H12        -2.4250   -1.1370   -2.1820 h2        1 AW2      0.102700
     45 H14        -0.8190    2.1550   -2.7430 h1        1 AW2      0.090700
     46 H15        -1.9360    3.9380   -1.2960 h1        1 AW2      0.043700
     47 H15A       -2.5560    2.6180   -0.1910 h1        1 AW2      0.043700
     48 H17         0.5190    3.5980   -1.8170 h1        1 AW2      0.035700
     49 H17A        1.4020    3.8740   -0.2640 h1        1 AW2      0.035700
     50 H18         1.8500    1.4580   -0.0020 hc        1 AW2      0.060700
     51 H18A        0.8610    1.0650   -1.4630 hc        1 AW2      0.060700
     52 H19         2.3670    2.4900   -2.8940 h1        1 AW2      0.068700
     53 H19A        3.3500    2.9460   -1.4230 h1        1 AW2      0.068700
     54 HN20        3.0730    0.1750   -2.4390 hn        1 AW2      0.286500
     55 HN22        5.0370   -1.1060   -2.0850 hn        1 AW2      0.304500
     56 H24         6.4960    0.6980    0.8190 ha        1 AW2      0.147500
     57 H25         8.6880    0.0790    1.7450 ha        1 AW2      0.134000
     58 H28        11.3500   -2.6040   -0.9370 hc        1 AW2      0.036478
     59 H28A       12.1400   -3.1210    0.6080 hc        1 AW2      0.036478
     60 H28B       10.5510   -3.8440    0.1280 hc        1 AW2      0.036478
     61 H29        10.8710    0.2700    1.4500 hc        1 AW2      0.036478
     62 H29A       12.3290   -0.7980    1.3060 hc        1 AW2      0.036478
     63 H29B       11.4870   -0.2050   -0.1880 hc        1 AW2      0.036478
     64 H30         9.5890   -3.1560    2.3520 hc        1 AW2      0.036478
     65 H30A       11.2290   -2.5070    2.7770 hc        1 AW2      0.036478
     66 H30B        9.7680   -1.4460    2.9260 hc        1 AW2      0.036478
     67 H31         9.1880   -2.9020   -1.3560 ha        1 AW2      0.134000
     68 H32         7.0180   -2.3040   -2.2960 ha        1 AW2      0.147500
     69 H34         0.3730    3.6630    1.6790 h1        1 AW2      0.060700
     70 H35        -1.7550    5.5040    0.3540 hc        1 AW2      0.040367
     71 H35A       -0.7190    5.8620    1.7950 hc        1 AW2      0.040367
     72 H35B        0.0410    5.6630    0.1630 hc        1 AW2      0.040367
     73 H36        -1.7070    2.2700    2.2540 hc        1 AW2      0.040367
     74 H36A       -1.5580    3.8850    3.0640 hc        1 AW2      0.040367
     75 H36B       -2.7240    3.6670    1.6970 hc        1 AW2      0.040367
     76 H37        -3.6660    2.8520   -2.4570 h1        1 AW2      0.094700
     77 HO38       -2.5160    1.4700   -4.6180 ho        1 AW2      0.424000
     78 H39        -4.6930    0.8000   -2.0320 h1        1 AW2      0.083700
     79 HO40       -4.5070   -0.7460   -3.6140 ho        1 AW2      0.436000
     80 H04        -6.9220   -2.9490   -1.0890 h5        1 AW2      0.050100
@<TRIPOS>BOND
     1    1    9 1   
     2    2    3 1   
     3    2   41 1   
     4    2   42 1   
     5    3    4 ar  
     6    3    8 ar  
     7    4    5 ar  
     8    5    6 ar  
     9    5   80 1   
    10    6    7 ar  
    11    7    8 ar  
    12    7   11 1   
    13    8    9 1   
    14    9   10 2   
    15   10   11 1   
    16   10   43 1   
    17   11   12 1   
    18   12   13 1   
    19   12   39 1   
    20   12   44 1   
    21   13   14 1   
    22   14   15 1   
    23   14   37 1   
    24   14   45 1   
    25   15   16 1   
    26   15   46 1   
    27   15   47 1   
    28   16   17 1   
    29   16   34 1   
    30   17   18 1   
    31   17   48 1   
    32   17   49 1   
    33   18   19 1   
    34   18   50 1   
    35   18   51 1   
    36   19   20 1   
    37   19   52 1   
    38   19   53 1   
    39   20   21 1   
    40   20   54 1   
    41   21   22 1   
    42   21   33 2   
    43   22   23 1   
    44   22   55 1   
    45   23   24 ar  
    46   23   32 ar  
    47   24   25 ar  
    48   24   56 1   
    49   25   26 ar  
    50   25   57 1   
    51   26   27 1   
    52   26   31 ar  
    53   27   28 1   
    54   27   29 1   
    55   27   30 1   
    56   28   58 1   
    57   28   59 1   
    58   28   60 1   
    59   29   61 1   
    60   29   62 1   
    61   29   63 1   
    62   30   64 1   
    63   30   65 1   
    64   30   66 1   
    65   31   32 ar  
    66   31   67 1   
    67   32   68 1   
    68   34   35 1   
    69   34   36 1   
    70   34   69 1   
    71   35   70 1   
    72   35   71 1   
    73   35   72 1   
    74   36   73 1   
    75   36   74 1   
    76   36   75 1   
    77   37   38 1   
    78   37   39 1   
    79   37   76 1   
    80   38   77 1   
    81   39   40 1   
    82   39   78 1   
    83   40   79 1   
@<TRIPOS>SUBSTRUCTURE
     1 AW2         1 TEMP              0 ****  ****    0 ROOT
