@<TRIPOS>MOLECULE
AW2
   80    75     1     0     0
SMALL
bcc


@<TRIPOS>ATOM
      1 BR9         2.9420   -3.7140    4.1420 br        1 AW2      0.099000
      2 N01         6.4130   -4.4500    5.5090 n3        1 AW2     -0.358000
      3 C02         6.5100   -3.2640    4.7170 c2        1 AW2      0.230000
      4 N03         7.8150   -2.9730    4.8210 n2        1 AW2     -0.270000
      5 C04         8.3150   -1.8430    4.2300 c1        1 AW2      0.027000
      6 N05         7.4880   -1.0120    3.5360 n1        1 AW2     -0.250000
      7 C06         6.1620   -1.3040    3.4290 c1        1 AW2      0.079000
      8 C07         5.6660   -2.4190    4.0120 c1        1 AW2     -0.213000
      9 C08         4.2990   -2.4230    3.8280 c1        1 AW2     -0.243000
     10 C10         3.9640   -1.2950    3.1250 c1        1 AW2     -0.034000
     11 N11         5.1030   -0.6030    2.8770 n1        1 AW2     -0.170000
     12 C12         5.0220    0.7840    2.6090 c2        1 AW2      0.130000
     13 O13         3.8680    1.0710    1.5310 os        1 AW2     -0.252000
     14 C14         4.1640    2.1960    0.9810 c3        1 AW2      0.018000
     15 C15         3.7240    2.1960   -0.5370 c3        1 AW2     -0.080000
     16 N16         2.4150    2.8210   -0.6620 n3        1 AW2     -0.258000
     17 C17         1.4730    1.8720   -1.2280 c3        1 AW2     -0.061000
     18 C18         0.0350    2.1260   -0.6630 c3        1 AW2     -0.198000
     19 C19        -0.7450    0.8180   -0.6460 c3        1 AW2     -0.047000
     20 N20        -1.8100    0.8730   -1.6420 n         1 AW2     -0.344000
     21 C21        -3.0620    0.1390   -1.4220 c2        1 AW2      0.373000
     22 N22        -4.0150    0.0000   -2.5000 n         1 AW2     -0.312000
     23 C23        -5.2280   -0.8150   -2.3120 c2        1 AW2      0.064000
     24 C24        -5.6200   -1.2060   -1.0230 c2        1 AW2     -0.136000
     25 C25        -6.7760   -1.9750   -0.8460 c1        1 AW2     -0.107000
     26 C26        -7.5330   -2.3500   -1.9470 c1        1 AW2     -0.079000
     27 C27        -8.8990   -3.0790   -1.7410 c3        1 AW2     -0.013000
     28 C28        -8.8700   -4.4090   -2.4460 c3        1 AW2     -0.203667
     29 C29        -9.1390   -3.3000   -0.2500 c3        1 AW2     -0.203667
     30 C30       -10.0310   -2.2200   -2.3210 c3        1 AW2     -0.203667
     31 C31        -7.1400   -1.9590   -3.2300 c1        1 AW2     -0.107000
     32 C32        -5.9830   -1.1900   -3.4060 c1        1 AW2     -0.179000
     33 O33        -3.2600   -0.4160   -0.3640 o         1 AW2     -0.379000
     34 C34         2.5080    3.9940   -1.5270 c3        1 AW2     -0.020000
     35 C35         1.2160    4.8040   -1.4260 c3        1 AW2     -0.225000
     36 C36         2.7220    3.5370   -2.9990 c3        1 AW2     -0.225000
     37 C37         5.6970    2.3090    1.1000 c3        1 AW2      0.015000
     38 O38         6.0400    3.5170    1.5890 oh        1 AW2     -0.319000
     39 C39         6.1190    1.1960    2.0830 c3        1 AW2     -0.025000
     40 O40         7.0230    1.7510    3.1420 oh        1 AW2     -0.328000
     41 HN01        6.8770   -4.5140    6.2980 hn        1 AW2      0.240500
     42 HN0A        5.8760   -5.1440    5.2340 hn        1 AW2      0.240500
     43 H04         9.2570   -1.6340    4.3050 ha        1 AW2      0.186000
     44 H10         3.0670   -1.0680    2.7920 DU        1 AW2      0.203000
     45 H12         4.8390    1.2770    3.4360 h4        1 AW2      0.143000
     46 H14         3.7300    2.9340    1.4620 h1        1 AW2      0.148000
     47 H15         4.3780    2.6990   -1.0670 h1        1 AW2      0.082500
     48 H15A        3.6790    1.2660   -0.8670 h1        1 AW2      0.082500
     49 H17         1.4630    1.9730   -2.2050 h1        1 AW2      0.069000
     50 H17A        1.7540    0.9630   -1.0010 h1        1 AW2      0.069000
     51 H18         0.1010    2.4740    0.2400 hc        1 AW2      0.100500
     52 H18A       -0.4280    2.7730   -1.2290 hc        1 AW2      0.100500
     53 H19        -1.1390    0.6820    0.2500 h1        1 AW2      0.112500
     54 H19A       -0.1430    0.0750   -0.8540 h1        1 AW2      0.112500
     55 HN20       -1.7020    1.3730   -2.3990 hn        1 AW2      0.199000
     56 HN22       -3.8440    0.3900   -3.3190 hn        1 AW2      0.218000
     57 H24        -5.0850   -0.9410   -0.2470 ha        1 AW2      0.169000
     58 H25        -7.0500   -2.2480    0.0520 ha        1 AW2      0.137000
     59 H28        -9.6680   -4.9280   -2.2000 hc        1 AW2      0.075667
     60 H28A       -8.8620   -4.2650   -3.4030 hc        1 AW2      0.075667
     61 H28B       -8.0600   -4.9050   -2.1800 hc        1 AW2      0.075667
     62 H29        -9.1470   -2.4430    0.2070 hc        1 AW2      0.075667
     63 H29A      -10.0050   -3.7490   -0.1200 hc        1 AW2      0.075667
     64 H29B       -8.4230   -3.8600    0.1170 hc        1 AW2      0.075667
     65 H30        -9.9470   -1.2990   -1.9890 hc        1 AW2      0.075667
     66 H30A      -10.8990   -2.5900   -2.0430 hc        1 AW2      0.075667
     67 H30B       -9.9730   -2.2210   -3.3050 hc        1 AW2      0.075667
     68 H31        -7.6690   -2.2220   -4.0000 ha        1 AW2      0.131000
     69 H32        -5.7070   -0.9150   -4.3110 ha        1 AW2      0.126000
     70 H34         3.2690    4.5540   -1.2430 h1        1 AW2      0.098000
     71 H35         0.5180    4.3750   -1.9640 hc        1 AW2      0.078333
     72 H35A        1.3720    5.7070   -1.7570 hc        1 AW2      0.078333
     73 H35B        0.9310    4.8430   -0.4950 hc        1 AW2      0.078333
     74 H36         2.1560    4.0930   -3.6070 hc        1 AW2      0.078333
     75 H36A        3.6700    3.6470   -3.2420 hc        1 AW2      0.078333
     76 H36B        2.4710    2.6000   -3.0870 hc        1 AW2      0.078333
     77 H37         6.1140    2.1670    0.2320 h1        1 AW2      0.097000
     78 HO38        6.7460    3.8250    1.1500 ho        1 AW2      0.231000
     79 H39         6.5670    0.4590    1.5980 h1        1 AW2      0.116000
     80 HO40        7.8420    1.8280    2.8200 ho        1 AW2      0.241000
@<TRIPOS>BOND
     1    1    9 1   
     2    2    3 1   
     3    2   41 1   
     4    2   42 1   
     5    3    4 1   
     6    3    8 1   
     7    4    5 1   
     8    5   43 1   
     9    6    7 1   
    10    9   10 1   
    11   10   11 1   
    12   12   13 1   
    13   12   39 1   
    14   12   45 1   
    15   13   14 1   
    16   14   15 1   
    17   14   37 1   
    18   14   46 1   
    19   15   16 1   
    20   15   47 1   
    21   15   48 1   
    22   16   17 1   
    23   16   34 1   
    24   17   18 1   
    25   17   49 1   
    26   17   50 1   
    27   18   19 1   
    28   18   51 1   
    29   18   52 1   
    30   19   20 1   
    31   19   53 1   
    32   19   54 1   
    33   20   21 1   
    34   20   55 1   
    35   21   22 1   
    36   21   33 1   
    37   22   23 1   
    38   22   56 1   
    39   23   24 1   
    40   23   32 1   
    41   24   25 1   
    42   24   57 1   
    43   25   58 1   
    44   26   27 1   
    45   26   31 1   
    46   27   28 1   
    47   27   29 1   
    48   27   30 1   
    49   28   59 1   
    50   28   60 1   
    51   28   61 1   
    52   29   62 1   
    53   29   63 1   
    54   29   64 1   
    55   30   65 1   
    56   30   66 1   
    57   30   67 1   
    58   31   68 1   
    59   32   69 1   
    60   34   35 1   
    61   34   36 1   
    62   34   70 1   
    63   35   71 1   
    64   35   72 1   
    65   35   73 1   
    66   36   74 1   
    67   36   75 1   
    68   36   76 1   
    69   37   38 1   
    70   37   39 1   
    71   37   77 1   
    72   38   78 1   
    73   39   40 1   
    74   39   79 1   
    75   40   80 1   
@<TRIPOS>SUBSTRUCTURE
     1 AW2         1 TEMP              0 ****  ****    0 ROOT
