@<TRIPOS>MOLECULE
AW3
   71    65     1     0     0
SMALL
bcc


@<TRIPOS>ATOM
      1 N1         -1.7290    6.3180   -8.9910 n1        1 AW3     -0.593800
      2 C2         -1.4070    4.9830   -8.8210 c1        1 AW3      0.409300
      3 N3         -1.3590    4.4410   -7.5580 n1        1 AW3     -0.537800
      4 C4         -1.6290    5.2140   -6.4760 c1        1 AW3     -0.058500
      5 C5         -1.9500    6.5400   -6.6420 c1        1 AW3     -0.058500
      6 C6         -1.9970    7.0880   -7.9210 c1        1 AW3      0.607600
      7 BRH        -2.6450    8.8710   -4.9180 br        1 AW3     -0.145800
      8 CAA         3.9510   -5.4680    8.0150 c3        1 AW3     -0.085767
      9 CAB         5.4650   -4.7510    6.1850 c3        1 AW3     -0.085767
     10 CAC         4.5470   -7.0620    6.1730 c3        1 AW3     -0.085767
     11 NAD        -2.4340    8.4100   -8.3520 n3        1 AW3     -0.824400
     12 OAE        -1.1070   -2.2200    4.1240 o         1 AW3     -0.616100
     13 OAF         0.1740    1.2850   -3.4390 oh        1 AW3     -0.591800
     14 OAG         0.7980    3.0620   -5.0740 oh        1 AW3     -0.565800
     15 CAJ         1.1940   -3.6030    5.3660 c1        1 AW3     -0.076500
     16 CAK         1.9150   -5.0070    3.5350 c1        1 AW3     -0.084500
     17 CAL         2.2080   -4.1500    6.1910 c1        1 AW3     -0.051500
     18 CAM         2.9200   -5.5490    4.3550 c1        1 AW3     -0.084500
     19 CAN        -2.0690    6.0790   -4.4590 cg        1 AW3     -0.007200
     20 CAO        -2.9030   -0.8500    0.4400 c3        1 AW3     -0.120400
     21 CAP        -2.9590    0.6520    0.1640 c3        1 AW3      0.166800
     22 CAQ        -2.3770   -1.0990    1.8980 c3        1 AW3      0.074000
     23 CAR        -2.5140    2.1920   -1.5680 c3        1 AW3      0.137800
     24 NAU        -3.1020    0.8720   -1.2160 n3        1 AW3     -0.830200
     25 NAV        -1.6980   -2.3820    1.9480 n         1 AW3     -0.535900
     26 NAW         0.2410   -3.6660    2.8780 n         1 AW3     -0.468700
     27 OAX        -2.5530    3.1320   -3.6720 os        1 AW3     -0.404600
     28 CAY        -0.8760   -2.6960    3.0410 c         1 AW3      0.744100
     29 CBA         1.0580   -4.0400    4.0390 c1        1 AW3      0.067200
     30 CBB        -2.2240    7.0750   -5.3820 c1        1 AW3      0.014800
     31 CBC         3.0570   -5.1070    5.6940 c1        1 AW3     -0.050100
     32 CBF        -0.4570    2.4120   -3.0720 c3        1 AW3      0.083100
     33 CBG        -0.2620    3.4680   -4.0980 c3        1 AW3      0.124100
     34 CBH        -2.0340    2.1640   -3.0090 c3        1 AW3      0.095100
     35 CBI        -1.4670    3.5750   -4.7230 c3        1 AW3      0.382300
     36 NBJ        -1.7000    4.9230   -5.1340 n2        1 AW3     -0.375000
     37 CBK         4.2620   -5.5940    6.5120 c3        1 AW3     -0.040900
     38 H2         -1.2080    4.4130   -9.6130 ha        1 AW3      0.131500
     39 HAA         4.2980   -4.6000    8.3530 hc        1 AW3      0.037033
     40 HAAA        4.3800   -6.1960    8.4960 hc        1 AW3      0.037033
     41 HAAB        2.9530   -5.5110    8.1590 hc        1 AW3      0.037033
     42 HAB         5.3600   -3.8270    6.6110 hc        1 AW3      0.037033
     43 HABA        6.2770   -5.1840    6.5410 hc        1 AW3      0.037033
     44 HABB        5.5440   -4.6560    5.2140 hc        1 AW3      0.037033
     45 HAC         3.6690   -7.5960    6.2000 hc        1 AW3      0.037033
     46 HACA        5.1770   -7.4350    6.8290 hc        1 AW3      0.037033
     47 HACB        4.9510   -7.1220    5.2410 hc        1 AW3      0.037033
     48 HNAD       -2.6720    9.0230   -7.7430 hn        1 AW3      0.442800
     49 HNAA       -2.3880    8.6610   -9.3270 hn        1 AW3      0.442800
     50 HOAF        0.6620    1.0100   -2.7970 ho        1 AW3      0.422000
     51 HOAG        1.5880    3.1610   -4.7070 ho        1 AW3      0.425000
     52 HAJ         0.5690   -2.8980    5.7320 ha        1 AW3      0.110500
     53 HAK         1.8190   -5.3110    2.6080 ha        1 AW3      0.073000
     54 HAL         2.3090   -3.8330    7.1570 ha        1 AW3      0.077500
     55 HAM         3.5230   -6.2280    4.0040 ha        1 AW3      0.073000
     56 HAN        -2.0990    6.1870   -3.5040 DU        1 AW3      0.177000
     57 HAO        -2.2650   -1.3040   -0.2390 hc        1 AW3      0.052700
     58 HAOA       -3.7620   -1.2140    0.3530 hc        1 AW3      0.052700
     59 HAP        -3.7180    1.0400    0.6340 h1        1 AW3      0.037700
     60 HAPA       -2.1260    1.0740    0.4800 h1        1 AW3      0.037700
     61 HAQ        -1.7730   -0.4080    2.1410 h1        1 AW3      0.072700
     62 HAQA       -3.1500   -1.1050    2.5360 h1        1 AW3      0.072700
     63 HAR        -3.1710    2.8670   -1.4670 h1        1 AW3      0.049700
     64 HARA       -1.7510    2.3840   -0.9690 h1        1 AW3      0.049700
     65 HNAU       -4.0450    0.8650   -1.4500 hn        1 AW3      0.355800
     66 HNAV       -1.7210   -2.9410    1.2160 hn        1 AW3      0.286500
     67 HNAW        0.3390   -4.1110    2.0990 hn        1 AW3      0.304500
     68 HBF        -0.1240    2.7180   -2.2010 h1        1 AW3      0.074700
     69 HBG        -0.0360    4.2690   -3.6910 h1        1 AW3      0.101700
     70 HBH        -2.2560    1.3240   -3.4190 h1        1 AW3      0.080700
     71 HBI        -1.4920    2.9690   -5.5090 h2        1 AW3      0.137700
@<TRIPOS>BOND
     1    1    6 3   
     2    2    3 3   
     3    2   38 1   
     4    4    5 1   
     5    6   11 1   
     6    7   30 1   
     7    8   37 1   
     8    8   39 1   
     9    8   40 1   
    10    8   41 1   
    11    9   37 1   
    12    9   42 1   
    13    9   43 1   
    14    9   44 1   
    15   10   37 1   
    16   10   45 1   
    17   10   46 1   
    18   10   47 1   
    19   11   48 1   
    20   11   49 1   
    21   12   28 2   
    22   13   32 1   
    23   13   50 1   
    24   14   33 1   
    25   14   51 1   
    26   15   29 3   
    27   15   52 1   
    28   16   18 3   
    29   16   53 1   
    30   17   31 3   
    31   17   54 1   
    32   18   55 1   
    33   19   30 3   
    34   19   36 1   
    35   20   21 1   
    36   20   22 1   
    37   20   57 1   
    38   20   58 1   
    39   21   24 1   
    40   21   59 1   
    41   21   60 1   
    42   22   25 1   
    43   22   61 1   
    44   22   62 1   
    45   23   24 1   
    46   23   34 1   
    47   23   63 1   
    48   23   64 1   
    49   24   65 1   
    50   25   28 1   
    51   25   66 1   
    52   26   28 1   
    53   26   29 1   
    54   26   67 1   
    55   27   34 1   
    56   27   35 1   
    57   31   37 1   
    58   32   33 1   
    59   32   34 1   
    60   32   68 1   
    61   33   35 1   
    62   33   69 1   
    63   34   70 1   
    64   35   36 1   
    65   35   71 1   
@<TRIPOS>SUBSTRUCTURE
     1 AW3         1 TEMP              0 ****  ****    0 ROOT
