@<TRIPOS>MOLECULE
AW3
   73    75     1     0     0
SMALL
bcc


@<TRIPOS>ATOM
      1 N1          0.3410   -1.7140    0.3020 nb        1 AW3     -0.749000
      2 C2          0.4810   -1.9530    1.6150 ca        1 AW3      0.698900
      3 N3          1.0290   -1.1610    2.5940 nb        1 AW3     -0.737000
      4 C4          1.4670    0.0230    2.1160 ca        1 AW3      0.525800
      5 C5          1.3990    0.4260    0.7310 ca        1 AW3     -0.400400
      6 C6          0.8050   -0.4940   -0.1870 ca        1 AW3      0.767200
      7 NAD         0.6920   -0.2170   -1.5140 nv        1 AW3     -0.935500
      8 OAE         5.5880   -4.7800   13.1700 o         1 AW3     -0.473100
      9 OAF         4.6250    2.0450    6.6390 oh        1 AW3     -0.630800
     10 OAG         3.8660    2.9450    4.3850 oh        1 AW3     -0.587800
     11 CAJ         5.5010   -6.5290   15.5430 ca        1 AW3     -0.112500
     12 CAK         5.6580   -8.7730   14.6060 ca        1 AW3     -0.112500
     13 CAL         6.0030   -7.0140   16.7450 ca        1 AW3     -0.108000
     14 CAM         6.1540   -9.2340   15.8210 ca        1 AW3     -0.108000
     15 CAN         2.3940    2.1280    1.8980 cc        1 AW3     -0.163100
     16 CAO         4.2390   -3.8110    9.3990 c3        1 AW3     -0.135400
     17 CAP         4.4050   -2.3100    9.1610 c3        1 AW3      0.106800
     18 CAQ         4.6820   -4.1090   10.8300 c3        1 AW3      0.110800
     19 NAU         3.9740   -1.8830    7.8040 ny        1 AW3     -0.759000
     20 NAV         4.5610   -5.5440   11.2000 ny        1 AW3     -0.689800
     21 NAW         4.7270   -6.9810   13.2350 ns        1 AW3     -0.371100
     22 OAX         2.1280   -0.5510    6.3200 oh        1 AW3     -0.672800
     23 CAY         5.0570   -5.7790   12.6860 c         1 AW3      0.640100
     24 CBA         5.3150   -7.4130   14.4650 ca        1 AW3     -0.050400
     25 CBB         1.9930    1.7530    0.6360 cd        1 AW3      0.005500
     26 CBC         6.3360   -8.3680   16.9090 ca        1 AW3     -0.004300
     27 CBF         3.3170    1.5920    6.3300 c3        1 AW3      0.110100
     28 CBG         2.8360    2.1790    4.9820 c3        1 AW3      0.051200
     29 CBH         3.4020    0.0520    6.3110 c3        1 AW3      0.163100
     30 CBI         2.2470    1.0820    4.1600 c1        1 AW3     -0.140100
     31 NBJ         2.0870    1.1020    2.8640 na        1 AW3     -0.057400
     32 CBK         6.8730   -8.8410   18.2350 c3        1 AW3     -0.022700
     33 H2          0.0950   -2.9350    1.9660 h5        1 AW3      0.064100
     34 HNAD        0.9920    0.6640   -1.8600 hn        1 AW3      0.463300
     35 HNAA        0.2570   -0.8610   -2.1320 hn        1 AW3      0.463300
     36 HOAF        4.6550    3.0010    6.4760 ho        1 AW3      0.453000
     37 HOAG        4.6080    2.3540    4.1990 ho        1 AW3      0.416000
     38 HAL         6.1400   -6.3120   17.5850 ha        1 AW3      0.167500
     39 HAM         6.4050  -10.3050   15.9090 ha        1 AW3      0.167500
     40 HAN         2.8770    3.0490    2.2470 h4        1 AW3      0.213000
     41 HAO         3.1650   -4.1100    9.2510 hc        1 AW3      0.084700
     42 HAOA        4.8630   -4.3910    8.6670 hc        1 AW3      0.084700
     43 HAP         5.4880   -2.0150    9.2900 hx        1 AW3      0.118700
     44 HAPA        3.7910   -1.7340    9.9150 hx        1 AW3      0.118700
     45 HAQ         5.7630   -3.8060   10.9750 hx        1 AW3      0.129700
     46 HAQA        4.0630   -3.5140   11.5650 hx        1 AW3      0.129700
     47 HNAU        2.9800   -2.1260    7.6470 hn        1 AW3      0.466800
     48 HNAV        3.5870   -5.8410   11.1030 hn        1 AW3      0.450300
     49 HNAW        4.3450   -7.7120   12.6690 hn        1 AW3      0.345500
     50 HBF         2.6030    1.9110    7.1410 h1        1 AW3      0.069700
     51 HBG         2.0170    2.9380    5.1870 h1        1 AW3      0.125700
     52 HBH         3.9940   -0.2820    5.4130 h1        1 AW3      0.066700
     53 HBI         1.6820   -0.2960    5.4730 ho        1 AW3      0.514000
     54 BrH         2.1780    2.7560   -0.8900 br        1 AW3      0.022300
     55 HAJ         5.2590   -5.4580   15.4480 ha        1 AW3      0.147000
     56 CAA         7.1810  -10.3330   18.2370 c3        1 AW3     -0.092100
     57 CAB         5.8390   -8.5620   19.3230 c3        1 AW3     -0.092100
     58 CAC         8.1610   -8.0840   18.5530 c3        1 AW3     -0.092100
     59 HAU2        4.5290   -2.3630    7.0870 hn        1 AW3      0.466800
     60 HAV2        5.1410   -6.1120   10.5770 hn        1 AW3      0.450300
     61 CAR         4.1030   -0.4010    7.6120 c3        1 AW3      0.101800
     62 HAK         5.5290   -9.4870   13.7770 ha        1 AW3      0.147000
     63 HAR         5.1930   -0.1180    7.5670 hx        1 AW3      0.121200
     64 HAA         7.5740  -10.6300   19.2400 hc        1 AW3      0.047367
     65 HAAA        6.2590  -10.9290   18.0350 hc        1 AW3      0.047367
     66 HAAB        7.9570  -10.5800   17.4730 hc        1 AW3      0.047367
     67 HAB         6.2290   -8.9130   20.3090 hc        1 AW3      0.047367
     68 HABA        5.6240   -7.4690   19.3970 hc        1 AW3      0.047367
     69 HABB        4.8880   -9.1030   19.1040 hc        1 AW3      0.047367
     70 HAC         8.5660   -8.4320   19.5350 hc        1 AW3      0.047367
     71 HACA        7.9710   -6.9870   18.6190 hc        1 AW3      0.047367
     72 HACB        8.9290   -8.2720   17.7660 hc        1 AW3      0.047367
     73 HARA        3.6180    0.1100    8.4910 hx        1 AW3      0.121200
@<TRIPOS>BOND
     1    1    2 ar  
     2    1    6 ar  
     3    2    3 ar  
     4    2   33 1   
     5    3    4 ar  
     6    4    5 ar  
     7    4   31 1   
     8    5    6 ar  
     9    5   25 1   
    10    6    7 1   
    11    7   34 1   
    12    7   35 1   
    13    8   23 2   
    14    9   27 1   
    15    9   36 1   
    16   10   28 1   
    17   10   37 1   
    18   11   13 ar  
    19   11   24 ar  
    20   11   55 1   
    21   12   14 ar  
    22   12   24 ar  
    23   12   62 1   
    24   13   26 ar  
    25   13   38 1   
    26   14   26 ar  
    27   14   39 1   
    28   15   25 2   
    29   15   31 1   
    30   15   40 1   
    31   16   17 1   
    32   16   18 1   
    33   16   41 1   
    34   16   42 1   
    35   17   19 1   
    36   17   43 1   
    37   17   44 1   
    38   18   20 1   
    39   18   45 1   
    40   18   46 1   
    41   19   47 1   
    42   19   59 1   
    43   19   61 1   
    44   20   23 1   
    45   20   48 1   
    46   20   60 1   
    47   21   23 1   
    48   21   24 1   
    49   21   49 1   
    50   22   29 1   
    51   22   53 1   
    52   25   54 1   
    53   26   32 1   
    54   27   28 1   
    55   27   29 1   
    56   27   50 1   
    57   28   30 1   
    58   28   51 1   
    59   29   52 1   
    60   29   61 1   
    61   30   31 3   
    62   32   56 1   
    63   32   57 1   
    64   32   58 1   
    65   56   64 1   
    66   56   65 1   
    67   56   66 1   
    68   57   67 1   
    69   57   68 1   
    70   57   69 1   
    71   58   70 1   
    72   58   71 1   
    73   58   72 1   
    74   61   63 1   
    75   61   73 1   
@<TRIPOS>SUBSTRUCTURE
     1 AW3         1 TEMP              0 ****  ****    0 ROOT
