@<TRIPOS>MOLECULE
AW3
   75    76     1     0     0
SMALL
bcc


@<TRIPOS>ATOM
      1 N1       -533.4700  211.9680 -632.2840 nb        1 AW3     -0.678000
      2 C2       -533.6950  211.0390 -631.3100 ca        1 AW3      0.671900
      3 N3       -534.8250  210.3280 -631.0660 nb        1 AW3     -0.605000
      4 C4       -535.8460  210.5980 -631.9180 ca        1 AW3      0.484800
      5 C5       -535.7440  211.5770 -633.0110 ca        1 AW3     -0.268400
      6 C6       -534.5040  212.2250 -633.1240 ca        1 AW3      0.514200
      7 NAD      -534.3110  213.2220 -634.1960 n4        1 AW3     -0.833300
      8 OAE       199.6850  -77.6150  244.1160 o         1 AW3     -0.289100
      9 OAF       199.1450  -84.2540  250.6460 oh        1 AW3     -0.640800
     10 OAG      -538.4490  207.2360 -629.7140 oh        1 AW3     -0.332600
     11 CAJ       200.2810  -79.3010  240.0200 ca        1 AW3     -0.093500
     12 CAK       202.5350  -78.9230  240.9070 ca        1 AW3     -0.093500
     13 CAL       200.8270  -80.0740  239.0100 ca        1 AW3     -0.111500
     14 CAM       203.0530  -79.7040  239.8850 ca        1 AW3     -0.111500
     15 CAN      -537.8370  210.6660 -633.0390 cc        1 AW3      0.049900
     16 CAO       199.5650  -81.7410  244.9240 c3        1 AW3     -0.136400
     17 CAP       198.8790  -82.0330  246.2660 c3        1 AW3      0.107800
     18 CAQ       199.4840  -80.2360  244.6730 c3        1 AW3      0.113800
     19 NAU       198.9180  -83.4670  246.6500 n4        1 AW3     -0.759000
     20 NAV       200.1610  -79.8160  243.3910 n4        1 AW3     -0.640800
     21 NAW       200.6050  -77.7450  241.9250 n4        1 AW3     -0.466200
     22 OAX       200.0300  -85.3400  248.2780 oh        1 AW3     -0.628800
     23 CAY       200.1120  -78.3210  243.2200 c         1 AW3      0.472100
     24 CBA       201.1390  -78.7140  240.9810 ca        1 AW3     -0.216400
     25 CBB      -537.0110  211.5910 -633.6880 cd        1 AW3     -0.170500
     26 CBC       202.2210  -80.2820  238.9060 ca        1 AW3      0.088700
     27 CBF       198.2930  -85.1920  250.0110 c3        1 AW3      0.098400
     28 CBG      -538.0220  208.2590 -630.4150 c1        1 AW3      0.115600
     29 CBH       198.6550  -85.1270  248.5220 c3        1 AW3      0.131100
     30 CBI      -537.6470  209.1130 -631.1670 c1        1 AW3     -0.241300
     31 NBJ      -537.1540  210.0650 -631.9710 na        1 AW3      0.056900
     32 CBK       202.7670  -81.0820  237.7540 c3        1 AW3     -0.041700
     33 H2       -532.8320  210.8410 -630.6290 h5        1 AW3      0.102100
     34 HNAD     -535.1970  213.2930 -634.7410 hn        1 AW3      0.477133
     35 HNAA     -534.0770  214.1350 -633.7870 hn        1 AW3      0.477133
     36 HOAF      199.1250  -84.4350  251.5970 ho        1 AW3      0.461000
     37 HOAG     -538.8220  207.5940 -628.8790 ho        1 AW3      0.459000
     38 HAL       200.1560  -80.5150  238.2460 ha        1 AW3      0.205500
     39 HAM       204.1520  -79.8430  239.8320 ha        1 AW3      0.205500
     40 HAN      -538.8760  210.3840 -633.2580 h4        1 AW3      0.225000
     41 HAO       199.0520  -82.3060  244.0990 hc        1 AW3      0.097200
     42 HAOA      200.6370  -82.0780  244.9610 hc        1 AW3      0.097200
     43 HAP       199.3840  -81.4430  247.0890 hx        1 AW3      0.124700
     44 HAPA      197.7940  -81.7180  246.2210 hx        1 AW3      0.124700
     45 HAQ       199.9810  -79.6720  245.5200 hx        1 AW3      0.141200
     46 HAQA      198.4040  -79.9050  244.6080 hx        1 AW3      0.141200
     47 HNAU      198.4380  -84.0410  245.9470 hn        1 AW3      0.470300
     48 HNAV      201.1520  -80.1160  243.4000 hn        1 AW3      0.495800
     49 HNAW      201.3390  -77.0420  242.1600 hn        1 AW3      0.523300
     50 HBF       198.4770  -86.2330  250.3910 h1        1 AW3      0.083700
     51 HBG       197.2190  -84.9120  250.1710 h1        1 AW3      0.083700
     52 HBH       198.0990  -85.9210  247.9480 h1        1 AW3      0.105700
     53 HBI       200.5140  -85.2830  249.1180 ho        1 AW3      0.468000
     54 BRH      -537.4220  212.6420 -635.1320 br        1 AW3      0.018300
     55 HAJ       199.1920  -79.1150  240.0270 ha        1 AW3      0.164500
     56 CAA       204.2830  -81.2180  237.8080 c3        1 AW3     -0.099767
     57 CAB       202.3880  -80.3790  236.4490 c3        1 AW3     -0.099767
     58 CAC       202.1510  -82.4790  237.7760 c3        1 AW3     -0.099767
     59 HAD3     -533.5440  212.9280 -634.8130 hn        1 AW3      0.477133
     60 HAU2      199.8990  -83.8010  246.7130 hn        1 AW3      0.470300
     61 HAV2      199.7060  -80.2680  242.5790 hn        1 AW3      0.495800
     62 HAW2      199.8040  -77.2380  241.4890 hn        1 AW3      0.523300
     63 CAR       198.2900  -83.7140  247.9930 c3        1 AW3      0.067800
     64 HAK       203.2310  -78.4470  241.6210 ha        1 AW3      0.164500
     65 HAR       197.1740  -83.6140  247.8990 hx        1 AW3      0.126200
     66 HAA       204.6290  -81.8260  236.9340 hc        1 AW3      0.061367
     67 HAAA      204.7780  -80.2180  237.7440 hc        1 AW3      0.061367
     68 HAAB      204.6070  -81.7380  238.7400 hc        1 AW3      0.061367
     69 HAB       202.8290  -79.3550  236.4090 hc        1 AW3      0.061367
     70 HABA      201.2800  -80.3080  236.3390 hc        1 AW3      0.061367
     71 HABB      202.7890  -80.9690  235.5870 hc        1 AW3      0.061367
     72 HAC       201.0400  -82.4320  237.6770 hc        1 AW3      0.061367
     73 HACA      202.5520  -83.0690  236.9130 hc        1 AW3      0.061367
     74 HACB      202.4160  -83.0120  238.7190 hc        1 AW3      0.061367
     75 HARA      198.6840  -82.9450  248.7200 hx        1 AW3      0.126200
@<TRIPOS>BOND
     1    1    2 ar  
     2    1    6 ar  
     3    2    3 ar  
     4    2   33 1   
     5    3    4 ar  
     6    4    5 ar  
     7    4   31 1   
     8    5    6 ar  
     9    5   25 1   
    10    6    7 1   
    11    7   34 1   
    12    7   35 1   
    13    7   59 1   
    14    8   23 2   
    15    9   27 1   
    16    9   36 1   
    17   10   28 1   
    18   10   37 1   
    19   11   13 ar  
    20   11   24 ar  
    21   11   55 1   
    22   12   14 ar  
    23   12   24 ar  
    24   12   64 1   
    25   13   26 ar  
    26   13   38 1   
    27   14   26 ar  
    28   14   39 1   
    29   15   25 2   
    30   15   31 1   
    31   15   40 1   
    32   16   17 1   
    33   16   18 1   
    34   16   41 1   
    35   16   42 1   
    36   17   19 1   
    37   17   43 1   
    38   17   44 1   
    39   18   20 1   
    40   18   45 1   
    41   18   46 1   
    42   19   47 1   
    43   19   60 1   
    44   19   63 1   
    45   20   23 1   
    46   20   48 1   
    47   20   61 1   
    48   21   23 1   
    49   21   24 1   
    50   21   49 1   
    51   21   62 1   
    52   22   29 1   
    53   22   53 1   
    54   25   54 1   
    55   26   32 1   
    56   27   29 1   
    57   27   50 1   
    58   27   51 1   
    59   28   30 3   
    60   29   52 1   
    61   29   63 1   
    62   30   31 1   
    63   32   56 1   
    64   32   57 1   
    65   32   58 1   
    66   56   66 1   
    67   56   67 1   
    68   56   68 1   
    69   57   69 1   
    70   57   70 1   
    71   57   71 1   
    72   58   72 1   
    73   58   73 1   
    74   58   74 1   
    75   63   65 1   
    76   63   75 1   
@<TRIPOS>SUBSTRUCTURE
     1 AW3         1 TEMP              0 ****  ****    0 ROOT
