@<TRIPOS>MOLECULE
AW3
   71    74     1     0     0
SMALL
bcc


@<TRIPOS>ATOM
      1 N1         -8.2320    1.2050    0.7640 nb        1 AW3     -0.796000
      2 C2         -8.1180   -0.1480    0.7270 ca        1 AW3      0.690900
      3 N3         -7.0130   -0.9220    0.6490 nb        1 AW3     -0.770000
      4 C4         -5.8540   -0.1910    0.6060 ca        1 AW3      0.471800
      5 C5         -5.8090    1.2600    0.6330 ca        1 AW3     -0.357400
      6 C6         -7.0680    1.9400    0.7120 ca        1 AW3      0.756200
      7 NAD        -7.1250    3.3090    0.7220 nh        1 AW3     -0.965500
      8 OAE         5.4120   -1.3010   -0.8720 o         1 AW3     -0.615100
      9 OAF        -3.4240   -4.6700   -1.7380 oh        1 AW3     -0.575800
     10 OAG        -5.3940   -4.0210   -0.2150 oh        1 AW3     -0.595800
     11 CAJ         7.6420    0.3520   -0.4100 ca        1 AW3     -0.157000
     12 CAK         8.5680   -0.3120    1.7300 ca        1 AW3     -0.157000
     13 CAL         8.8630    0.9270   -0.7390 ca        1 AW3     -0.107500
     14 CAM         9.7790    0.2770    1.3830 ca        1 AW3     -0.107500
     15 CAN        -3.6760    0.4450    0.5100 cc        1 AW3     -0.060100
     16 CAO         1.9730   -1.5680    0.1830 c3        1 AW3     -0.118400
     17 CAP         0.8430   -2.0890   -0.7020 c3        1 AW3      0.163800
     18 CAQ         3.1490   -2.5430    0.1110 c3        1 AW3      0.072000
     19 NAU        -0.3150   -1.2140   -0.7110 n3        1 AW3     -0.813200
     20 NAV         4.2800   -2.2040    0.9380 n         1 AW3     -0.534900
     21 NAW         6.2370   -0.8190    1.2580 n         1 AW3     -0.457100
     22 OAX        -2.7680   -2.2410    0.5800 os        1 AW3     -0.413600
     23 CAY         5.3180   -1.4230    0.3710 c         1 AW3      0.745100
     24 CBA         7.4710   -0.2820    0.8390 ca        1 AW3      0.055600
     25 CBB        -4.4170    1.6290    0.5710 cd        1 AW3     -0.097500
     26 CBC         9.9510    0.9040    0.1450 ca        1 AW3     -0.085300
     27 CBF        -3.4900   -3.2890   -1.4810 c3        1 AW3      0.133100
     28 CBG        -4.7390   -2.8610   -0.6800 c3        1 AW3      0.083100
     29 CBH        -2.2850   -2.8040   -0.6510 c3        1 AW3      0.052100
     30 CBI        -4.1850   -2.0660    0.5490 c3        1 AW3      0.224800
     31 NBJ        -4.5320   -0.6590    0.5270 na        1 AW3     -0.189100
     32 CBK        11.2490    1.5460   -0.2640 c3        1 AW3     -0.006700
     33 H2         -9.0850   -0.6960    0.7690 h5        1 AW3      0.050100
     34 HAA        11.9900    1.9350    1.7540 hc        1 AW3      0.036478
     35 HAAA       12.5440    0.3590    1.0340 hc        1 AW3      0.036478
     36 HAAB       13.2610    1.9220    0.4640 hc        1 AW3      0.036478
     37 HAB        10.6290    3.5390    0.3680 hc        1 AW3      0.036478
     38 HABA       11.9740    3.5140   -0.8490 hc        1 AW3      0.036478
     39 HABB       10.2750    3.1600   -1.3700 hc        1 AW3      0.036478
     40 HAC        12.7370    1.3390   -1.8390 hc        1 AW3      0.036478
     41 HACA       11.9450   -0.2160   -1.3430 hc        1 AW3      0.036478
     42 HACB       11.0400    0.9780   -2.3640 hc        1 AW3      0.036478
     43 HNAD       -7.9920    3.7770    0.8120 hn        1 AW3      0.448300
     44 HNAA       -6.2810    3.8270    0.7350 hn        1 AW3      0.448300
     45 HOAF       -3.6590   -5.1420   -0.9270 ho        1 AW3      0.425000
     46 HOAG       -6.2730   -3.7470    0.0790 ho        1 AW3      0.436000
     47 HAK         8.4770   -0.7980    2.7130 ha        1 AW3      0.147500
     48 HAL         8.9690    1.4120   -1.7220 ha        1 AW3      0.134500
     49 HAM        10.6040    0.2320    2.1100 ha        1 AW3      0.134500
     50 HAN        -2.5930    0.2980    0.4580 h4        1 AW3      0.195000
     51 HAO         2.2950   -0.5530   -0.1670 hc        1 AW3      0.053700
     52 HAOA        1.6180   -1.4680    1.2420 hc        1 AW3      0.053700
     53 HAP         1.2150   -2.1610   -1.7640 h1        1 AW3      0.033700
     54 HAPA        0.5820   -3.1370   -0.3670 h1        1 AW3      0.033700
     55 HAQ         2.8020   -3.5620    0.4510 h1        1 AW3      0.071700
     56 HAQA        3.4930   -2.6270   -0.9610 h1        1 AW3      0.071700
     57 HNAU       -0.5670   -0.9520    0.2260 hn        1 AW3      0.365800
     58 HNAV        4.0470   -2.0160    1.8880 hn        1 AW3      0.286500
     59 HNAW        6.2370   -1.1460    2.2010 hn        1 AW3      0.304500
     60 HBF        -3.4970   -2.8130   -2.5010 h1        1 AW3      0.095700
     61 HBG        -5.4270   -2.2440   -1.3150 h1        1 AW3      0.084700
     62 HBH        -1.6410   -3.6730   -0.3410 h1        1 AW3      0.086700
     63 HBI        -4.5700   -2.5090    1.5180 h2        1 AW3      0.105700
     64 BRH        -3.7140    3.3250    0.5710 br        1 AW3     -0.034700
     65 CAR        -1.4610   -1.7470   -1.4050 c3        1 AW3      0.149800
     66 HAJ         6.8140    0.3840   -1.1370 ha        1 AW3      0.147500
     67 CAA        12.3200    1.4310    0.8140 c3        1 AW3     -0.085767
     68 CAB        11.0160    3.0290   -0.5460 c3        1 AW3     -0.085767
     69 CAC        11.7730    0.8700   -1.5290 c3        1 AW3     -0.085767
     70 HAR        -2.1350   -0.8700   -1.6310 h1        1 AW3      0.065200
     71 HARA       -1.1290   -2.2020   -2.3800 h1        1 AW3      0.065200
@<TRIPOS>BOND
     1    1    2 ar  
     2    1    6 ar  
     3    2    3 ar  
     4    2   33 1   
     5    3    4 ar  
     6    4    5 ar  
     7    4   31 1   
     8    5    6 ar  
     9    5   25 1   
    10    6    7 1   
    11    7   43 1   
    12    7   44 1   
    13    8   23 2   
    14    9   27 1   
    15    9   45 1   
    16   10   28 1   
    17   10   46 1   
    18   11   13 ar  
    19   11   24 ar  
    20   11   66 1   
    21   12   14 ar  
    22   12   24 ar  
    23   12   47 1   
    24   13   26 ar  
    25   13   48 1   
    26   14   26 ar  
    27   14   49 1   
    28   15   25 2   
    29   15   31 1   
    30   15   50 1   
    31   16   17 1   
    32   16   18 1   
    33   16   51 1   
    34   16   52 1   
    35   17   19 1   
    36   17   53 1   
    37   17   54 1   
    38   18   20 1   
    39   18   55 1   
    40   18   56 1   
    41   19   57 1   
    42   19   65 1   
    43   20   23 1   
    44   20   58 1   
    45   21   23 1   
    46   21   24 1   
    47   21   59 1   
    48   22   29 1   
    49   22   30 1   
    50   25   64 1   
    51   26   32 1   
    52   27   28 1   
    53   27   29 1   
    54   27   60 1   
    55   28   30 1   
    56   28   61 1   
    57   29   62 1   
    58   29   65 1   
    59   30   31 1   
    60   30   63 1   
    61   32   67 1   
    62   32   68 1   
    63   32   69 1   
    64   34   67 1   
    65   35   67 1   
    66   36   67 1   
    67   37   68 1   
    68   38   68 1   
    69   39   68 1   
    70   40   69 1   
    71   41   69 1   
    72   42   69 1   
    73   65   70 1   
    74   65   71 1   
@<TRIPOS>SUBSTRUCTURE
     1 AW3         1 TEMP              0 ****  ****    0 ROOT
