@<TRIPOS>MOLECULE
AWB
   80    76     1     0     0
SMALL
bcc


@<TRIPOS>ATOM
      1 C           2.0730    1.4050    0.1160 c2        1 AWB     -0.243000
      2 N           7.5960   -1.4540    7.7600 ns        1 AWB     -0.366000
      3 O          11.0250   -2.0920    6.5740 os        1 AWB     -0.234000
      4 C1          1.9200    1.8930    1.3450 c2        1 AWB     -0.159000
      5 N1          3.6230    2.8300    9.5480 n8        1 AWB     -0.316000
      6 C2          1.2630    1.1590    2.4550 c3        1 AWB     -0.144000
      7 O2          6.0110   -2.6280    4.9900 os        1 AWB     -0.163000
      8 C3          0.1850    1.9870    3.1110 c3        1 AWB     -0.206000
      9 C4          3.6700   -1.5540    1.5020 c3        1 AWB     -0.247000
     10 O4          8.2270    0.6220    8.4620 o         1 AWB     -0.424000
     11 C5          5.1000   -1.3130    1.7280 c2        1 AWB      0.036000
     12 O5          1.7940    4.7080   10.9160 o         1 AWB     -0.250000
     13 C6          5.8600   -1.8210    2.7230 c2        1 AWB     -0.218000
     14 O6          6.2190    2.0980    9.6810 oh        1 AWB     -0.272000
     15 C7          7.3100   -1.5070    2.8090 c3        1 AWB      0.043000
     16 O7          7.3930   -0.1220    3.3190 os        1 AWB     -0.154000
     17 C8         11.9400   -1.6000    5.7300 c1        1 AWB      0.014000
     18 C9          9.7020   -1.6440    6.4760 c2        1 AWB      0.332000
     19 C10         8.9420   -1.9200    7.7600 c3        1 AWB     -0.013000
     20 C11         5.6600   -3.1740    6.1120 c1        1 AWB      0.021000
     21 C12         5.3250   -2.7130    3.7530 c2        1 AWB      0.290000
     22 C13         4.4880   -4.0170    6.3310 c3        1 AWB     -0.318000
     23 C15         5.8850    0.2970    8.0810 c2        1 AWB     -0.234000
     24 C16         5.4550    1.3590    8.8200 c2        1 AWB      0.110000
     25 C17         4.0420    1.8360    8.7370 c2        1 AWB      0.201000
     26 C18         3.2070    1.2180    7.7880 c2        1 AWB     -0.323000
     27 C19         3.6120    0.1500    7.0150 c1        1 AWB     -0.159000
     28 C20         4.9440   -0.4180    7.1780 c3        1 AWB     -0.153000
     29 C21         1.1290    5.4370   11.5540 c1        1 AWB      0.252000
     30 C22        13.2690   -2.1910    5.9660 c3        1 AWB     -0.311000
     31 C23         8.5710    0.4450    3.4680 c2        1 AWB      0.386000
     32 C24         8.6240    1.8240    4.0280 c3        1 AWB     -0.174000
     33 C25         9.2720    1.8610    5.4020 c3        1 AWB     -0.160000
     34 C26        10.9340    0.1030    3.1560 c3        1 AWB     -0.098000
     35 C27         9.4250    3.2870    5.8670 c3        1 AWB     -0.217000
     36 H           2.2800    2.9030    1.6070 ha        1 AWB      0.120000
     37 HA          1.1570   -1.7310    0.7210 ha        1 AWB      0.000500
     38 HB          0.5130   -1.6630    0.5210 ha        1 AWB      0.000500
     39 HN         11.2780   -0.3430    4.1380 h1        1 AWB      0.142667
     40 H1          1.7010    0.4140   -0.1790 ha        1 AWB      0.112500
     41 H1A         2.5600    1.9750   -0.6850 ha        1 AWB      0.112500
     42 HN1         4.2370    3.2500   10.2050 hn        1 AWB      0.254500
     43 H2          0.8200    0.1950    2.0810 hc        1 AWB      0.085500
     44 H2A         2.0410    0.8890    3.2210 hc        1 AWB      0.085500
     45 H3         -0.6170    2.2430    2.3780 hc        1 AWB      0.078667
     46 H3A         0.6090    2.9390    3.5140 hc        1 AWB      0.078667
     47 H4          3.1970   -2.1810    2.2990 hc        1 AWB      0.128667
     48 H4A         3.1230   -0.5710    1.4480 hc        1 AWB      0.128667
     49 H5          5.5790   -0.6330    0.9940 ha        1 AWB      0.134000
     50 H5A        -0.2730    1.4190    3.9550 hc        1 AWB      0.078667
     51 H6          3.5310   -2.0760    0.5180 hc        1 AWB      0.128667
     52 HO6         7.1350    1.7680    9.6950 ho        1 AWB      0.272000
     53 H7          7.8080   -1.5200    1.8050 h1        1 AWB      0.136500
     54 H8          7.8630   -2.1500    3.5460 h1        1 AWB      0.136500
     55 H10         8.9530   -3.0380    7.9170 h1        1 AWB      0.153000
     56 H11         9.5270   -1.4250    8.5940 h1        1 AWB      0.153000
     57 H13         4.5520   -4.9600    5.7240 hc        1 AWB      0.135333
     58 H13A        3.5430   -3.4930    6.0230 hc        1 AWB      0.135333
     59 H13B        4.4180   -4.2870    7.4150 hc        1 AWB      0.135333
     60 H18         2.1760    1.5890    7.6620 ha        1 AWB      0.151000
     61 H19         4.7770   -1.4710    7.5660 hc        1 AWB      0.135000
     62 H20         5.4080   -0.5160    6.1540 hc        1 AWB      0.135000
     63 H21         2.6820    3.1490    9.5030 hn        1 AWB      0.254500
     64 H22        13.3190   -2.9570    6.7790 hc        1 AWB      0.125000
     65 H22A       13.6090   -2.6570    5.0040 hc        1 AWB      0.125000
     66 H22B       13.9740   -1.3530    6.2110 hc        1 AWB      0.125000
     67 H24         9.2030    2.4660    3.3070 hc        1 AWB      0.150000
     68 H24A        7.5750    2.2280    4.0950 hc        1 AWB      0.150000
     69 H25         8.6430    1.2850    6.1360 hc        1 AWB      0.111000
     70 H26        11.0350    1.2120    3.1240 h1        1 AWB      0.142667
     71 H26A       10.2740    1.3560    5.3630 hc        1 AWB      0.111000
     72 H26B       11.4350   -0.3840    2.2820 h1        1 AWB      0.142667
     73 H27         8.4340    3.8010    5.9050 hc        1 AWB      0.092667
     74 H27A        9.8660    3.2980    6.8940 hc        1 AWB      0.092667
     75 H27B       10.0970    3.8610    5.1850 hc        1 AWB      0.092667
     76 O1          9.3440   -1.1470    5.4120 o         1 AWB     -0.364000
     77 O3          4.3990   -3.5160    3.6980 o         1 AWB     -0.282000
     78 HN3         6.9000   -2.0400    7.3260 hn        1 AWB      0.285000
     79 C14         7.2970   -0.1500    8.1140 c2        1 AWB      0.346000
     80 O8          9.5490   -0.2950    2.9840 os        1 AWB     -0.179000
@<TRIPOS>BOND
     1    1    4 1   
     2    1   40 1   
     3    1   41 1   
     4    2   19 1   
     5    2   78 1   
     6    2   79 1   
     7    3   17 1   
     8    3   18 1   
     9    4    6 1   
    10    4   36 1   
    11    5   25 1   
    12    5   42 1   
    13    5   63 1   
    14    6    8 1   
    15    6   43 1   
    16    6   44 1   
    17    7   20 1   
    18    7   21 1   
    19    8   45 1   
    20    8   46 1   
    21    8   50 1   
    22    9   11 1   
    23    9   47 1   
    24    9   48 1   
    25    9   51 1   
    26   10   79 1   
    27   11   13 1   
    28   11   49 1   
    29   12   29 1   
    30   13   15 1   
    31   13   21 1   
    32   14   24 1   
    33   14   52 1   
    34   15   16 1   
    35   15   53 1   
    36   15   54 1   
    37   16   31 1   
    38   17   30 1   
    39   18   19 1   
    40   18   76 1   
    41   19   55 1   
    42   19   56 1   
    43   20   22 1   
    44   21   77 1   
    45   22   57 1   
    46   22   58 1   
    47   22   59 1   
    48   23   24 1   
    49   23   28 1   
    50   23   79 1   
    51   24   25 1   
    52   25   26 1   
    53   26   27 1   
    54   26   60 1   
    55   27   28 1   
    56   28   61 1   
    57   28   62 1   
    58   30   64 1   
    59   30   65 1   
    60   30   66 1   
    61   31   32 1   
    62   31   80 1   
    63   32   33 1   
    64   32   67 1   
    65   32   68 1   
    66   33   35 1   
    67   33   69 1   
    68   33   71 1   
    69   34   39 1   
    70   34   70 1   
    71   34   72 1   
    72   34   80 1   
    73   35   73 1   
    74   35   74 1   
    75   35   75 1   
    76   37   38 1   
@<TRIPOS>SUBSTRUCTURE
     1 AWB         1 TEMP              0 ****  ****    0 ROOT
