@<TRIPOS>MOLECULE
AWB
   80    81     1     0     0
SMALL
bcc


@<TRIPOS>ATOM
      1 C           0.5160    0.7060   -0.9350 c3        1 AWB     -0.094100
      2 N           6.4710   -2.7770    8.4360 n4        1 AWB     -0.664800
      3 O           7.9440   -0.9360    5.9430 os        1 AWB     -0.422900
      4 C1          1.9070    0.1790   -0.6940 c3        1 AWB     -0.079400
      5 N1          4.5110    0.8530   13.1400 n         1 AWB     -0.480100
      6 C2          2.4500    0.6400    0.6420 c3        1 AWB     -0.079400
      7 O2          5.9980   -1.7170    4.8870 os        1 AWB     -0.402900
      8 C3          3.8480    0.1090    0.8780 c3        1 AWB     -0.078400
      9 C4          4.3860    0.5670    2.2170 c3        1 AWB     -0.085400
     10 O4          7.6970   -2.2090   10.2910 o         1 AWB     -0.456100
     11 C5          5.7900    0.0480    2.4410 c3        1 AWB     -0.078400
     12 O5          2.3000    1.3360   13.6680 o         1 AWB     -0.560100
     13 C6          6.3150    0.4240    3.8220 c3        1 AWB     -0.117700
     14 O6          6.7040   -0.2590   12.0090 oh        1 AWB     -0.484100
     15 C7          7.8430    0.2340    3.8820 c3        1 AWB      0.139100
     16 O7          8.4230    1.3510    3.2000 os        1 AWB     -0.448900
     17 C8          8.4350    0.2820    5.3120 c3        1 AWB      0.152100
     18 C9          7.3560   -0.8330    7.1560 c         1 AWB      0.710600
     19 C10         6.1830   -1.7970    7.3450 c3        1 AWB      0.012500
     20 C11         5.7500   -2.5210    6.0340 c3        1 AWB      0.166100
     21 C12         5.6220   -0.3900    4.8790 c         1 AWB      0.736600
     22 C13         4.2990   -2.9450    6.1210 c3        1 AWB     -0.148100
     23 C15         5.3780   -1.5120   10.3670 ca        1 AWB     -0.252600
     24 C16         5.5110   -0.6160   11.4510 ca        1 AWB      0.195100
     25 C17         4.3450   -0.0270   12.0680 ca        1 AWB      0.060600
     26 C18         3.0900   -0.3750   11.5500 ca        1 AWB     -0.085000
     27 C19         2.9740   -1.2620   10.4700 ca        1 AWB     -0.107000
     28 C20         4.0860   -1.8210    9.8820 ca        1 AWB     -0.124000
     29 C21         3.5100    1.4760   13.8780 c         1 AWB      0.674900
     30 C22         9.9460    0.2250    5.3080 c3        1 AWB     -0.117100
     31 C23         9.0360    1.1400    1.9800 c         1 AWB      0.642100
     32 C24         9.5960    2.4050    1.4110 c3        1 AWB     -0.124400
     33 C25        11.0510    2.2230    0.9960 c3        1 AWB     -0.065700
     34 C26        11.9450    2.0910    2.2110 c3        1 AWB     -0.095600
     35 C27        11.4840    3.3930    0.1390 c3        1 AWB     -0.095600
     36 H           0.1350    0.3550   -1.9250 hc        1 AWB      0.036367
     37 HA         -0.1850    0.3500   -0.1410 hc        1 AWB      0.036367
     38 HB          0.5100    1.8230   -0.9320 hc        1 AWB      0.036367
     39 HN          7.3630   -3.2550    8.2390 hn        1 AWB      0.463800
     40 H1          2.5890    0.5270   -1.5150 hc        1 AWB      0.041200
     41 H1A         1.8960   -0.9420   -0.7270 hc        1 AWB      0.041200
     42 HN1         5.4570    1.0330   13.4070 hn        1 AWB      0.343500
     43 H2          2.4620    1.7610    0.6750 hc        1 AWB      0.041200
     44 H2A         1.7700    0.2920    1.4640 hc        1 AWB      0.041200
     45 H3          3.8360   -1.0120    0.8390 hc        1 AWB      0.045200
     46 H3A         4.5280    0.4610    0.0590 hc        1 AWB      0.045200
     47 H4          3.7140    0.2050    3.0400 hc        1 AWB      0.045700
     48 H4A         4.3860    1.6880    2.2590 hc        1 AWB      0.045700
     49 H5          5.8170   -1.0670    2.3220 hc        1 AWB      0.068700
     50 H5A         6.4850    0.4800    1.6710 hc        1 AWB      0.068700
     51 H6          6.0750    1.5070    4.0330 hc        1 AWB      0.110700
     52 HO6         7.4500   -0.4880   11.4300 ho        1 AWB      0.463000
     53 H7          8.1220   -0.7440    3.3970 h1        1 AWB      0.115700
     54 H8          8.0640    1.1810    5.8730 h1        1 AWB      0.088700
     55 H10         5.3100   -1.1420    7.6820 hx        1 AWB      0.170700
     56 H11         6.4220   -3.4100    5.8350 h1        1 AWB      0.097700
     57 H13         3.9900   -3.3970    5.1450 hc        1 AWB      0.071033
     58 H13A        3.6360   -2.0650    6.3190 hc        1 AWB      0.071033
     59 H13B        4.1560   -3.7070    6.9240 hc        1 AWB      0.071033
     60 H18         2.1640    0.0490   11.9860 ha        1 AWB      0.207000
     61 H19         1.9650   -1.5080   10.0960 ha        1 AWB      0.168000
     62 H20         3.9390   -2.5180    9.0430 ha        1 AWB      0.123000
     63 H21         3.9250    2.1230   14.6870 h5        1 AWB      0.065200
     64 H22        10.3330    0.2560    6.3550 hc        1 AWB      0.067367
     65 H22A       10.3040   -0.7130    4.8180 hc        1 AWB      0.067367
     66 H22B       10.3420    1.1050    4.7430 hc        1 AWB      0.067367
     67 H24         9.5050    3.2370    2.1580 hc        1 AWB      0.087200
     68 H24A        8.9720    2.6680    0.5130 hc        1 AWB      0.087200
     69 H25        11.1270    1.2770    0.3860 hc        1 AWB      0.072700
     70 H26        12.9970    1.8930    1.8920 hc        1 AWB      0.042200
     71 H26A       11.6030    1.2430    2.8540 hc        1 AWB      0.042200
     72 H26B       11.9300    3.0280    2.8180 hc        1 AWB      0.042200
     73 H27        12.5530    3.2690   -0.1610 hc        1 AWB      0.042200
     74 H27A       11.3830    4.3530    0.7000 hc        1 AWB      0.042200
     75 H27B       10.8620    3.4530   -0.7870 hc        1 AWB      0.042200
     76 O1          7.7400   -0.0300    8.0010 o         1 AWB     -0.564500
     77 O3          4.8160   -0.0220    5.7360 o         1 AWB     -0.632500
     78 HN3         5.7200   -3.4770    8.4510 hn        1 AWB      0.463800
     79 C14         6.5710   -2.1190    9.8100 c         1 AWB      0.588700
     80 O8          9.0330   -0.0000    1.5220 o         1 AWB     -0.521000
@<TRIPOS>BOND
     1    1    4 1   
     2    1   36 1   
     3    1   37 1   
     4    1   38 1   
     5    2   19 1   
     6    2   39 1   
     7    2   78 1   
     8    2   79 1   
     9    3   17 1   
    10    3   18 1   
    11    4    6 1   
    12    4   40 1   
    13    4   41 1   
    14    5   25 1   
    15    5   29 1   
    16    5   42 1   
    17    6    8 1   
    18    6   43 1   
    19    6   44 1   
    20    7   20 1   
    21    7   21 1   
    22    8    9 1   
    23    8   45 1   
    24    8   46 1   
    25    9   11 1   
    26    9   47 1   
    27    9   48 1   
    28   10   79 2   
    29   11   13 1   
    30   11   49 1   
    31   11   50 1   
    32   12   29 2   
    33   13   15 1   
    34   13   21 1   
    35   13   51 1   
    36   14   24 1   
    37   14   52 1   
    38   15   16 1   
    39   15   17 1   
    40   15   53 1   
    41   16   31 1   
    42   17   30 1   
    43   17   54 1   
    44   18   19 1   
    45   18   76 2   
    46   19   20 1   
    47   19   55 1   
    48   20   22 1   
    49   20   56 1   
    50   21   77 2   
    51   22   57 1   
    52   22   58 1   
    53   22   59 1   
    54   23   24 ar  
    55   23   28 ar  
    56   23   79 1   
    57   24   25 ar  
    58   25   26 ar  
    59   26   27 ar  
    60   26   60 1   
    61   27   28 ar  
    62   27   61 1   
    63   28   62 1   
    64   29   63 1   
    65   30   64 1   
    66   30   65 1   
    67   30   66 1   
    68   31   32 1   
    69   31   80 2   
    70   32   33 1   
    71   32   67 1   
    72   32   68 1   
    73   33   34 1   
    74   33   35 1   
    75   33   69 1   
    76   34   70 1   
    77   34   71 1   
    78   34   72 1   
    79   35   73 1   
    80   35   74 1   
    81   35   75 1   
@<TRIPOS>SUBSTRUCTURE
     1 AWB         1 TEMP              0 ****  ****    0 ROOT
