@<TRIPOS>MOLECULE
AWF
   55    58     1     0     0
SMALL
bcc


@<TRIPOS>ATOM
      1 C13         0.8870    0.4360    0.4290 ca        1 AWF     -0.083000
      2 C14         2.1710    0.0630    0.8020 ca        1 AWF     -0.164000
      3 C6         -2.4340    0.4950    6.0020 ca        1 AWF     -0.070000
      4 C16         1.3010   -0.7450    2.9300 ca        1 AWF     -0.165000
      5 C20        -3.2660    1.8470    0.5970 cc        1 AWF      0.196900
      6 C21        -3.2840    0.7330   -0.3490 cc        1 AWF      0.196900
      7 C4         -1.8950    2.4780    7.2510 ca        1 AWF      0.454200
      8 C5         -2.8650    1.5320    6.8410 ca        1 AWF     -0.167300
      9 C10         0.0050   -0.3700    2.5630 ca        1 AWF     -0.047300
     10 C12        -0.1980    0.2290    1.3020 ca        1 AWF      0.018800
     11 C1         -1.0950    0.4390    5.6210 ca        1 AWF     -0.089200
     12 C15         2.3820   -0.5280    2.0610 ca        1 AWF      0.137900
     13 C23        -4.2350    1.6430    7.2600 cc        1 AWF     -0.159400
     14 C24        -4.7050    1.9250    8.5500 cd        1 AWF      0.355600
     15 C2         -0.1660    1.4290    6.0980 ca        1 AWF      0.654200
     16 C26        -6.6470    1.7400    7.4640 cc        1 AWF      0.380700
     17 C30        -3.8420    2.1480    9.7350 c3        1 AWF     -0.128400
     18 C11        -1.6440   -2.0800    3.2960 c3        1 AWF     -0.102100
     19 C31        -8.7840    0.6420    8.1230 c3        1 AWF     -0.116100
     20 C32        -8.7340    3.0930    7.5950 c3        1 AWF     -0.116100
     21 C9         -1.1230   -0.6670    3.5140 c3        1 AWF      0.175400
     22 C28        -8.1400    1.7270    7.2640 c3        1 AWF      0.128500
     23 N3         -0.6040    2.4520    6.9070 nb        1 AWF     -0.721000
     24 N19        -2.1320    1.7430    1.3270 nd        1 AWF     -0.474300
     25 N22        -2.1600    0.0070   -0.1480 nd        1 AWF     -0.474300
     26 N25        -6.0890    1.9800    8.6560 nd        1 AWF     -0.638000
     27 N18        -1.5140    0.6300    0.8670 na        1 AWF      0.281800
     28 N8          1.1880    1.3160    5.8100 nh        1 AWF     -0.931500
     29 O29        -8.3510    1.4320    5.8780 oh        1 AWF     -0.611800
     30 O7         -0.6140   -0.6230    4.8690 os        1 AWF     -0.335900
     31 F17         3.6310   -0.8940    2.4340 f         1 AWF     -0.131900
     32 S27        -5.5290    1.4510    6.2010 ss        1 AWF     -0.016300
     33 H13         0.7260    0.8940   -0.5610 ha        1 AWF      0.158000
     34 H14         3.0210    0.2240    0.1220 ha        1 AWF      0.159000
     35 H6         -3.1360   -0.2730    5.6420 ha        1 AWF      0.149000
     36 H16         1.4700   -1.2290    3.9070 ha        1 AWF      0.175000
     37 H20        -4.0040    2.6350    0.7310 h4        1 AWF      0.060600
     38 H21        -4.0410    0.4880   -1.0920 h4        1 AWF      0.060600
     39 H4         -2.1890    3.3250    7.9020 h4        1 AWF      0.030100
     40 H9         -1.9600    0.0750    3.4050 h1        1 AWF      0.080700
     41 H301       -4.2920    1.6960   10.6530 hc        1 AWF      0.054033
     42 H302       -2.8360    1.6910    9.5630 hc        1 AWF      0.054033
     43 H303       -3.7140    3.2460    9.9100 hc        1 AWF      0.054033
     44 H81N        1.4030    0.7520    5.0190 hn        1 AWF      0.423800
     45 H82N        1.7620    2.1130    5.9580 hn        1 AWF      0.423800
     46 H111       -0.8400   -2.8260    3.5040 hc        1 AWF      0.054033
     47 H112       -1.9890   -2.1940    2.2410 hc        1 AWF      0.054033
     48 H113       -2.4970   -2.2750    3.9900 hc        1 AWF      0.054033
     49 H311       -8.5890    0.8420    9.2030 hc        1 AWF      0.051033
     50 H312       -9.8870    0.6300    7.9490 hc        1 AWF      0.051033
     51 H313       -8.3680   -0.3570    7.8550 hc        1 AWF      0.051033
     52 H321       -9.8370    3.0750    7.4250 hc        1 AWF      0.051033
     53 H322       -8.2830    3.8760    6.9410 hc        1 AWF      0.051033
     54 H323       -8.5360    3.3490    8.6620 hc        1 AWF      0.051033
     55 H29        -9.3060    1.4220    5.7420 ho        1 AWF      0.412000
@<TRIPOS>BOND
     1    1    2 ar  
     2    1   10 ar  
     3    1   33 1   
     4    2   12 ar  
     5    2   34 1   
     6    3    8 ar  
     7    3   11 ar  
     8    3   35 1   
     9    4    9 ar  
    10    4   12 ar  
    11    4   36 1   
    12    5    6 1   
    13    5   24 2   
    14    5   37 1   
    15    6   25 2   
    16    6   38 1   
    17    7    8 ar  
    18    7   23 ar  
    19    7   39 1   
    20    8   13 1   
    21    9   10 ar  
    22    9   21 1   
    23   10   27 1   
    24   11   15 ar  
    25   11   30 1   
    26   12   31 1   
    27   13   14 2   
    28   13   32 1   
    29   14   17 1   
    30   14   26 1   
    31   15   23 ar  
    32   15   28 1   
    33   16   22 1   
    34   16   26 2   
    35   16   32 1   
    36   17   41 1   
    37   17   42 1   
    38   17   43 1   
    39   18   21 1   
    40   18   46 1   
    41   18   47 1   
    42   18   48 1   
    43   19   22 1   
    44   19   49 1   
    45   19   50 1   
    46   19   51 1   
    47   20   22 1   
    48   20   52 1   
    49   20   53 1   
    50   20   54 1   
    51   21   30 1   
    52   21   40 1   
    53   22   29 1   
    54   24   27 1   
    55   25   27 1   
    56   28   44 1   
    57   28   45 1   
    58   29   55 1   
@<TRIPOS>SUBSTRUCTURE
     1 AWF         1 TEMP              0 ****  ****    0 ROOT
