@<TRIPOS>MOLECULE
AWF
   55    58     1     0     0
SMALL
bcc


@<TRIPOS>ATOM
      1 C13         1.2920   -0.0720    0.4210 ca        1 AWF     -0.082000
      2 C14         2.4410   -0.5910    1.0040 ca        1 AWF     -0.164000
      3 C6         -2.6350    0.6300    5.9550 ca        1 AWF     -0.056000
      4 C16         1.2060   -0.9540    3.0740 ca        1 AWF     -0.164000
      5 C20        -2.5540    1.9780   -0.1310 cc        1 AWF      0.196400
      6 C21        -2.6130    0.7900   -0.9800 cc        1 AWF      0.196400
      7 C4         -2.0960    2.6710    7.1100 ca        1 AWF      0.458200
      8 C5         -3.0450    1.6650    6.8090 ca        1 AWF     -0.173300
      9 C10         0.0450   -0.4310    2.4960 ca        1 AWF     -0.038300
     10 C12         0.0950    0.0150    1.1580 ca        1 AWF      0.018800
     11 C1         -1.3400    0.6460    5.4420 ca        1 AWF     -0.099200
     12 C15         2.4000   -1.0330    2.3380 ca        1 AWF      0.136900
     13 C23        -4.3730    1.7070    7.3570 cc        1 AWF     -0.159400
     14 C24        -4.7320    1.9830    8.6840 cd        1 AWF      0.353600
     15 C2         -0.4420    1.7200    5.7770 ca        1 AWF      0.657200
     16 C26        -6.7550    1.6770    7.7910 cc        1 AWF      0.379700
     17 C30        -3.7740    2.2690    9.7780 c3        1 AWF     -0.127400
     18 C11        -2.0680   -1.6310    3.0340 c3        1 AWF     -0.105100
     19 C31        -8.7590    0.4860    8.6710 c3        1 AWF     -0.115600
     20 C32        -8.8900    2.9240    8.0960 c3        1 AWF     -0.115600
     21 C9         -1.2220   -0.3970    3.3070 c3        1 AWF      0.176400
     22 C28        -8.2580    1.5820    7.7350 c3        1 AWF      0.128500
     23 N3         -0.8470    2.7150    6.6390 nb        1 AWF     -0.724000
     24 N19        -1.5660    1.7860    0.7730 nd        1 AWF     -0.473300
     25 N22        -1.6580   -0.0660   -0.5500 nd        1 AWF     -0.473300
     26 N25        -6.1010    1.9650    8.9220 nd        1 AWF     -0.638000
     27 N18        -1.0730    0.5540    0.5030 na        1 AWF      0.282800
     28 N8          0.8100    1.7900    5.1890 nv        1 AWF     -0.938500
     29 O29        -8.5830    1.2450    6.3810 oh        1 AWF     -0.611800
     30 O7         -0.8680   -0.4340    4.7130 os        1 AWF     -0.344900
     31 F17         3.5140   -1.5390    2.9170 f         1 AWF     -0.133900
     32 S27        -5.7490    1.4310    6.4300 ss        1 AWF     -0.011300
     33 H13         1.3270    0.2670   -0.6270 ha        1 AWF      0.158000
     34 H14         3.3770   -0.6610    0.4310 ha        1 AWF      0.158000
     35 H6         -3.3150   -0.1950    5.6940 ha        1 AWF      0.151000
     36 H16         1.1790   -1.3240    4.1120 ha        1 AWF      0.172000
     37 H20        -3.1700    2.8740   -0.1750 h4        1 AWF      0.060600
     38 H21        -3.2850    0.5830   -1.8100 h4        1 AWF      0.060600
     39 H4         -2.3700    3.5020    7.7880 h4        1 AWF      0.030100
     40 H9         -1.8090    0.5380    3.0950 h1        1 AWF      0.086700
     41 H301       -3.6900    3.3750    9.9290 hc        1 AWF      0.053367
     42 H302       -2.7650    1.8640    9.5150 hc        1 AWF      0.053367
     43 H303       -4.1090    1.8080   10.7400 hc        1 AWF      0.053367
     44 H81N        1.1470    0.9400    4.7950 hn        1 AWF      0.427300
     45 H82N        1.4830    2.4020    5.5850 hn        1 AWF      0.427300
     46 H111       -2.3140   -1.6910    1.9480 hc        1 AWF      0.052367
     47 H112       -3.0140   -1.5720    3.6250 hc        1 AWF      0.052367
     48 H113       -1.5180   -2.5540    3.3380 hc        1 AWF      0.052367
     49 H311       -8.3150   -0.4960    8.3840 hc        1 AWF      0.051200
     50 H312       -8.4760    0.7220    9.7240 hc        1 AWF      0.051200
     51 H313       -9.8710    0.4120    8.6020 hc        1 AWF      0.051200
     52 H321       -8.6040    3.2150    9.1340 hc        1 AWF      0.051200
     53 H322       -8.5470    3.7130    7.3870 hc        1 AWF      0.051200
     54 H323      -10.0020    2.8440    8.0350 hc        1 AWF      0.051200
     55 H29        -9.5440    1.1890    6.3360 ho        1 AWF      0.412000
@<TRIPOS>BOND
     1    1    2 ar  
     2    1   10 ar  
     3    1   33 1   
     4    2   12 ar  
     5    2   34 1   
     6    3    8 ar  
     7    3   11 ar  
     8    3   35 1   
     9    4    9 ar  
    10    4   12 ar  
    11    4   36 1   
    12    5    6 1   
    13    5   24 2   
    14    5   37 1   
    15    6   25 2   
    16    6   38 1   
    17    7    8 ar  
    18    7   23 ar  
    19    7   39 1   
    20    8   13 1   
    21    9   10 ar  
    22    9   21 1   
    23   10   27 1   
    24   11   15 ar  
    25   11   30 1   
    26   12   31 1   
    27   13   14 2   
    28   13   32 1   
    29   14   17 1   
    30   14   26 1   
    31   15   23 ar  
    32   15   28 1   
    33   16   22 1   
    34   16   26 2   
    35   16   32 1   
    36   17   41 1   
    37   17   42 1   
    38   17   43 1   
    39   18   21 1   
    40   18   46 1   
    41   18   47 1   
    42   18   48 1   
    43   19   22 1   
    44   19   49 1   
    45   19   50 1   
    46   19   51 1   
    47   20   22 1   
    48   20   52 1   
    49   20   53 1   
    50   20   54 1   
    51   21   30 1   
    52   21   40 1   
    53   22   29 1   
    54   24   27 1   
    55   25   27 1   
    56   28   44 1   
    57   28   45 1   
    58   29   55 1   
@<TRIPOS>SUBSTRUCTURE
     1 AWF         1 TEMP              0 ****  ****    0 ROOT
