@<TRIPOS>MOLECULE
AWF
   56    59     1     0     0
SMALL
bcc


@<TRIPOS>ATOM
      1 C13         0.9070    0.0740    0.4610 ca        1 AWF     -0.083000
      2 C14         1.6530   -1.0870    0.3010 ca        1 AWF     -0.142000
      3 C6         -2.4800    0.7730    5.7660 ca        1 AWF     -0.166000
      4 C16         0.6430   -1.9950    2.3290 ca        1 AWF     -0.147000
      5 C20        -1.2220    3.4330    2.3160 cc        1 AWF      0.215400
      6 C21        -1.9410    3.1060    1.0860 cc        1 AWF      0.215400
      7 C4         -2.2530    2.8840    6.9290 ca        1 AWF      0.398200
      8 C5         -3.0600    1.7580    6.5710 ca        1 AWF      0.019700
      9 C10        -0.1300   -0.8440    2.4820 ca        1 AWF     -0.068300
     10 C12         0.0300    0.2100    1.5550 ca        1 AWF      0.008800
     11 C1         -1.1440    0.9150    5.3550 ca        1 AWF      0.100800
     12 C15         1.5310   -2.1240    1.2440 ca        1 AWF      0.152900
     13 C23        -4.4180    1.6560    7.0110 cc        1 AWF     -0.272400
     14 C24        -4.9420    2.0410    8.2620 cd        1 AWF      0.422600
     15 C2         -0.4390    2.0830    5.7530 ca        1 AWF      0.377200
     16 C26        -6.7950    1.2820    7.2700 cc        1 AWF      0.427700
     17 C30        -4.1580    2.6100    9.3840 c3        1 AWF     -0.145400
     18 C11        -1.5450   -2.1040    4.1590 c3        1 AWF     -0.126100
     19 C31        -8.6810   -0.0810    8.1610 c3        1 AWF     -0.118600
     20 C32        -9.1110    2.1960    7.1970 c3        1 AWF     -0.118600
     21 C9         -1.1220   -0.7550    3.6090 c3        1 AWF      0.204400
     22 C28        -8.2560    0.9360    7.1080 c3        1 AWF      0.121500
     23 N3         -0.9920    3.0520    6.5430 nb        1 AWF     -0.624000
     24 N19        -0.4620    2.3620    2.6420 nd        1 AWF     -0.509300
     25 N22        -1.5810    1.8540    0.7280 nd        1 AWF     -0.509300
     26 N25        -6.3030    1.8220    8.3960 nd        1 AWF     -0.636000
     27 N18        -0.7200    1.4370    1.6860 na        1 AWF      0.288800
     28 N8          0.9440    2.2840    5.2930 n4        1 AWF     -0.790300
     29 O29        -8.3640    0.3610    5.8010 oh        1 AWF     -0.619800
     30 O7         -0.4270   -0.0270    4.6660 os        1 AWF     -0.358900
     31 F17         2.2650   -3.2490    1.1110 f         1 AWF     -0.112900
     32 S27        -5.6420    1.0230    6.0410 ss        1 AWF      0.028700
     33 H13         1.0030    0.8820   -0.2840 ha        1 AWF      0.170000
     34 H14         2.3360   -1.2010   -0.5560 ha        1 AWF      0.176000
     35 H6         -3.0560   -0.1170    5.4640 ha        1 AWF      0.178000
     36 H16         0.5670   -2.8280    3.0470 ha        1 AWF      0.170000
     37 H20        -1.2700    4.3560    2.8930 h4        1 AWF      0.071100
     38 H21        -2.6490    3.7210    0.5290 h4        1 AWF      0.071100
     39 H4         -2.6730    3.6960    7.5580 h4        1 AWF      0.065100
     40 H9         -2.0330   -0.1760    3.2880 h1        1 AWF      0.081700
     41 H301       -4.5760    2.2910   10.3730 hc        1 AWF      0.065033
     42 H302       -4.1930    3.7280    9.3390 hc        1 AWF      0.065033
     43 H303       -3.0940    2.2730    9.3220 hc        1 AWF      0.065033
     44 H81N        1.5880    2.2370    6.0880 hn        1 AWF      0.470467
     45 H82N        1.1670    1.5410    4.6140 hn        1 AWF      0.470467
     46 H111       -1.8100   -2.7870    3.3150 hc        1 AWF      0.065367
     47 H112       -0.7260   -2.5640    4.7630 hc        1 AWF      0.065367
     48 H113       -2.4380   -1.9910    4.8190 hc        1 AWF      0.065367
     49 H311       -9.7560   -0.3460    8.0100 hc        1 AWF      0.058533
     50 H312       -8.5560    0.3460    9.1840 hc        1 AWF      0.058533
     51 H313       -8.0690   -1.0090    8.0730 hc        1 AWF      0.058533
     52 H321       -8.8200    2.9190    6.3990 hc        1 AWF      0.058533
     53 H322       -8.9840    2.6780    8.1950 hc        1 AWF      0.058533
     54 H323      -10.1860    1.9270    7.0610 hc        1 AWF      0.058533
     55 H29        -9.2940    0.1400    5.6710 ho        1 AWF      0.428000
     56 H83         1.0290    3.1990    4.8350 hn        1 AWF      0.470467
@<TRIPOS>BOND
     1    1    2 ar  
     2    1   10 ar  
     3    1   33 1   
     4    2   12 ar  
     5    2   34 1   
     6    3    8 ar  
     7    3   11 ar  
     8    3   35 1   
     9    4    9 ar  
    10    4   12 ar  
    11    4   36 1   
    12    5    6 1   
    13    5   24 2   
    14    5   37 1   
    15    6   25 2   
    16    6   38 1   
    17    7    8 ar  
    18    7   23 ar  
    19    7   39 1   
    20    8   13 1   
    21    9   10 ar  
    22    9   21 1   
    23   10   27 1   
    24   11   15 ar  
    25   11   30 1   
    26   12   31 1   
    27   13   14 2   
    28   13   32 1   
    29   14   17 1   
    30   14   26 1   
    31   15   23 ar  
    32   15   28 1   
    33   16   22 1   
    34   16   26 2   
    35   16   32 1   
    36   17   41 1   
    37   17   42 1   
    38   17   43 1   
    39   18   21 1   
    40   18   46 1   
    41   18   47 1   
    42   18   48 1   
    43   19   22 1   
    44   19   49 1   
    45   19   50 1   
    46   19   51 1   
    47   20   22 1   
    48   20   52 1   
    49   20   53 1   
    50   20   54 1   
    51   21   30 1   
    52   21   40 1   
    53   22   29 1   
    54   24   27 1   
    55   25   27 1   
    56   28   44 1   
    57   28   45 1   
    58   28   56 1   
    59   29   55 1   
@<TRIPOS>SUBSTRUCTURE
     1 AWF         1 TEMP              0 ****  ****    0 ROOT
