@<TRIPOS>MOLECULE
AWH
   43    45     1     0     0
SMALL
bcc


@<TRIPOS>ATOM
      1 O5         -7.8150   -0.8540   -0.8210 o         1 AWH     -0.834800
      2 C19        -7.4970    0.1820   -0.1710 c         1 AWH      0.908200
      3 O6         -8.3180    1.0860    0.1590 o         1 AWH     -0.834800
      4 C18        -6.0430    0.3550    0.2450 ca        1 AWH     -0.133600
      5 C17        -5.6560    1.4940    0.9580 ca        1 AWH     -0.102000
      6 C16        -4.3300    1.6570    1.3490 ca        1 AWH     -0.160000
      7 C15        -3.3740    0.6970    1.0300 ca        1 AWH     -0.171000
      8 C20        -5.0950   -0.6150   -0.0780 ca        1 AWH     -0.070000
      9 C14        -3.7400   -0.4600    0.3050 ca        1 AWH      0.110400
     10 N2         -2.8580   -1.5000   -0.0290 ne        1 AWH     -0.598100
     11 C13        -1.5690   -1.3940   -0.0970 cd        1 AWH      0.499800
     12 N1         -0.7440   -2.4970   -0.4420 n         1 AWH     -0.411300
     13 C1         -1.2830   -3.7880   -0.7390 c3        1 AWH      0.100300
     14 S          -0.5360    0.0280    0.1750 ss        1 AWH     -0.192800
     15 C3          0.9220   -0.7840   -0.1920 cc        1 AWH     -0.158600
     16 C2          0.6300   -2.2030   -0.5290 c         1 AWH      0.712700
     17 O1          1.4600   -3.0650   -0.8570 o         1 AWH     -0.606500
     18 C4          2.1880   -0.3210   -0.1850 cf        1 AWH      0.040800
     19 C5          2.6160    1.0300    0.1010 ca        1 AWH     -0.137800
     20 C10         3.9930    1.2920    0.3600 ca        1 AWH      0.192100
     21 O2          4.8390    0.2210    0.3100 os        1 AWH     -0.282900
     22 C11         6.2270    0.5000    0.5410 c3        1 AWH     -0.011600
     23 C12         7.0250   -0.8280    0.3750 c         1 AWH      0.927600
     24 O4          7.3670   -1.1510   -0.7910 o         1 AWH     -0.817800
     25 O3          7.3420   -1.4300    1.4340 o         1 AWH     -0.817800
     26 C9          4.4160    2.6030    0.6520 ca        1 AWH     -0.235000
     27 C8          3.4980    3.6450    0.6730 ca        1 AWH     -0.080000
     28 C7          2.1520    3.4050    0.4010 ca        1 AWH     -0.204000
     29 C6          1.7240    2.1110    0.1210 ca        1 AWH     -0.069000
     30 H17        -6.4240    2.2470    1.1990 ha        1 AWH      0.149000
     31 H20        -5.4320   -1.5020   -0.6400 ha        1 AWH      0.164000
     32 H16        -4.0270    2.5500    1.9140 ha        1 AWH      0.107000
     33 H15        -2.3380    0.8440    1.3790 ha        1 AWH      0.122000
     34 H11C       -1.9840   -3.7250   -1.6150 h1        1 AWH      0.048033
     35 H12C       -0.4410   -4.4910   -0.9820 h1        1 AWH      0.048033
     36 H13C       -1.8540   -4.1780    0.1460 h1        1 AWH      0.048033
     37 H4C         3.0100   -1.0390   -0.4100 ha        1 AWH      0.188000
     38 HA          0.6570    1.9490   -0.1130 ha        1 AWH      0.143000
     39 H9          5.4740    2.8070    0.8650 ha        1 AWH      0.142000
     40 H111        6.5850    1.2480   -0.2120 h1        1 AWH      0.022200
     41 H112        6.3520    0.8940    1.5820 h1        1 AWH      0.022200
     42 H8          3.8390    4.6650    0.9030 ha        1 AWH      0.114000
     43 H7          1.4290    4.2310    0.4090 ha        1 AWH      0.123000
@<TRIPOS>BOND
     1    1    2 1   
     2    2    3 1   
     3    2    4 1   
     4    4    5 ar  
     5    4    8 ar  
     6    5    6 ar  
     7    5   30 1   
     8    6    7 ar  
     9    6   32 1   
    10    7    9 ar  
    11    7   33 1   
    12    8    9 ar  
    13    8   31 1   
    14    9   10 1   
    15   10   11 2   
    16   11   12 1   
    17   11   14 1   
    18   12   13 1   
    19   12   16 1   
    20   13   34 1   
    21   13   35 1   
    22   13   36 1   
    23   14   15 1   
    24   15   16 1   
    25   15   18 2   
    26   16   17 2   
    27   18   19 1   
    28   18   37 1   
    29   19   20 ar  
    30   19   29 ar  
    31   20   21 1   
    32   20   26 ar  
    33   21   22 1   
    34   22   23 1   
    35   22   40 1   
    36   22   41 1   
    37   23   24 1   
    38   23   25 1   
    39   26   27 ar  
    40   26   39 1   
    41   27   28 ar  
    42   27   42 1   
    43   28   29 ar  
    44   28   43 1   
    45   29   38 1   
@<TRIPOS>SUBSTRUCTURE
     1 AWH         1 TEMP              0 ****  ****    0 ROOT
