@<TRIPOS>MOLECULE
AWH
   43    45     1     0     0
SMALL
bcc


@<TRIPOS>ATOM
      1 O5         -0.1700   -1.8780   -0.3590 o         1 AWH     -0.834800
      2 C19         1.0800   -1.7560   -0.2190 c         1 AWH      0.908200
      3 O6          1.7190   -2.1630    0.7940 o         1 AWH     -0.834800
      4 C18         1.8690   -1.0830   -1.3330 ca        1 AWH     -0.133600
      5 C17         3.2530   -0.9250   -1.2060 ca        1 AWH     -0.102000
      6 C16         3.9830   -0.3170   -2.2240 ca        1 AWH     -0.160000
      7 C15         3.3480    0.1450   -3.3740 ca        1 AWH     -0.171000
      8 C20         1.2220   -0.6260   -2.4810 ca        1 AWH     -0.070000
      9 C14         1.9500    0.0020   -3.5220 ca        1 AWH      0.110400
     10 N2          1.2260    0.4010   -4.6570 ne        1 AWH     -0.598100
     11 C13         1.6170    1.2820   -5.5210 cd        1 AWH      0.499800
     12 N1          0.8250    1.6310   -6.6470 n         1 AWH     -0.411300
     13 C1         -0.4520    1.0350   -6.8940 c3        1 AWH      0.100300
     14 S           3.1100    2.2480   -5.5540 ss        1 AWH     -0.192800
     15 C3          2.6920    3.1080   -6.9700 cc        1 AWH     -0.158600
     16 C2          1.3650    2.6470   -7.4590 c         1 AWH      0.712700
     17 O1          0.7610    3.0730   -8.4550 o         1 AWH     -0.606500
     18 C4          3.3850    4.0520   -7.6370 cf        1 AWH      0.040800
     19 C5          4.6680    4.6090   -7.2710 ca        1 AWH     -0.137800
     20 C10         5.4020    5.3720   -8.2240 ca        1 AWH      0.192100
     21 O2          4.8230    5.5390   -9.4500 os        1 AWH     -0.282900
     22 C11         5.5560    6.3360  -10.3920 c3        1 AWH     -0.011600
     23 C12         4.7040    6.4600  -11.6900 c         1 AWH      0.927600
     24 O4          3.8320    7.3670  -11.7220 o         1 AWH     -0.818300
     25 O3          5.0150    5.6990  -12.6430 o         1 AWH     -0.818300
     26 C9          6.6580    5.9070   -7.8790 ca        1 AWH     -0.235000
     27 C8          7.1770    5.7060   -6.6070 ca        1 AWH     -0.080000
     28 C7          6.4600    4.9780   -5.6590 ca        1 AWH     -0.204000
     29 C6          5.2220    4.4390   -5.9940 ca        1 AWH     -0.069000
     30 H17         3.7400   -1.2930   -0.2900 ha        1 AWH      0.149000
     31 H20         0.1300   -0.7670   -2.5510 ha        1 AWH      0.164000
     32 H16         5.0720   -0.1990   -2.1270 ha        1 AWH      0.107000
     33 H15         3.9600    0.5960   -4.1720 ha        1 AWH      0.122000
     34 H11C       -0.3400   -0.0770   -7.0080 h1        1 AWH      0.048033
     35 H12C       -1.1470    1.2360   -6.0350 h1        1 AWH      0.048033
     36 H13C       -0.8830    1.4680   -7.8350 h1        1 AWH      0.048033
     37 H4C         2.9470    4.4550   -8.5790 ha        1 AWH      0.188000
     38 HA          4.6620    3.8840   -5.2200 ha        1 AWH      0.143000
     39 H9          7.2330    6.4850   -8.6150 ha        1 AWH      0.142000
     40 H111        6.5290    5.8300  -10.6190 h1        1 AWH      0.022200
     41 H112        5.7300    7.3540   -9.9600 h1        1 AWH      0.022200
     42 H8          8.1600    6.1270   -6.3480 ha        1 AWH      0.114000
     43 H7          6.8680    4.8270   -4.6500 ha        1 AWH      0.123000
@<TRIPOS>BOND
     1    1    2 1   
     2    2    3 1   
     3    2    4 1   
     4    4    5 ar  
     5    4    8 ar  
     6    5    6 ar  
     7    5   30 1   
     8    6    7 ar  
     9    6   32 1   
    10    7    9 ar  
    11    7   33 1   
    12    8    9 ar  
    13    8   31 1   
    14    9   10 1   
    15   10   11 2   
    16   11   12 1   
    17   11   14 1   
    18   12   13 1   
    19   12   16 1   
    20   13   34 1   
    21   13   35 1   
    22   13   36 1   
    23   14   15 1   
    24   15   16 1   
    25   15   18 2   
    26   16   17 2   
    27   18   19 1   
    28   18   37 1   
    29   19   20 ar  
    30   19   29 ar  
    31   20   21 1   
    32   20   26 ar  
    33   21   22 1   
    34   22   23 1   
    35   22   40 1   
    36   22   41 1   
    37   23   24 1   
    38   23   25 1   
    39   26   27 ar  
    40   26   39 1   
    41   27   28 ar  
    42   27   42 1   
    43   28   29 ar  
    44   28   43 1   
    45   29   38 1   
@<TRIPOS>SUBSTRUCTURE
     1 AWH         1 TEMP              0 ****  ****    0 ROOT
