@<TRIPOS>MOLECULE
AWH
   43    45     1     0     0
SMALL
bcc


@<TRIPOS>ATOM
      1 O5         -0.1310   -1.9130   -0.3650 o         1 AWH     -0.834800
      2 C19         1.1180   -1.7840   -0.2270 c         1 AWH      0.908200
      3 O6          1.7600   -2.1870    0.7850 o         1 AWH     -0.834800
      4 C18         1.9010   -1.1040   -1.3410 ca        1 AWH     -0.133600
      5 C17         3.2840   -0.9370   -1.2160 ca        1 AWH     -0.102000
      6 C16         4.0090   -0.3230   -2.2340 ca        1 AWH     -0.160000
      7 C15         3.3690    0.1360   -3.3820 ca        1 AWH     -0.171000
      8 C20         1.2500   -0.6500   -2.4870 ca        1 AWH     -0.070000
      9 C14         1.9730   -0.0160   -3.5290 ca        1 AWH      0.110400
     10 N2          1.2450    0.3800   -4.6630 ne        1 AWH     -0.598100
     11 C13         1.6290    1.2660   -5.5250 cd        1 AWH      0.499800
     12 N1          0.8340    1.6100   -6.6500 n         1 AWH     -0.411300
     13 C1         -0.4380    1.0040   -6.8980 c3        1 AWH      0.100300
     14 S           3.1140    2.2440   -5.5560 ss        1 AWH     -0.192800
     15 C3          2.6880    3.1030   -6.9690 cc        1 AWH     -0.158600
     16 C2          1.3650    2.6320   -7.4590 c         1 AWH      0.712700
     17 O1          0.7570    3.0560   -8.4540 o         1 AWH     -0.606500
     18 C4          3.3720    4.0560   -7.6340 cf        1 AWH      0.040800
     19 C5          4.6510    4.6220   -7.2660 ca        1 AWH     -0.137800
     20 C10         5.3780    5.3950   -8.2170 ca        1 AWH      0.192100
     21 O2          4.7990    5.5590   -9.4430 os        1 AWH     -0.282900
     22 C11         5.5250    6.3650  -10.3830 c3        1 AWH     -0.011600
     23 C12         4.6710    6.4850  -11.6810 c         1 AWH      0.927600
     24 O4          3.7920    7.3850  -11.7110 o         1 AWH     -0.818300
     25 O3          4.9890    5.7280  -12.6350 o         1 AWH     -0.818300
     26 C9          6.6300    5.9390   -7.8710 ca        1 AWH     -0.235000
     27 C8          7.1500    5.7400   -6.5990 ca        1 AWH     -0.080000
     28 C7          6.4390    5.0030   -5.6530 ca        1 AWH     -0.204000
     29 C6          5.2060    4.4540   -5.9900 ca        1 AWH     -0.069000
     30 H17         3.7740   -1.3030   -0.3000 ha        1 AWH      0.149000
     31 H20         0.1590   -0.7980   -2.5570 ha        1 AWH      0.164000
     32 H16         5.0970   -0.1980   -2.1370 ha        1 AWH      0.107000
     33 H15         3.9770    0.5920   -4.1800 ha        1 AWH      0.122000
     34 H11C       -0.3170   -0.1070   -7.0150 h1        1 AWH      0.048033
     35 H12C       -1.1360    1.1980   -6.0390 h1        1 AWH      0.048033
     36 H13C       -0.8730    1.4350   -7.8390 h1        1 AWH      0.048033
     37 H4C         2.9320    4.4570   -8.5750 ha        1 AWH      0.188000
     38 HA          4.6510    3.8920   -5.2170 ha        1 AWH      0.143000
     39 H9          7.2000    6.5250   -8.6050 ha        1 AWH      0.142000
     40 H111        6.5010    5.8680  -10.6110 h1        1 AWH      0.022200
     41 H112        5.6890    7.3830   -9.9480 h1        1 AWH      0.022200
     42 H8          8.1290    6.1680   -6.3380 ha        1 AWH      0.114000
     43 H7          6.8480    4.8530   -4.6440 ha        1 AWH      0.123000
@<TRIPOS>BOND
     1    1    2 1   
     2    2    3 1   
     3    2    4 1   
     4    4    5 ar  
     5    4    8 ar  
     6    5    6 ar  
     7    5   30 1   
     8    6    7 ar  
     9    6   32 1   
    10    7    9 ar  
    11    7   33 1   
    12    8    9 ar  
    13    8   31 1   
    14    9   10 1   
    15   10   11 2   
    16   11   12 1   
    17   11   14 1   
    18   12   13 1   
    19   12   16 1   
    20   13   34 1   
    21   13   35 1   
    22   13   36 1   
    23   14   15 1   
    24   15   16 1   
    25   15   18 2   
    26   16   17 2   
    27   18   19 1   
    28   18   37 1   
    29   19   20 ar  
    30   19   29 ar  
    31   20   21 1   
    32   20   26 ar  
    33   21   22 1   
    34   22   23 1   
    35   22   40 1   
    36   22   41 1   
    37   23   24 1   
    38   23   25 1   
    39   26   27 ar  
    40   26   39 1   
    41   27   28 ar  
    42   27   42 1   
    43   28   29 ar  
    44   28   43 1   
    45   29   38 1   
@<TRIPOS>SUBSTRUCTURE
     1 AWH         1 TEMP              0 ****  ****    0 ROOT
