@<TRIPOS>MOLECULE
AWH
   43    38     1     0     0
SMALL
bcc


@<TRIPOS>ATOM
      1 O5         -3.4120   -3.9210    5.1930 o         1 AWH     -0.574000
      2 C19        -2.1970   -3.6540    5.3860 c1        1 AWH      0.357000
      3 O6         -1.7970   -3.3380    6.5380 os        1 AWH     -0.564000
      4 C18        -1.2110   -3.7490    4.2430 c2        1 AWH     -0.103000
      5 C17        -0.6700   -4.9770    3.8980 c2        1 AWH     -0.114000
      6 C16         0.2900   -5.0560    2.9000 c1        1 AWH     -0.160000
      7 C15         0.7080   -3.9070    2.2490 c1        1 AWH     -0.170000
      8 C20        -0.7920   -2.5990    3.5920 c1        1 AWH     -0.096000
      9 C14         0.1680   -2.6770    2.5950 c1        1 AWH     -0.034000
     10 N2          0.6900   -1.4900    2.0220 n2        1 AWH     -0.170000
     11 C13         0.2650   -1.0850    0.8570 c1        1 AWH     -0.013000
     12 N1         -0.7760   -1.7740   -0.0000 n2        1 AWH     -0.324000
     13 C1         -1.5920   -2.8720    0.3970 c3        1 AWH     -0.073000
     14 S           0.7600    0.2470    0.0680 ss        1 AWH      0.340000
     15 C3          0.0530    0.2460   -1.3530 c2        1 AWH     -0.387000
     16 C2         -0.8210   -1.0280   -1.4420 c2        1 AWH      0.348000
     17 O1         -1.5050   -1.3550   -2.3900 o         1 AWH     -0.327000
     18 C4          0.2900    1.1150   -2.3550 c1        1 AWH      0.027000
     19 C5          1.3100    2.2160   -2.1750 c1        1 AWH     -0.126000
     20 C10         0.8990    3.5380   -2.1120 c2        1 AWH      0.148000
     21 O2         -0.4490    3.8630   -2.3230 os        1 AWH     -0.165000
     22 C11        -0.6530    4.8250   -3.3290 c3        1 AWH     -0.113000
     23 C12        -2.1360    5.0390   -3.5300 c2        1 AWH      0.347000
     24 O4         -2.7840    4.2800   -4.2960 o         1 AWH     -0.552000
     25 O3         -2.7140    6.0050   -2.9660 o         1 AWH     -0.552000
     26 C9          1.8330    4.5460   -1.9280 c1        1 AWH     -0.234000
     27 C8          3.1780    4.2310   -1.8060 c1        1 AWH     -0.142500
     28 C7          3.5880    2.9100   -1.8690 c1        1 AWH     -0.142500
     29 C6          2.6550    1.9020   -2.0540 c1        1 AWH     -0.071000
     30 H17        -0.9330   -5.7810    4.3860 ha        1 AWH      0.149000
     31 H20        -1.1820   -1.7360    3.8270 ha        1 AWH      0.162000
     32 H16         0.6950   -5.9160    2.6810 ha        1 AWH      0.104000
     33 H15         1.3860   -3.9620    1.5490 ha        1 AWH      0.115000
     34 H11C       -1.8050   -2.7920    1.3520 h1        1 AWH      0.094333
     35 H12C       -2.4230   -2.8680   -0.1260 h1        1 AWH      0.094333
     36 H13C       -1.1090   -3.7120    0.2390 h1        1 AWH      0.094333
     37 H4C        -0.1840    1.0220   -3.2040 ha        1 AWH      0.189000
     38 HA          2.9460    0.9730   -2.1210 ha        1 AWH      0.140000
     39 H9          1.5440    5.4770   -1.8830 ha        1 AWH      0.143000
     40 H111       -0.2520    4.5120   -4.1660 h1        1 AWH      0.061500
     41 H112       -0.2340    5.6690   -3.0630 h1        1 AWH      0.061500
     42 H8          3.8360    4.9420   -1.6760 ha        1 AWH      0.117500
     43 H7          4.5370    2.6900   -1.8040 ha        1 AWH      0.117500
@<TRIPOS>BOND
     1    1    2 1   
     2    2    4 1   
     3    4    5 1   
     4    4    8 1   
     5    5    6 1   
     6    5   30 1   
     7    6   32 1   
     8    7    9 1   
     9    7   33 1   
    10    8   31 1   
    11    9   10 1   
    12   10   11 1   
    13   11   14 1   
    14   12   13 1   
    15   12   16 1   
    16   13   34 1   
    17   13   35 1   
    18   13   36 1   
    19   14   15 1   
    20   15   16 1   
    21   15   18 1   
    22   16   17 1   
    23   18   37 1   
    24   19   20 1   
    25   19   29 1   
    26   20   21 1   
    27   20   26 1   
    28   21   22 1   
    29   22   23 1   
    30   22   40 1   
    31   22   41 1   
    32   23   24 1   
    33   23   25 1   
    34   26   39 1   
    35   27   28 1   
    36   27   42 1   
    37   28   43 1   
    38   29   38 1   
@<TRIPOS>SUBSTRUCTURE
     1 AWH         1 TEMP              0 ****  ****    0 ROOT
