@<TRIPOS>MOLECULE
AWH
   43    45     1     0     0
SMALL
bcc


@<TRIPOS>ATOM
      1 O5         -0.1400   -1.9230   -0.3790 o         1 AWH     -0.834800
      2 C19         1.1080   -1.7880   -0.2340 c         1 AWH      0.908200
      3 O6          1.7470   -2.1880    0.7820 o         1 AWH     -0.834800
      4 C18         1.8940   -1.1060   -1.3450 ca        1 AWH     -0.133600
      5 C17         3.2750   -0.9320   -1.2130 ca        1 AWH     -0.102000
      6 C16         4.0030   -0.3170   -2.2280 ca        1 AWH     -0.160000
      7 C15         3.3670    0.1380   -3.3790 ca        1 AWH     -0.171000
      8 C20         1.2470   -0.6560   -2.4950 ca        1 AWH     -0.070000
      9 C14         1.9720   -0.0200   -3.5330 ca        1 AWH      0.110400
     10 N2          1.2480    0.3710   -4.6710 ne        1 AWH     -0.598100
     11 C13         1.6330    1.2580   -5.5320 cd        1 AWH      0.499800
     12 N1          0.8420    1.5980   -6.6620 n         1 AWH     -0.411300
     13 C1         -0.4260    0.9860   -6.9160 c3        1 AWH      0.100300
     14 S           3.1140    2.2430   -5.5570 ss        1 AWH     -0.192800
     15 C3          2.6910    3.0990   -6.9730 cc        1 AWH     -0.158600
     16 C2          1.3730    2.6220   -7.4700 c         1 AWH      0.712700
     17 O1          0.7680    3.0420   -8.4680 o         1 AWH     -0.606500
     18 C4          3.3750    4.0540   -7.6350 cf        1 AWH      0.040800
     19 C5          4.6490    4.6260   -7.2610 ca        1 AWH     -0.137800
     20 C10         5.3780    5.4010   -8.2100 ca        1 AWH      0.192100
     21 O2          4.8030    5.5620   -9.4380 os        1 AWH     -0.282900
     22 C11         5.5310    6.3710  -10.3750 c3        1 AWH     -0.011600
     23 C12         4.6830    6.4870  -11.6770 c         1 AWH      0.927600
     24 O4          3.8010    7.3820  -11.7120 o         1 AWH     -0.818300
     25 O3          5.0090    5.7300  -12.6300 o         1 AWH     -0.818300
     26 C9          6.6250    5.9520   -7.8570 ca        1 AWH     -0.235000
     27 C8          7.1400    5.7550   -6.5830 ca        1 AWH     -0.080000
     28 C7          6.4280    5.0160   -5.6390 ca        1 AWH     -0.204000
     29 C6          5.1990    4.4610   -5.9820 ca        1 AWH     -0.069000
     30 H17         3.7620   -1.2960   -0.2940 ha        1 AWH      0.149000
     31 H20         0.1560   -0.8090   -2.5700 ha        1 AWH      0.164000
     32 H16         5.0900   -0.1860   -2.1260 ha        1 AWH      0.107000
     33 H15         3.9770    0.5970   -4.1750 ha        1 AWH      0.122000
     34 H11C       -0.2990   -0.1240   -7.0320 h1        1 AWH      0.048033
     35 H12C       -1.1290    1.1780   -6.0610 h1        1 AWH      0.048033
     36 H13C       -0.8580    1.4150   -7.8600 h1        1 AWH      0.048033
     37 H4C         2.9380    4.4530   -8.5790 ha        1 AWH      0.188000
     38 HA          4.6420    3.8980   -5.2120 ha        1 AWH      0.143000
     39 H9          7.1970    6.5390   -8.5890 ha        1 AWH      0.142000
     40 H111        6.5110    5.8780  -10.5980 h1        1 AWH      0.022200
     41 H112        5.6880    7.3900   -9.9400 h1        1 AWH      0.022200
     42 H8          8.1160    6.1880   -6.3180 ha        1 AWH      0.114000
     43 H7          6.8320    4.8690   -4.6290 ha        1 AWH      0.123000
@<TRIPOS>BOND
     1    1    2 1   
     2    2    3 1   
     3    2    4 1   
     4    4    5 ar  
     5    4    8 ar  
     6    5    6 ar  
     7    5   30 1   
     8    6    7 ar  
     9    6   32 1   
    10    7    9 ar  
    11    7   33 1   
    12    8    9 ar  
    13    8   31 1   
    14    9   10 1   
    15   10   11 2   
    16   11   12 1   
    17   11   14 1   
    18   12   13 1   
    19   12   16 1   
    20   13   34 1   
    21   13   35 1   
    22   13   36 1   
    23   14   15 1   
    24   15   16 1   
    25   15   18 2   
    26   16   17 2   
    27   18   19 1   
    28   18   37 1   
    29   19   20 ar  
    30   19   29 ar  
    31   20   21 1   
    32   20   26 ar  
    33   21   22 1   
    34   22   23 1   
    35   22   40 1   
    36   22   41 1   
    37   23   24 1   
    38   23   25 1   
    39   26   27 ar  
    40   26   39 1   
    41   27   28 ar  
    42   27   42 1   
    43   28   29 ar  
    44   28   43 1   
    45   29   38 1   
@<TRIPOS>SUBSTRUCTURE
     1 AWH         1 TEMP              0 ****  ****    0 ROOT
