@<TRIPOS>MOLECULE
AWJ
   58    61     1     0     0
SMALL
bcc


@<TRIPOS>ATOM
      1 C1         -0.7450   -0.3770    0.3660 ca        1 AWJ     -0.083200
      2 C2          0.3980    0.4220    0.0080 ca        1 AWJ      0.644200
      3 N3          1.1920    0.9700    0.9880 nb        1 AWJ     -0.721000
      4 C4          0.8420    0.7800    2.2640 ca        1 AWJ      0.450200
      5 C5         -0.2810    0.0360    2.6960 ca        1 AWJ     -0.164300
      6 C6         -1.0800   -0.5540    1.7060 ca        1 AWJ     -0.067000
      7 O7         -1.4270   -1.0560   -0.6300 os        1 AWJ     -0.350900
      8 N8          0.6700    0.6950   -1.3290 nv        1 AWJ     -0.930500
      9 C9         -2.7770   -0.5760   -0.8560 c3        1 AWJ      0.181400
     10 C10        -2.8410    0.0590   -2.2190 ca        1 AWJ     -0.011300
     11 C11        -3.6880   -1.7920   -0.7850 c3        1 AWJ     -0.099100
     12 C12        -3.7500    1.0980   -2.5060 ca        1 AWJ     -0.165200
     13 C13        -3.7710    1.6660   -3.7920 ca        1 AWJ     -0.128000
     14 C14        -2.9210    1.2120   -4.7910 ca        1 AWJ     -0.161000
     15 C15        -2.0270    0.1630   -4.5080 ca        1 AWJ      0.134900
     16 C16        -1.9930   -0.4090   -3.2260 ca        1 AWJ     -0.161000
     17 F17        -1.1970   -0.2960   -5.4740 f         1 AWJ     -0.136900
     18 N18        -4.6680    1.5410   -1.4370 na        1 AWJ      0.056200
     19 N19        -4.3620    2.8440   -0.9370 na        1 AWJ     -0.176900
     20 C20        -5.5550    3.6390   -1.1050 cc        1 AWJ     -0.201300
     21 C21        -6.5490    2.8540   -1.6220 cd        1 AWJ     -0.201300
     22 N22        -6.0440    1.5140   -1.8140 na        1 AWJ     -0.176900
     23 C23        -0.5860   -0.1050    4.0950 cc        1 AWJ     -0.165400
     24 C24         0.3150   -0.4100    5.1270 cd        1 AWJ      0.352600
     25 N25        -0.2620   -0.4740    6.3880 nd        1 AWJ     -0.642000
     26 C26        -1.5760   -0.2230    6.2980 cc        1 AWJ      0.363700
     27 S27        -2.1330    0.0990    4.7160 ss        1 AWJ      0.015700
     28 C28         1.7640   -0.6570    4.9390 c3        1 AWJ     -0.127400
     29 C29        -2.4790   -0.2460    7.5030 c3        1 AWJ      0.135500
     30 C30        -1.8800    0.6390    8.6150 c3        1 AWJ      0.107400
     31 O31        -3.7330    0.2930    7.0850 oh        1 AWJ     -0.609800
     32 C32        -2.6680   -1.6730    8.0060 c3        1 AWJ     -0.115100
     33 O33        -2.8880    0.7660    9.6080 oh        1 AWJ     -0.619800
     34 H4          1.5090    1.2570    3.0080 h4        1 AWJ      0.029100
     35 H6         -1.9610   -1.1590    1.9720 ha        1 AWJ      0.152000
     36 HN8         0.2550    0.0610   -1.9750 hn        1 AWJ      0.420300
     37 HN8A        1.5860    1.0100   -1.5530 hn        1 AWJ      0.420300
     38 H9         -3.0550    0.1630   -0.0530 h1        1 AWJ      0.098700
     39 H11        -4.7420   -1.4740   -0.9660 hc        1 AWJ      0.052033
     40 H11A       -3.3900   -2.5490   -1.5490 hc        1 AWJ      0.052033
     41 H11B       -3.6110   -2.2570    0.2260 hc        1 AWJ      0.052033
     42 H13        -4.4660    2.4880   -4.0250 ha        1 AWJ      0.136000
     43 H14        -2.9390    1.6590   -5.7960 ha        1 AWJ      0.153000
     44 H16        -1.2980   -1.2370   -3.0120 ha        1 AWJ      0.165000
     45 HN19       -3.5630    3.2790   -1.3800 hn        1 AWJ      0.206700
     46 H20        -5.5690    4.6730   -0.7610 h4        1 AWJ      0.183000
     47 H21        -7.6000    3.0690   -1.8150 h4        1 AWJ      0.183000
     48 HN22       -6.2040    1.1970   -2.7630 hn        1 AWJ      0.206700
     49 H28         2.3410    0.2740    5.1690 hc        1 AWJ      0.053033
     50 H28A        1.9650   -0.9520    3.8800 hc        1 AWJ      0.053033
     51 H28B        2.1270   -1.4710    5.6150 hc        1 AWJ      0.053033
     52 H30        -0.9710    0.1500    9.0500 h1        1 AWJ      0.049200
     53 H30A       -1.6150    1.6470    8.2010 h1        1 AWJ      0.049200
     54 HO31       -4.2710    0.3830    7.8830 ho        1 AWJ      0.432000
     55 H32        -3.2790   -1.6540    8.9410 hc        1 AWJ      0.054367
     56 H32A       -3.1990   -2.2830    7.2370 hc        1 AWJ      0.054367
     57 H32B       -1.6790   -2.1390    8.2260 hc        1 AWJ      0.054367
     58 HO33       -2.5700    1.4170   10.2430 ho        1 AWJ      0.411000
@<TRIPOS>BOND
     1    1    2 ar  
     2    1    6 ar  
     3    1    7 1   
     4    2    3 ar  
     5    2    8 1   
     6    3    4 ar  
     7    4    5 ar  
     8    4   34 1   
     9    5    6 ar  
    10    5   23 1   
    11    6   35 1   
    12    7    9 1   
    13    8   36 1   
    14    8   37 1   
    15    9   10 1   
    16    9   11 1   
    17    9   38 1   
    18   10   12 ar  
    19   10   16 ar  
    20   11   39 1   
    21   11   40 1   
    22   11   41 1   
    23   12   13 ar  
    24   12   18 1   
    25   13   14 ar  
    26   13   42 1   
    27   14   15 ar  
    28   14   43 1   
    29   15   16 ar  
    30   15   17 1   
    31   16   44 1   
    32   18   19 1   
    33   18   22 1   
    34   19   20 1   
    35   19   45 1   
    36   20   21 2   
    37   20   46 1   
    38   21   22 1   
    39   21   47 1   
    40   22   48 1   
    41   23   24 2   
    42   23   27 1   
    43   24   25 1   
    44   24   28 1   
    45   25   26 2   
    46   26   27 1   
    47   26   29 1   
    48   28   49 1   
    49   28   50 1   
    50   28   51 1   
    51   29   30 1   
    52   29   31 1   
    53   29   32 1   
    54   30   33 1   
    55   30   52 1   
    56   30   53 1   
    57   31   54 1   
    58   32   55 1   
    59   32   56 1   
    60   32   57 1   
    61   33   58 1   
@<TRIPOS>SUBSTRUCTURE
     1 AWJ         1 TEMP              0 ****  ****    0 ROOT
