@<TRIPOS>MOLECULE
AWJ
   58    61     1     0     0
SMALL
bcc


@<TRIPOS>ATOM
      1 C1         -0.7480   -0.3810    0.3540 ca        1 AWJ     -0.083200
      2 C2          0.3960    0.4120   -0.0110 ca        1 AWJ      0.644200
      3 N3          1.1980    0.9570    0.9640 nb        1 AWJ     -0.721000
      4 C4          0.8550    0.7690    2.2420 ca        1 AWJ      0.450200
      5 C5         -0.2680    0.0300    2.6820 ca        1 AWJ     -0.164300
      6 C6         -1.0760   -0.5570    1.6960 ca        1 AWJ     -0.067000
      7 O7         -1.4400   -1.0580   -0.6380 os        1 AWJ     -0.350900
      8 N8          0.6610    0.6840   -1.3500 nh        1 AWJ     -0.930500
      9 C9         -2.7920   -0.5780   -0.8500 c3        1 AWJ      0.181400
     10 C10        -2.8670    0.0680   -2.2070 ca        1 AWJ     -0.011300
     11 C11        -3.7000   -1.7950   -0.7820 c3        1 AWJ     -0.099100
     12 C12        -3.7770    1.1110   -2.4780 ca        1 AWJ     -0.165200
     13 C13        -3.8070    1.6880   -3.7600 ca        1 AWJ     -0.128000
     14 C14        -2.9670    1.2400   -4.7700 ca        1 AWJ     -0.161000
     15 C15        -2.0730    0.1880   -4.5030 ca        1 AWJ      0.134900
     16 C16        -2.0280   -0.3940   -3.2250 ca        1 AWJ     -0.161000
     17 F17        -1.2520   -0.2650   -5.4800 f         1 AWJ     -0.136900
     18 N18        -4.6840    1.5470   -1.3980 na        1 AWJ      0.056200
     19 N19        -4.3700    2.8450   -0.8900 na        1 AWJ     -0.176900
     20 C20        -5.5620    3.6450   -1.0410 cc        1 AWJ     -0.201300
     21 C21        -6.5630    2.8670   -1.5570 cd        1 AWJ     -0.201300
     22 N22        -6.0640    1.5270   -1.7640 na        1 AWJ     -0.176900
     23 C23        -0.5650   -0.1100    4.0810 cc        1 AWJ     -0.165400
     24 C24         0.3410   -0.4200    5.1080 cd        1 AWJ      0.352600
     25 N25        -0.2290   -0.4800    6.3720 nd        1 AWJ     -0.642000
     26 C26        -1.5410   -0.2220    6.2910 cc        1 AWJ      0.363700
     27 S27        -2.1070    0.1030    4.7130 ss        1 AWJ      0.015700
     28 C28         1.7870   -0.6750    4.9110 c3        1 AWJ     -0.127400
     29 C29        -2.4370   -0.2400    7.5020 c3        1 AWJ      0.135500
     30 C30        -1.8240    0.6400    8.6110 c3        1 AWJ      0.107400
     31 O31        -3.6890    0.3090    7.0930 oh        1 AWJ     -0.609800
     32 C32        -2.6330   -1.6660    8.0050 c3        1 AWJ     -0.115100
     33 O33        -2.8250    0.7740    9.6110 oh        1 AWJ     -0.619800
     34 H4          1.5290    1.2420    2.9820 h4        1 AWJ      0.029100
     35 H6         -1.9580   -1.1590    1.9680 ha        1 AWJ      0.152000
     36 HN8         0.2390    0.0520   -1.9930 hn        1 AWJ      0.420300
     37 HN8A        1.5760    0.9950   -1.5800 hn        1 AWJ      0.420300
     38 H9         -3.0650    0.1550   -0.0400 h1        1 AWJ      0.098700
     39 H11        -3.4070   -2.5460   -1.5540 hc        1 AWJ      0.052033
     40 H11A       -4.7560   -1.4770   -0.9530 hc        1 AWJ      0.052033
     41 H11B       -3.6160   -2.2680    0.2250 hc        1 AWJ      0.052033
     42 H13        -4.5030    2.5140   -3.9810 ha        1 AWJ      0.136000
     43 H14        -2.9930    1.6950   -5.7710 ha        1 AWJ      0.153000
     44 H16        -1.3330   -1.2250   -3.0230 ha        1 AWJ      0.165000
     45 HN19       -3.5740    3.2810   -1.3360 hn        1 AWJ      0.206700
     46 H20        -5.5710    4.6760   -0.6880 h4        1 AWJ      0.183000
     47 H21        -7.6150    3.0870   -1.7390 h4        1 AWJ      0.183000
     48 HN22       -6.2320    1.2190   -2.7140 hn        1 AWJ      0.206700
     49 H28         2.1490   -1.4930    5.5830 hc        1 AWJ      0.053033
     50 H28A        2.3720    0.2520    5.1390 hc        1 AWJ      0.053033
     51 H28B        1.9800   -0.9700    3.8490 hc        1 AWJ      0.053033
     52 H30        -1.5550    1.6470    8.1970 h1        1 AWJ      0.049200
     53 H30A       -0.9150    0.1450    9.0400 h1        1 AWJ      0.049200
     54 HO31       -4.2220    0.4020    7.8950 ho        1 AWJ      0.432000
     55 H32        -1.6460   -2.1390    8.2180 hc        1 AWJ      0.054367
     56 H32A       -3.2370   -1.6430    8.9440 hc        1 AWJ      0.054367
     57 H32B       -3.1730   -2.2710    7.2390 hc        1 AWJ      0.054367
     58 HO33       -2.4980    1.4220   10.2440 ho        1 AWJ      0.411000
@<TRIPOS>BOND
     1    1    2 ar  
     2    1    6 ar  
     3    1    7 1   
     4    2    3 ar  
     5    2    8 1   
     6    3    4 ar  
     7    4    5 ar  
     8    4   34 1   
     9    5    6 ar  
    10    5   23 1   
    11    6   35 1   
    12    7    9 1   
    13    8   36 1   
    14    8   37 1   
    15    9   10 1   
    16    9   11 1   
    17    9   38 1   
    18   10   12 ar  
    19   10   16 ar  
    20   11   39 1   
    21   11   40 1   
    22   11   41 1   
    23   12   13 ar  
    24   12   18 1   
    25   13   14 ar  
    26   13   42 1   
    27   14   15 ar  
    28   14   43 1   
    29   15   16 ar  
    30   15   17 1   
    31   16   44 1   
    32   18   19 1   
    33   18   22 1   
    34   19   20 1   
    35   19   45 1   
    36   20   21 2   
    37   20   46 1   
    38   21   22 1   
    39   21   47 1   
    40   22   48 1   
    41   23   24 2   
    42   23   27 1   
    43   24   25 1   
    44   24   28 1   
    45   25   26 2   
    46   26   27 1   
    47   26   29 1   
    48   28   49 1   
    49   28   50 1   
    50   28   51 1   
    51   29   30 1   
    52   29   31 1   
    53   29   32 1   
    54   30   33 1   
    55   30   52 1   
    56   30   53 1   
    57   31   54 1   
    58   32   55 1   
    59   32   56 1   
    60   32   57 1   
    61   33   58 1   
@<TRIPOS>SUBSTRUCTURE
     1 AWJ         1 TEMP              0 ****  ****    0 ROOT
