@<TRIPOS>MOLECULE
AWJ
   59    62     1     0     0
SMALL
bcc


@<TRIPOS>ATOM
      1 C1         -0.8400    0.2300    0.3350 ca        1 AWJ      0.101800
      2 C2          0.0950    1.2900    0.1960 ca        1 AWJ      0.396200
      3 N3          0.6950    1.8980    1.2620 nb        1 AWJ     -0.627000
      4 C4          0.3560    1.4820    2.4790 ca        1 AWJ      0.402200
      5 C5         -0.5940    0.4460    2.7350 ca        1 AWJ      0.007700
      6 C6         -1.1920   -0.1750    1.6340 ca        1 AWJ     -0.158000
      7 O7         -1.2650   -0.3870   -0.8160 os        1 AWJ     -0.344900
      8 N8          0.4260    1.7920   -1.1470 n4        1 AWJ     -0.791300
      9 C9         -2.6690   -0.7720   -0.8540 c3        1 AWJ      0.205400
     10 C10        -3.2180   -0.3620   -2.1960 ca        1 AWJ     -0.036300
     11 C11        -2.7300   -2.2640   -0.5820 c3        1 AWJ     -0.126100
     12 C12        -3.2810    0.9980   -2.5840 ca        1 AWJ     -0.160200
     13 C13        -3.9570    1.3520   -3.7660 ca        1 AWJ     -0.123000
     14 C14        -4.5060    0.3870   -4.5980 ca        1 AWJ     -0.141000
     15 C15        -4.3890   -0.9690   -4.2450 ca        1 AWJ      0.156900
     16 C16        -3.7530   -1.3330   -3.0430 ca        1 AWJ     -0.152000
     17 F17        -4.8960   -1.9260   -5.0510 f         1 AWJ     -0.112900
     18 N18        -2.5950    1.9940   -1.7450 na        1 AWJ      0.001200
     19 N19        -1.9570    3.0570   -2.4610 na        1 AWJ     -0.213900
     20 C20        -2.4720    4.2900   -1.9000 cc        1 AWJ     -0.188800
     21 C21        -3.3380    3.9950   -0.8840 cd        1 AWJ     -0.188800
     22 N22        -3.4230    2.5620   -0.7310 na        1 AWJ     -0.213900
     23 C23        -0.9280    0.0690    4.0760 cc        1 AWJ     -0.263400
     24 C24        -0.0510   -0.0400    5.1730 cd        1 AWJ      0.415600
     25 N25        -0.6670   -0.4250    6.3530 nd        1 AWJ     -0.638000
     26 C26        -1.9810   -0.6020    6.1470 cc        1 AWJ      0.413700
     27 S27        -2.4980   -0.3150    4.5490 ss        1 AWJ      0.034700
     28 C28         1.4110    0.1990    5.1300 c3        1 AWJ     -0.143400
     29 C29        -2.9210   -1.0390    7.2420 c3        1 AWJ      0.127500
     30 C30        -2.7630   -0.1130    8.4660 c3        1 AWJ      0.111400
     31 O31        -4.2370   -0.9130    6.7050 oh        1 AWJ     -0.618800
     32 C32        -2.6520   -2.4880    7.6330 c3        1 AWJ     -0.117100
     33 O33        -3.8520   -0.4160    9.3230 oh        1 AWJ     -0.616800
     34 H4          0.8530    2.0060    3.3200 h4        1 AWJ      0.062100
     35 H6         -1.9270   -0.9830    1.7790 ha        1 AWJ      0.174000
     36 HN8        -0.0840    1.2240   -1.8380 hn        1 AWJ      0.473133
     37 HN8A        1.4340    1.7250   -1.3120 hn        1 AWJ      0.473133
     38 H9         -3.2350   -0.2120   -0.0540 h1        1 AWJ      0.079700
     39 H11        -2.1360   -2.8320   -1.3380 hc        1 AWJ      0.063367
     40 H11A       -3.7910   -2.6110   -0.6010 hc        1 AWJ      0.063367
     41 H11B       -2.3010   -2.4870    0.4250 hc        1 AWJ      0.063367
     42 H13        -4.0790    2.4090   -4.0580 ha        1 AWJ      0.146000
     43 H14        -5.0310    0.6700   -5.5240 ha        1 AWJ      0.172000
     44 H16        -3.6970   -2.4060   -2.7980 ha        1 AWJ      0.170000
     45 HN19       -2.1020    3.0300   -3.4640 hn        1 AWJ      0.221200
     46 H20        -2.1230    5.2510   -2.2840 h4        1 AWJ      0.201000
     47 H21        -3.8780    4.6480   -0.1940 h4        1 AWJ      0.201000
     48 HN22       -4.3840    2.2440   -0.7560 hn        1 AWJ      0.221200
     49 H28         1.9540   -0.4820    5.8330 hc        1 AWJ      0.064033
     50 H28A        1.8000    0.0270    4.0960 hc        1 AWJ      0.064033
     51 H28B        1.6300    1.2550    5.4320 hc        1 AWJ      0.064033
     52 H30        -1.7870   -0.3170    8.9790 h1        1 AWJ      0.050700
     53 H30A       -2.8140    0.9610    8.1470 h1        1 AWJ      0.050700
     54 HO31       -4.8520   -1.0600    7.4380 ho        1 AWJ      0.447000
     55 H32        -1.5870   -2.6160    7.9380 hc        1 AWJ      0.060700
     56 H32A       -2.8760   -3.1670    6.7770 hc        1 AWJ      0.060700
     57 H32B       -3.3120   -2.7580    8.4930 hc        1 AWJ      0.060700
     58 HO33       -3.7700    0.1600   10.0930 ho        1 AWJ      0.423000
     59 H83         0.1280    2.7730   -1.2250 hn        1 AWJ      0.473133
@<TRIPOS>BOND
     1    1    2 ar  
     2    1    6 ar  
     3    1    7 1   
     4    2    3 ar  
     5    2    8 1   
     6    3    4 ar  
     7    4    5 ar  
     8    4   34 1   
     9    5    6 ar  
    10    5   23 1   
    11    6   35 1   
    12    7    9 1   
    13    8   36 1   
    14    8   37 1   
    15    8   59 1   
    16    9   10 1   
    17    9   11 1   
    18    9   38 1   
    19   10   12 ar  
    20   10   16 ar  
    21   11   39 1   
    22   11   40 1   
    23   11   41 1   
    24   12   13 ar  
    25   12   18 1   
    26   13   14 ar  
    27   13   42 1   
    28   14   15 ar  
    29   14   43 1   
    30   15   16 ar  
    31   15   17 1   
    32   16   44 1   
    33   18   19 1   
    34   18   22 1   
    35   19   20 1   
    36   19   45 1   
    37   20   21 2   
    38   20   46 1   
    39   21   22 1   
    40   21   47 1   
    41   22   48 1   
    42   23   24 2   
    43   23   27 1   
    44   24   25 1   
    45   24   28 1   
    46   25   26 2   
    47   26   27 1   
    48   26   29 1   
    49   28   49 1   
    50   28   50 1   
    51   28   51 1   
    52   29   30 1   
    53   29   31 1   
    54   29   32 1   
    55   30   33 1   
    56   30   52 1   
    57   30   53 1   
    58   31   54 1   
    59   32   55 1   
    60   32   56 1   
    61   32   57 1   
    62   33   58 1   
@<TRIPOS>SUBSTRUCTURE
     1 AWJ         1 TEMP              0 ****  ****    0 ROOT
