@<TRIPOS>MOLECULE
AWR
   43    45     1     0     0
SMALL
bcc


@<TRIPOS>ATOM
      1 FAC        -0.4330    0.1660   -0.0070 f         1 AWR     -0.238967
      2 CAX         0.9230   -0.0420   -0.0550 c3        1 AWR      0.607600
      3 FAD         1.2440   -0.4420    1.2270 f         1 AWR     -0.238967
      4 FAE         1.0510   -1.1940   -0.7810 f         1 AWR     -0.238967
      5 CAR         1.7280    1.1810   -0.5290 ca        1 AWR      0.302600
      6 CAV         1.5360    2.4690    0.0060 ca        1 AWR     -0.093500
      7 NAO         2.6240    0.9480   -1.5220 nb        1 AWR     -0.614000
      8 CAF         3.3150    1.9690   -2.0400 ca        1 AWR      0.386200
      9 CAH         3.1730    3.3130   -1.6250 ca        1 AWR     -0.173300
     10 CAT         2.2860    3.5650   -0.5990 cp        1 AWR     -0.023000
     11 CAS         1.8710    4.7800    0.0740 cp        1 AWR     -0.126000
     12 CAI         2.2130    6.1150   -0.0850 ca        1 AWR     -0.025000
     13 CAG         1.6140    7.0740    0.7300 ca        1 AWR     -0.220000
     14 CAQ         0.6680    6.6880    1.6950 ca        1 AWR      0.171100
     15 OAP         0.0380    7.5630    2.5500 os        1 AWR     -0.324900
     16 CAA         0.2910    8.9510    2.3440 c3        1 AWR      0.109700
     17 CAJ         0.2920    5.3410    1.8790 ca        1 AWR     -0.186000
     18 CAU         0.8980    4.3920    1.0630 ca        1 AWR      0.008800
     19 NAW         0.6520    2.9870    0.9870 na        1 AWR     -0.045300
     20 CAN         0.2410    2.2760    2.1660 c3        1 AWR      0.025300
     21 CAM         1.3630    1.9050    3.1470 c3        1 AWR     -0.114400
     22 CAL         0.8590    0.8480    4.1100 c3        1 AWR     -0.108400
     23 CAK         2.0150    0.3740    4.9820 c3        1 AWR      0.101800
     24 NAB         1.6600   -0.8310    5.7920 nz        1 AWR     -0.839600
     25 HAF         4.0200    1.6990   -2.8490 h4        1 AWR      0.045100
     26 HAH         3.7450    4.1160   -2.1110 ha        1 AWR      0.164000
     27 HAI         2.9460    6.4160   -0.8490 ha        1 AWR      0.149000
     28 HAG         1.8830    8.1320    0.6040 ha        1 AWR      0.153000
     29 HAJ        -0.4670    5.0900    2.6310 ha        1 AWR      0.155000
     30 HAA1       -0.0020    9.2570    1.3110 h1        1 AWR      0.054367
     31 HAA2       -0.3660    9.4460    3.1050 h1        1 AWR      0.054367
     32 HAA3        1.3650    9.1850    2.5380 h1        1 AWR      0.054367
     33 HAN1       -0.5140    2.9190    2.7040 h1        1 AWR      0.079200
     34 HAN2       -0.2860    1.3350    1.8330 h1        1 AWR      0.079200
     35 HAM1        1.7010    2.8160    3.7060 hc        1 AWR      0.068700
     36 HAM2        2.2430    1.5010    2.5770 hc        1 AWR      0.068700
     37 HAL1        0.4400   -0.0100    3.5150 hc        1 AWR      0.075700
     38 HAL2        0.0360    1.2690    4.7440 hc        1 AWR      0.075700
     39 HAK1        2.8990    0.0980    4.3350 hx        1 AWR      0.115200
     40 HAK2        2.3270    1.1900    5.6960 hx        1 AWR      0.115200
     41 HAB1        1.3960   -1.6030    5.1700 hn        1 AWR      0.462467
     42 HAB2        0.8660   -0.6220    6.4060 hn        1 AWR      0.462467
     43 HAB3        2.4590   -1.1190    6.3640 hn        1 AWR      0.462467
@<TRIPOS>BOND
     1    1    2 1   
     2    2    3 1   
     3    2    4 1   
     4    2    5 1   
     5    5    6 ar  
     6    5    7 ar  
     7    6   10 ar  
     8    6   19 1   
     9    7    8 ar  
    10    8    9 ar  
    11    8   25 1   
    12    9   10 ar  
    13    9   26 1   
    14   10   11 1   
    15   11   12 ar  
    16   11   18 ar  
    17   12   13 ar  
    18   12   27 1   
    19   13   14 ar  
    20   13   28 1   
    21   14   15 1   
    22   14   17 ar  
    23   15   16 1   
    24   16   30 1   
    25   16   31 1   
    26   16   32 1   
    27   17   18 ar  
    28   17   29 1   
    29   18   19 1   
    30   19   20 1   
    31   20   21 1   
    32   20   33 1   
    33   20   34 1   
    34   21   22 1   
    35   21   35 1   
    36   21   36 1   
    37   22   23 1   
    38   22   37 1   
    39   22   38 1   
    40   23   24 1   
    41   23   39 1   
    42   23   40 1   
    43   24   41 1   
    44   24   42 1   
    45   24   43 1   
@<TRIPOS>SUBSTRUCTURE
     1 AWR         1 TEMP              0 ****  ****    0 ROOT
