@<TRIPOS>MOLECULE
AWR
   43    45     1     0     0
SMALL
bcc


@<TRIPOS>ATOM
      1 FAC        -0.4340    0.1600    0.0050 f         1 AWR     -0.238967
      2 CAX         0.9220   -0.0440   -0.0500 c3        1 AWR      0.607600
      3 FAD         1.2510   -0.4420    1.2310 f         1 AWR     -0.238967
      4 FAE         1.0490   -1.1960   -0.7750 f         1 AWR     -0.238967
      5 CAR         1.7210    1.1800   -0.5290 ca        1 AWR      0.302600
      6 CAV         1.5280    2.4680    0.0060 ca        1 AWR     -0.093500
      7 NAO         2.6130    0.9490   -1.5270 nb        1 AWR     -0.614000
      8 CAF         3.2970    1.9710   -2.0490 ca        1 AWR      0.386200
      9 CAH         3.1540    3.3160   -1.6350 ca        1 AWR     -0.173300
     10 CAT         2.2720    3.5660   -0.6040 cp        1 AWR     -0.023000
     11 CAS         1.8570    4.7810    0.0700 cp        1 AWR     -0.126000
     12 CAI         2.1940    6.1160   -0.0920 ca        1 AWR     -0.025000
     13 CAG         1.5960    7.0740    0.7250 ca        1 AWR     -0.220000
     14 CAQ         0.6570    6.6860    1.6960 ca        1 AWR      0.171100
     15 OAP         0.0290    7.5610    2.5540 os        1 AWR     -0.324900
     16 CAA         0.2760    8.9490    2.3450 c3        1 AWR      0.109700
     17 CAJ         0.2860    5.3380    1.8840 ca        1 AWR     -0.186000
     18 CAU         0.8900    4.3900    1.0640 ca        1 AWR      0.008800
     19 NAW         0.6480    2.9850    0.9920 na        1 AWR     -0.045300
     20 CAN         0.2460    2.2730    2.1730 c3        1 AWR      0.025300
     21 CAM         1.3740    1.9060    3.1480 c3        1 AWR     -0.114400
     22 CAL         0.8780    0.8490    4.1150 c3        1 AWR     -0.108400
     23 CAK         2.0400    0.3780    4.9800 c3        1 AWR      0.101800
     24 NAB         1.6930   -0.8280    5.7920 n4        1 AWR     -0.839600
     25 HAF         3.9990    1.7030   -2.8620 h4        1 AWR      0.045100
     26 HAH         3.7210    4.1200   -2.1240 ha        1 AWR      0.164000
     27 HAI         2.9220    6.4190   -0.8600 ha        1 AWR      0.149000
     28 HAG         1.8620    8.1330    0.5970 ha        1 AWR      0.153000
     29 HAJ        -0.4680    5.0850    2.6400 ha        1 AWR      0.155000
     30 HAA1        1.3510    9.1870    2.5320 h1        1 AWR      0.054367
     31 HAA2       -0.0230    9.2530    1.3130 h1        1 AWR      0.054367
     32 HAA3       -0.3780    9.4430    3.1090 h1        1 AWR      0.054367
     33 HAN1       -0.2800    1.3310    1.8440 h1        1 AWR      0.079200
     34 HAN2       -0.5080    2.9150    2.7140 h1        1 AWR      0.079200
     35 HAM1        2.2520    1.5040    2.5740 hc        1 AWR      0.068700
     36 HAM2        1.7120    2.8180    3.7040 hc        1 AWR      0.068700
     37 HAL1        0.0570    1.2680    4.7530 hc        1 AWR      0.075700
     38 HAL2        0.4580   -0.0110    3.5230 hc        1 AWR      0.075700
     39 HAK1        2.3540    1.1950    5.6920 hx        1 AWR      0.115200
     40 HAK2        2.9210    0.1040    4.3280 hx        1 AWR      0.115200
     41 HAB1        1.4280   -1.6010    5.1720 hn        1 AWR      0.462467
     42 HAB2        0.9020   -0.6210    6.4110 hn        1 AWR      0.462467
     43 HAB3        2.4970   -1.1140    6.3600 hn        1 AWR      0.462467
@<TRIPOS>BOND
     1    1    2 1   
     2    2    3 1   
     3    2    4 1   
     4    2    5 1   
     5    5    6 ar  
     6    5    7 ar  
     7    6   10 ar  
     8    6   19 1   
     9    7    8 ar  
    10    8    9 ar  
    11    8   25 1   
    12    9   10 ar  
    13    9   26 1   
    14   10   11 1   
    15   11   12 ar  
    16   11   18 ar  
    17   12   13 ar  
    18   12   27 1   
    19   13   14 ar  
    20   13   28 1   
    21   14   15 1   
    22   14   17 ar  
    23   15   16 1   
    24   16   30 1   
    25   16   31 1   
    26   16   32 1   
    27   17   18 ar  
    28   17   29 1   
    29   18   19 1   
    30   19   20 1   
    31   20   21 1   
    32   20   33 1   
    33   20   34 1   
    34   21   22 1   
    35   21   35 1   
    36   21   36 1   
    37   22   23 1   
    38   22   37 1   
    39   22   38 1   
    40   23   24 1   
    41   23   39 1   
    42   23   40 1   
    43   24   41 1   
    44   24   42 1   
    45   24   43 1   
@<TRIPOS>SUBSTRUCTURE
     1 AWR         1 TEMP              0 ****  ****    0 ROOT
