@<TRIPOS>MOLECULE
AX1
   31    27     1     0     0
SMALL
bcc


@<TRIPOS>ATOM
      1 CAG         2.0410    0.4310   -0.8980 c1        1 AX1     -0.086000
      2 CAQ         3.4420    0.4280   -0.9000 c1        1 AX1      0.014000
      3 OAM         4.3960    0.9270   -1.8360 os        1 AX1     -0.210000
      4 CAH         5.6760    0.6150   -1.3570 c3        1 AX1      0.098000
      5 OAL         5.5290    0.0120   -0.1000 os        1 AX1     -0.214000
      6 CAP         4.1350   -0.1280    0.1620 c2        1 AX1      0.023000
      7 CAF         3.4340   -0.6880    1.2390 c2        1 AX1     -0.115000
      8 CAE         2.0440   -0.6850    1.2400 c1        1 AX1     -0.121000
      9 CAO         1.3460   -0.1250    0.1710 c1        1 AX1     -0.036000
     10 CAS        -0.0400   -0.0910    0.1890 c1        1 AX1      0.008000
     11 NAK        -0.7480    0.8980    0.8090 n2        1 AX1     -0.159000
     12 CAU        -2.0930    0.6420    0.6230 c1        1 AX1      0.095000
     13 NAI        -3.2880    1.3430    1.0690 n1        1 AX1     -0.258000
     14 CAN        -4.5960    0.8330    0.7300 c1        1 AX1      0.243000
     15 NAB        -5.7590    1.5030    1.1880 n2        1 AX1     -0.333000
     16 NAJ        -4.7180   -0.3590   -0.0430 n         1 AX1     -0.348000
     17 CAT        -3.5700   -1.0350   -0.4740 c2        1 AX1      0.387000
     18 OAC        -3.6730   -2.0180   -1.1800 o         1 AX1     -0.329000
     19 CAV        -2.2080   -0.5070   -0.1130 c2        1 AX1     -0.230000
     20 CAR        -0.9400   -0.9650   -0.3840 c1        1 AX1      0.011000
     21 CAD        -0.8120   -2.2530   -1.1680 c1        1 AX1     -0.067000
     22 NAA        -0.7160   -3.2230   -1.7580 n1        1 AX1     -0.028000
     23 HAG         1.5520    0.8220   -1.6470 ha        1 AX1      0.172000
     24 HAH         6.1040   -0.0200   -1.9710 h2        1 AX1      0.116000
     25 HAHA        6.1940    1.4430   -1.2590 h2        1 AX1      0.116000
     26 HAF         3.9220   -1.0800    1.9870 ha        1 AX1      0.159000
     27 HAE         1.5560   -1.0750    1.9900 ha        1 AX1      0.139000
     28 HNAK       -0.3950    1.6050    1.2640 DU        1 AX1      0.268000
     29 HNAB       -5.6820    2.2300    1.7370 hn        1 AX1      0.218500
     30 HNAA       -6.5870    1.1990    0.9470 hn        1 AX1      0.218500
     31 HNAJ       -5.5440   -0.6800   -0.2580 hn        1 AX1      0.250000
@<TRIPOS>BOND
     1    1    9 1   
     2    1   23 1   
     3    2    3 1   
     4    2    6 1   
     5    3    4 1   
     6    4    5 1   
     7    4   24 1   
     8    4   25 1   
     9    5    6 1   
    10    6    7 1   
    11    7    8 1   
    12    7   26 1   
    13    8   27 1   
    14   10   11 1   
    15   10   20 1   
    16   11   12 1   
    17   12   19 1   
    18   13   14 1   
    19   14   16 1   
    20   15   29 1   
    21   15   30 1   
    22   16   17 1   
    23   16   31 1   
    24   17   18 1   
    25   17   19 1   
    26   19   20 1   
    27   21   22 1   
@<TRIPOS>SUBSTRUCTURE
     1 AX1         1 TEMP              0 ****  ****    0 ROOT
