@<TRIPOS>MOLECULE
AX1
   32    35     1     0     0
SMALL
bcc


@<TRIPOS>ATOM
      1 CAG        -0.0370    0.1400    0.0280 ca        1 AX1     -0.103000
      2 CAQ         1.3380    0.1610    0.0090 ca        1 AX1      0.061100
      3 OAM         2.2150    0.2790    1.0780 os        1 AX1     -0.325900
      4 CAH         3.5560    0.2350    0.5290 c3        1 AX1      0.320200
      5 OAL         3.4340    0.1000   -0.9110 os        1 AX1     -0.313900
      6 CAP         2.0830    0.0520   -1.2010 ca        1 AX1      0.104100
      7 CAF         1.4620   -0.0810   -2.4260 ca        1 AX1     -0.114000
      8 CAE         0.0570   -0.1020   -2.4170 ca        1 AX1     -0.070000
      9 CAO        -0.6780    0.0050   -1.2300 ca        1 AX1     -0.098000
     10 CAS        -2.1290   -0.0290   -1.2860 cc        1 AX1      0.084700
     11 NAK        -2.9250    0.7670   -0.4630 na        1 AX1     -0.122100
     12 CAU        -4.2650    0.5080   -0.7560 cc        1 AX1      0.094100
     13 NAI        -5.3850    1.0770   -0.1660 nc        1 AX1     -0.530100
     14 CAN        -6.5440    0.6330   -0.6540 cd        1 AX1      0.491800
     15 NAB        -7.7720    1.2320   -0.0370 nz        1 AX1     -0.793600
     16 NAJ        -6.7310   -0.3140   -1.6640 ns        1 AX1     -0.501400
     17 CAT        -5.6010   -0.9290   -2.3010 c         1 AX1      0.747100
     18 OAC        -5.8510   -1.7520   -3.1820 o         1 AX1     -0.521500
     19 CAV        -4.3160   -0.4780   -1.8030 cd        1 AX1     -0.143600
     20 CAR        -2.9720   -0.8130   -2.1300 cd        1 AX1     -0.006000
     21 CAD        -2.5540   -1.7530   -3.0830 ch        1 AX1      0.230800
     22 NAA        -2.2220   -2.5410   -3.8730 n1        1 AX1     -0.290800
     23 HAG        -0.5960    0.1980    0.9700 ha        1 AX1      0.153000
     24 HAH         4.0770   -0.6710    0.9280 h2        1 AX1      0.090700
     25 HAHA        4.0650    1.2050    0.7520 h2        1 AX1      0.090700
     26 HAF         2.0300   -0.1690   -3.3630 ha        1 AX1      0.179000
     27 HAE        -0.4720   -0.2040   -3.3790 ha        1 AX1      0.157000
     28 HNAK       -2.5910    1.4040    0.2210 hn        1 AX1      0.336700
     29 HNAB       -8.3190    1.7130   -0.7610 hn        1 AX1      0.481133
     30 HNAA       -8.3360    0.4890    0.3930 hn        1 AX1      0.481133
     31 HNAJ       -7.6400   -0.5890   -1.9700 hn        1 AX1      0.349500
     32 HAB3       -7.5000    1.9120    0.6890 hn        1 AX1      0.481133
@<TRIPOS>BOND
     1    1    2 ar  
     2    1    9 ar  
     3    1   23 1   
     4    2    3 1   
     5    2    6 ar  
     6    3    4 1   
     7    4    5 1   
     8    4   24 1   
     9    4   25 1   
    10    5    6 1   
    11    6    7 ar  
    12    7    8 ar  
    13    7   26 1   
    14    8    9 ar  
    15    8   27 1   
    16    9   10 1   
    17   10   11 1   
    18   10   20 2   
    19   11   12 1   
    20   11   28 1   
    21   12   13 1   
    22   12   19 2   
    23   13   14 2   
    24   14   15 1   
    25   14   16 1   
    26   15   29 1   
    27   15   30 1   
    28   15   32 1   
    29   16   17 1   
    30   16   31 1   
    31   17   18 2   
    32   17   19 1   
    33   19   20 1   
    34   20   21 1   
    35   21   22 3   
@<TRIPOS>SUBSTRUCTURE
     1 AX1         1 TEMP              0 ****  ****    0 ROOT
