@<TRIPOS>MOLECULE
AX1
   32    35     1     0     0
SMALL
bcc


@<TRIPOS>ATOM
      1 CAG        -0.0150    0.0850    0.0410 ca        1 AX1     -0.103000
      2 CAQ         1.3590    0.1120    0.0110 ca        1 AX1      0.061100
      3 OAM         2.2460    0.1890    1.0750 os        1 AX1     -0.325900
      4 CAH         3.5820    0.1740    0.5120 c3        1 AX1      0.320200
      5 OAL         3.4460    0.0990   -0.9310 os        1 AX1     -0.313900
      6 CAP         2.0930    0.0580   -1.2100 ca        1 AX1      0.104100
      7 CAF         1.4610   -0.0260   -2.4340 ca        1 AX1     -0.114000
      8 CAE         0.0560   -0.0540   -2.4120 ca        1 AX1     -0.070000
      9 CAO        -0.6680   -0.0000   -1.2150 ca        1 AX1     -0.098000
     10 CAS        -2.1190   -0.0380   -1.2590 cc        1 AX1      0.084700
     11 NAK        -2.9100    0.7190   -0.3960 na        1 AX1     -0.122100
     12 CAU        -4.2520    0.4680   -0.6870 cc        1 AX1      0.094100
     13 NAI        -5.3690    1.0060   -0.0630 nc        1 AX1     -0.530100
     14 CAN        -6.5300    0.5780   -0.5580 cd        1 AX1      0.491800
     15 NAB        -7.7550    1.1450    0.0950 n4        1 AX1     -0.793600
     16 NAJ        -6.7240   -0.3270   -1.6050 n         1 AX1     -0.501400
     17 CAT        -5.5970   -0.9100   -2.2780 c         1 AX1      0.747100
     18 OAC        -5.8520   -1.6970   -3.1900 o         1 AX1     -0.521500
     19 CAV        -4.3090   -0.4750   -1.7730 cd        1 AX1     -0.143600
     20 CAR        -2.9670   -0.7890   -2.1270 cd        1 AX1     -0.006000
     21 CAD        -2.5540   -1.6870   -3.1230 ch        1 AX1      0.230800
     22 NAA        -2.2270   -2.4400   -3.9480 n1        1 AX1     -0.290800
     23 HAG        -0.5660    0.1000    0.9900 ha        1 AX1      0.153000
     24 HAH         4.0890    1.1360    0.7710 h2        1 AX1      0.090700
     25 HAHA        4.1100   -0.7450    0.8680 h2        1 AX1      0.090700
     26 HAF         2.0200   -0.0720   -3.3790 ha        1 AX1      0.179000
     27 HAE        -0.4820   -0.1180   -3.3730 ha        1 AX1      0.157000
     28 HNAK       -2.5720    1.3290    0.3110 hn        1 AX1      0.336700
     29 HNAB       -8.3110    0.3820    0.4980 hn        1 AX1      0.481133
     30 HNAA       -8.3110    1.6540   -0.6030 hn        1 AX1      0.481133
     31 HNAJ       -7.6340   -0.5930   -1.9140 hn        1 AX1      0.349500
     32 HAB3       -7.4790    1.7960    0.8470 hn        1 AX1      0.481133
@<TRIPOS>BOND
     1    1    2 ar  
     2    1    9 ar  
     3    1   23 1   
     4    2    3 1   
     5    2    6 ar  
     6    3    4 1   
     7    4    5 1   
     8    4   24 1   
     9    4   25 1   
    10    5    6 1   
    11    6    7 ar  
    12    7    8 ar  
    13    7   26 1   
    14    8    9 ar  
    15    8   27 1   
    16    9   10 1   
    17   10   11 1   
    18   10   20 2   
    19   11   12 1   
    20   11   28 1   
    21   12   13 1   
    22   12   19 2   
    23   13   14 2   
    24   14   15 1   
    25   14   16 1   
    26   15   29 1   
    27   15   30 1   
    28   15   32 1   
    29   16   17 1   
    30   16   31 1   
    31   17   18 2   
    32   17   19 1   
    33   19   20 1   
    34   20   21 1   
    35   21   22 3   
@<TRIPOS>SUBSTRUCTURE
     1 AX1         1 TEMP              0 ****  ****    0 ROOT
