@<TRIPOS>MOLECULE
AX1
   31    34     1     0     0
SMALL
bcc


@<TRIPOS>ATOM
      1 CAG        -2.1630   -1.0200    0.3290 ca        1 AX1     -0.109000
      2 CAQ        -3.5300   -0.9090    0.2110 ca        1 AX1      0.055100
      3 OAM        -4.5130   -1.7800    0.6710 os        1 AX1     -0.332900
      4 CAH        -5.7880   -1.2030    0.3030 c3        1 AX1      0.321200
      5 OAL        -5.5270    0.0350   -0.4000 os        1 AX1     -0.328900
      6 CAP        -4.1480    0.1930   -0.4390 ca        1 AX1      0.068100
      7 CAF        -3.4070    1.2180   -0.9920 ca        1 AX1     -0.109000
      8 CAE        -2.0100    1.1090   -0.8810 ca        1 AX1     -0.098000
      9 CAO        -1.3970    0.0260   -0.2400 ca        1 AX1     -0.038000
     10 CAS         0.0530   -0.0240   -0.1540 cc        1 AX1     -0.013300
     11 NAK         0.7660   -1.2280   -0.2840 na        1 AX1     -0.160100
     12 CAU         2.1270   -0.9560   -0.1620 cc        1 AX1      0.211100
     13 NAI         3.1630   -1.8750   -0.2240 nc        1 AX1     -0.685100
     14 CAN         4.4010   -1.3390   -0.1010 cd        1 AX1      0.688800
     15 NAB         5.5180   -2.1830   -0.2800 nh        1 AX1     -0.893800
     16 NAJ         4.6550    0.0260    0.1410 n         1 AX1     -0.508400
     17 CAT         3.6140    0.9920    0.2110 c         1 AX1      0.750100
     18 OAC         3.9470    2.1720    0.4010 o         1 AX1     -0.604500
     19 CAV         2.2840    0.4530    0.0560 cd        1 AX1     -0.250600
     20 CAR         0.9700    1.0290    0.0580 cd        1 AX1      0.004000
     21 CAD         0.6580    2.3840    0.2560 ch        1 AX1      0.263800
     22 NAA         0.4110    3.5080    0.4260 n1        1 AX1     -0.357800
     23 HAG        -1.6990   -1.8640    0.8540 ha        1 AX1      0.154000
     24 HAH        -6.3090   -1.9050   -0.3920 h2        1 AX1      0.076200
     25 HAHA       -6.3570   -0.9700    1.2370 h2        1 AX1      0.076200
     26 HAF        -3.8770    2.0750   -1.4910 ha        1 AX1      0.164000
     27 HAE        -1.3840    1.9070   -1.3130 ha        1 AX1      0.156000
     28 HNAK        0.3640   -2.1140   -0.4550 hn        1 AX1      0.318700
     29 HNAB        5.3050   -3.1560   -0.3350 hn        1 AX1      0.423300
     30 HNAA        6.3180   -1.9680    0.2710 hn        1 AX1      0.423300
     31 HNAJ        5.5920    0.3640    0.1830 hn        1 AX1      0.336500
@<TRIPOS>BOND
     1    1    2 ar  
     2    1    9 ar  
     3    1   23 1   
     4    2    3 1   
     5    2    6 ar  
     6    3    4 1   
     7    4    5 1   
     8    4   24 1   
     9    4   25 1   
    10    5    6 1   
    11    6    7 ar  
    12    7    8 ar  
    13    7   26 1   
    14    8    9 ar  
    15    8   27 1   
    16    9   10 1   
    17   10   11 1   
    18   10   20 2   
    19   11   12 1   
    20   11   28 1   
    21   12   13 1   
    22   12   19 2   
    23   13   14 2   
    24   14   15 1   
    25   14   16 1   
    26   15   29 1   
    27   15   30 1   
    28   16   17 1   
    29   16   31 1   
    30   17   18 2   
    31   17   19 1   
    32   19   20 1   
    33   20   21 1   
    34   21   22 3   
@<TRIPOS>SUBSTRUCTURE
     1 AX1         1 TEMP              0 ****  ****    0 ROOT
