@<TRIPOS>MOLECULE
AX1
   32    35     1     0     0
SMALL
bcc


@<TRIPOS>ATOM
      1 CAG        -0.0330    0.1500    0.0420 ca        1 AX1     -0.103000
      2 CAQ         1.3420    0.1900    0.0180 ca        1 AX1      0.061100
      3 OAM         2.2210    0.3150    1.0840 os        1 AX1     -0.325900
      4 CAH         3.5610    0.2920    0.5300 c3        1 AX1      0.320200
      5 OAL         3.4350    0.1630   -0.9100 os        1 AX1     -0.313900
      6 CAP         2.0840    0.0980   -1.1950 ca        1 AX1      0.104100
      7 CAF         1.4600   -0.0380   -2.4190 ca        1 AX1     -0.114000
      8 CAE         0.0550   -0.0790   -2.4040 ca        1 AX1     -0.070000
      9 CAO        -0.6770    0.0120   -1.2140 ca        1 AX1     -0.098000
     10 CAS        -2.1270   -0.0410   -1.2650 cc        1 AX1      0.084700
     11 NAK        -2.9300    0.7390   -0.4350 na        1 AX1     -0.122100
     12 CAU        -4.2690    0.4630   -0.7240 cc        1 AX1      0.094100
     13 NAI        -5.3940    1.0130   -0.1280 nc        1 AX1     -0.530100
     14 CAN        -6.5480    0.5550   -0.6130 cd        1 AX1      0.491800
     15 NAB        -7.7820    1.1340    0.0120 n4        1 AX1     -0.793600
     16 NAJ        -6.7260   -0.3900   -1.6260 n         1 AX1     -0.501400
     17 CAT        -5.5900   -0.9860   -2.2700 c         1 AX1      0.747100
     18 OAC        -5.8310   -1.8090   -3.1540 o         1 AX1     -0.521500
     19 CAV        -4.3090   -0.5200   -1.7750 cd        1 AX1     -0.143600
     20 CAR        -2.9620   -0.8340   -2.1080 cd        1 AX1     -0.006000
     21 CAD        -2.5350   -1.7640   -3.0680 ch        1 AX1      0.230800
     22 NAA        -2.1950   -2.5440   -3.8620 n1        1 AX1     -0.290800
     23 HAG        -0.5890    0.1960    0.9860 ha        1 AX1      0.153000
     24 HAH         4.0570    1.2680    0.7560 h2        1 AX1      0.090700
     25 HAHA        4.0960   -0.6080    0.9220 h2        1 AX1      0.090700
     26 HAF         2.0250   -0.1140   -3.3580 ha        1 AX1      0.179000
     27 HAE        -0.4760   -0.1840   -3.3650 ha        1 AX1      0.157000
     28 HNAK       -2.6030    1.3780    0.2510 hn        1 AX1      0.336700
     29 HNAB       -8.3330    0.3810    0.4410 hn        1 AX1      0.481133
     30 HNAA       -8.3390    1.6090   -0.7070 hn        1 AX1      0.481133
     31 HNAJ       -7.6320   -0.6770   -1.9300 hn        1 AX1      0.349500
     32 HAB3       -7.5170    1.8150    0.7400 hn        1 AX1      0.481133
@<TRIPOS>BOND
     1    1    2 ar  
     2    1    9 ar  
     3    1   23 1   
     4    2    3 1   
     5    2    6 ar  
     6    3    4 1   
     7    4    5 1   
     8    4   24 1   
     9    4   25 1   
    10    5    6 1   
    11    6    7 ar  
    12    7    8 ar  
    13    7   26 1   
    14    8    9 ar  
    15    8   27 1   
    16    9   10 1   
    17   10   11 1   
    18   10   20 2   
    19   11   12 1   
    20   11   28 1   
    21   12   13 1   
    22   12   19 2   
    23   13   14 2   
    24   14   15 1   
    25   14   16 1   
    26   15   29 1   
    27   15   30 1   
    28   15   32 1   
    29   16   17 1   
    30   16   31 1   
    31   17   18 2   
    32   17   19 1   
    33   19   20 1   
    34   20   21 1   
    35   21   22 3   
@<TRIPOS>SUBSTRUCTURE
     1 AX1         1 TEMP              0 ****  ****    0 ROOT
