@<TRIPOS>MOLECULE
AX2
   15    12     1     0     0
SMALL
bcc


@<TRIPOS>ATOM
      1 C2         -0.6710    0.0000   -1.1620 c1        1 AX2      0.220000
      2 C4          1.3410    0.0000   -0.0000 c1        1 AX2      0.217000
      3 C6         -0.6710    0.0000    1.1620 c1        1 AX2      0.220000
      4 N7         -1.3800    0.0020   -2.3900 n2        1 AX2     -0.337000
      5 N8         -1.3800    0.0150    2.3900 n2        1 AX2     -0.337000
      6 N5          0.6710    0.0000    1.1620 n1        1 AX2     -0.340000
      7 N9          2.7600   -0.0160   -0.0000 n3        1 AX2     -0.332000
      8 N3          0.6710    0.0000   -1.1620 n2        1 AX2     -0.340000
      9 N1         -1.3410    0.0000    0.0000 n2        1 AX2     -0.342000
     10 HN7        -1.6080    0.7920   -2.7850 hn        1 AX2      0.229000
     11 HN7A       -1.6080   -0.7880   -2.7860 hn        1 AX2      0.229000
     12 HN8        -2.2920    0.0180    2.3900 hn        1 AX2      0.229000
     13 HN8A       -0.9240    0.0180    3.1800 hn        1 AX2      0.229000
     14 HN9         3.2160   -0.0200    0.7900 hn        1 AX2      0.227000
     15 HN9A        3.2160   -0.0200   -0.7900 hn        1 AX2      0.227000
@<TRIPOS>BOND
     1    1    8 1   
     2    1    9 1   
     3    2    7 1   
     4    2    8 1   
     5    3    6 1   
     6    3    9 1   
     7    4   10 1   
     8    4   11 1   
     9    5   12 1   
    10    5   13 1   
    11    7   14 1   
    12    7   15 1   
@<TRIPOS>SUBSTRUCTURE
     1 AX2         1 TEMP              0 ****  ****    0 ROOT
