@<TRIPOS>MOLECULE
AX2
   15    15     1     0     0
SMALL
bcc


@<TRIPOS>ATOM
      1 C2          0.0180   -1.3470    0.0230 ca        1 AX2      0.937900
      2 C4          1.1580    0.6890   -0.0250 ca        1 AX2      0.937900
      3 C6         -1.1760    0.6570   -0.0250 ca        1 AX2      0.937900
      4 N7          0.0370   -2.7360    0.1470 nh        1 AX2     -0.937833
      5 N8         -2.3880    1.3350   -0.1260 nh        1 AX2     -0.937833
      6 N5         -0.0190    1.4220    0.0020 nb        1 AX2     -0.866667
      7 N9          2.3510    1.3990   -0.1260 nh        1 AX2     -0.937833
      8 N3          1.2410   -0.6950   -0.0060 nb        1 AX2     -0.866667
      9 N1         -1.2220   -0.7290   -0.0050 nb        1 AX2     -0.866667
     10 HN7         0.8900   -3.1990   -0.0610 hn        1 AX2      0.433133
     11 HN7A       -0.8030   -3.2220   -0.0610 hn        1 AX2      0.433133
     12 HN8        -2.3880    2.3090    0.0610 hn        1 AX2      0.433133
     13 HN8A       -3.2170    0.8290    0.0750 hn        1 AX2      0.433133
     14 HN9         2.3240    2.3730    0.0610 hn        1 AX2      0.433133
     15 HN9A        3.1930    0.9160    0.0740 hn        1 AX2      0.433133
@<TRIPOS>BOND
     1    1    4 1   
     2    1    8 ar  
     3    1    9 ar  
     4    2    6 ar  
     5    2    7 1   
     6    2    8 ar  
     7    3    5 1   
     8    3    6 ar  
     9    3    9 ar  
    10    4   10 1   
    11    4   11 1   
    12    5   12 1   
    13    5   13 1   
    14    7   14 1   
    15    7   15 1   
@<TRIPOS>SUBSTRUCTURE
     1 AX2         1 TEMP              0 ****  ****    0 ROOT
