@<TRIPOS>MOLECULE
AX2
   18    18     1     0     0
SMALL
bcc


@<TRIPOS>ATOM
      1 C2         -0.0030   -0.0110   -0.0080 ca        1 AX2      0.852900
      2 C4          2.0080   -0.0230    1.1520 ca        1 AX2      0.852900
      3 C6         -0.0010    0.0750    2.3130 ca        1 AX2      0.852900
      4 N7         -0.7440   -0.0400   -1.3010 n4        1 AX2     -0.829300
      5 N8         -0.7500    0.1450    3.6000 n4        1 AX2     -0.829300
      6 N5          1.3730    0.0400    2.3770 nb        1 AX2     -0.625000
      7 N9          3.4980   -0.0640    1.1590 n4        1 AX2     -0.829300
      8 N3          1.3760   -0.0520   -0.0700 nb        1 AX2     -0.625000
      9 N1         -0.7450    0.0520    1.1500 nb        1 AX2     -0.625000
     10 HN7        -0.4680    0.7790   -1.8830 hn        1 AX2      0.533467
     11 HN7A       -1.7730   -0.0070   -1.1420 hn        1 AX2      0.533467
     12 HN8        -1.3840   -0.6780    3.6830 hn        1 AX2      0.533467
     13 HN8A       -0.0970    0.1490    4.4120 hn        1 AX2      0.533467
     14 HN9         3.8250   -0.9010    1.6850 hn        1 AX2      0.533467
     15 HN9A        3.8740   -0.1090    0.1880 hn        1 AX2      0.533467
     16 H73        -0.5120   -0.9120   -1.8210 hn        1 AX2      0.533467
     17 H83        -1.3250    1.0130    3.6260 hn        1 AX2      0.533467
     18 H93         3.8720    0.7890    1.6240 hn        1 AX2      0.533467
@<TRIPOS>BOND
     1    1    4 1   
     2    1    8 ar  
     3    1    9 ar  
     4    2    6 ar  
     5    2    7 1   
     6    2    8 ar  
     7    3    5 1   
     8    3    6 ar  
     9    3    9 ar  
    10    4   10 1   
    11    4   11 1   
    12    4   16 1   
    13    5   12 1   
    14    5   13 1   
    15    5   17 1   
    16    7   14 1   
    17    7   15 1   
    18    7   18 1   
@<TRIPOS>SUBSTRUCTURE
     1 AX2         1 TEMP              0 ****  ****    0 ROOT
