@<TRIPOS>MOLECULE
AX2
   15    15     1     0     0
SMALL
bcc


@<TRIPOS>ATOM
      1 C2         -0.0090   -0.0070   -0.0160 ca        1 AX2      0.937900
      2 C4          2.0090    0.0590    1.1560 ca        1 AX2      0.937900
      3 C6         -0.0140   -0.0150    2.3180 ca        1 AX2      0.937900
      4 N7         -0.6990   -0.1170   -1.2230 nv        1 AX2     -0.937833
      5 N8         -0.7120    0.0410    3.5210 nv        1 AX2     -0.937833
      6 N5          1.3710   -0.0130    2.3850 nb        1 AX2     -0.866667
      7 N9          3.3950    0.1910    1.1610 nv        1 AX2     -0.937833
      8 N3          1.3750    0.0540   -0.0780 nb        1 AX2     -0.866667
      9 N1         -0.7600   -0.0230    1.1490 nb        1 AX2     -0.866667
     10 HN7        -1.6730    0.0680   -1.2080 hn        1 AX2      0.433133
     11 HN7A       -0.2060    0.1220   -2.0510 hn        1 AX2      0.433133
     12 HN8        -1.6790   -0.1810    3.5030 hn        1 AX2      0.433133
     13 HN8A       -0.2110   -0.1550    4.3540 hn        1 AX2      0.433133
     14 HN9         3.8730   -0.0060    2.0070 hn        1 AX2      0.433133
     15 HN9A        3.8770    0.0210    0.3110 hn        1 AX2      0.433133
@<TRIPOS>BOND
     1    1    4 1   
     2    1    8 ar  
     3    1    9 ar  
     4    2    6 ar  
     5    2    7 1   
     6    2    8 ar  
     7    3    5 1   
     8    3    6 ar  
     9    3    9 ar  
    10    4   10 1   
    11    4   11 1   
    12    5   12 1   
    13    5   13 1   
    14    7   14 1   
    15    7   15 1   
@<TRIPOS>SUBSTRUCTURE
     1 AX2         1 TEMP              0 ****  ****    0 ROOT
