@<TRIPOS>MOLECULE
AX2
   15    15     1     0     0
SMALL
bcc


@<TRIPOS>ATOM
      1 C2         -0.0110    0.0240   -0.0150 ca        1 AX2      0.937900
      2 C4          2.0080   -0.0830    1.1510 ca        1 AX2      0.937900
      3 C6         -0.0090    0.0220    2.3190 ca        1 AX2      0.937900
      4 N7         -0.7010    0.1520   -1.2200 nh        1 AX2     -0.937833
      5 N8         -0.7060   -0.0280    3.5240 nh        1 AX2     -0.937833
      6 N5          1.3760   -0.0060    2.3830 nb        1 AX2     -0.866667
      7 N9          3.3920   -0.2400    1.1520 nh        1 AX2     -0.937833
      8 N3          1.3710   -0.0620   -0.0810 nb        1 AX2     -0.866667
      9 N1         -0.7580    0.0490    1.1520 nb        1 AX2     -0.866667
     10 HN7        -1.6790   -0.0160   -1.2020 hn        1 AX2      0.433133
     11 HN7A       -0.2150   -0.0920   -2.0500 hn        1 AX2      0.433133
     12 HN8        -0.1990    0.1560    4.3560 hn        1 AX2      0.433133
     13 HN8A       -1.6680    0.2120    3.5100 hn        1 AX2      0.433133
     14 HN9         3.8750   -0.0760    0.3020 hn        1 AX2      0.433133
     15 HN9A        3.8760   -0.0560    1.9980 hn        1 AX2      0.433133
@<TRIPOS>BOND
     1    1    4 1   
     2    1    8 ar  
     3    1    9 ar  
     4    2    6 ar  
     5    2    7 1   
     6    2    8 ar  
     7    3    5 1   
     8    3    6 ar  
     9    3    9 ar  
    10    4   10 1   
    11    4   11 1   
    12    5   12 1   
    13    5   13 1   
    14    7   14 1   
    15    7   15 1   
@<TRIPOS>SUBSTRUCTURE
     1 AX2         1 TEMP              0 ****  ****    0 ROOT
