@<TRIPOS>MOLECULE
AX3
   22    23     1     0     0
SMALL
bcc


@<TRIPOS>ATOM
      1 CAC        -4.0290    0.3670   -0.4400 cx        1 AX3     -0.150900
      2 CAD        -3.4520   -0.1360    0.8490 cx        1 AX3     -0.150900
      3 CAL        -2.6110   -0.1670   -0.4150 cx        1 AX3      0.163500
      4 NAH        -1.5120    0.7100   -0.6440 nh        1 AX3     -0.796900
      5 CAK        -0.2050    0.3210   -0.2920 ca        1 AX3      0.935900
      6 NAG         0.7230    1.3460   -0.1800 nb        1 AX3     -0.857500
      7 NAF         0.0760   -1.0250   -0.1510 nb        1 AX3     -0.857500
      8 CAI         1.4180   -1.3210    0.0460 ca        1 AX3      0.934400
      9 NAA         1.7780   -2.6660    0.0720 nh        1 AX3     -0.936000
     10 NAE         2.4350   -0.3880    0.1730 nb        1 AX3     -0.862000
     11 CAJ         2.0220    0.9320    0.0680 ca        1 AX3      0.934400
     12 NAB         2.9790    1.9220    0.2870 nh        1 AX3     -0.936000
     13 HAC        -4.7930   -0.2330   -0.9660 hc        1 AX3      0.075700
     14 HACA       -4.2090    1.4510   -0.5570 hc        1 AX3      0.075700
     15 HAD        -3.2200    0.5930    1.6460 hc        1 AX3      0.075700
     16 HADA       -3.8020   -1.0970    1.2630 hc        1 AX3      0.075700
     17 HAL        -2.4290   -1.1640   -0.8790 h1        1 AX3      0.116700
     18 HNAH       -1.7100    1.6820   -0.5130 hn        1 AX3      0.427800
     19 HNAA        1.0530   -3.3330    0.1890 hn        1 AX3      0.432800
     20 HNAB        2.6740   -2.8960    0.4290 hn        1 AX3      0.432800
     21 HNAC        2.7560    2.8430   -0.0060 hn        1 AX3      0.432800
     22 HNAD        3.9330    1.6500    0.2380 hn        1 AX3      0.432800
@<TRIPOS>BOND
     1    1    2 1   
     2    1    3 1   
     3    1   13 1   
     4    1   14 1   
     5    2    3 1   
     6    2   15 1   
     7    2   16 1   
     8    3    4 1   
     9    3   17 1   
    10    4    5 1   
    11    4   18 1   
    12    5    6 ar  
    13    5    7 ar  
    14    6   11 ar  
    15    7    8 ar  
    16    8    9 1   
    17    8   10 ar  
    18    9   19 1   
    19    9   20 1   
    20   10   11 ar  
    21   11   12 1   
    22   12   21 1   
    23   12   22 1   
@<TRIPOS>SUBSTRUCTURE
     1 AX3         1 TEMP              0 ****  ****    0 ROOT
