@<TRIPOS>MOLECULE
AX3
   22    23     1     0     0
SMALL
bcc


@<TRIPOS>ATOM
      1 CAC         0.2380   -0.1600   -0.2000 cx        1 AX3     -0.151900
      2 CAD         1.6190    0.0680    0.3390 cx        1 AX3     -0.151900
      3 CAL         0.4400   -0.0090    1.2950 cx        1 AX3      0.164500
      4 NAH         0.2110   -1.1140    2.1630 nh        1 AX3     -0.796900
      5 CAK         0.7000   -1.0990    3.4830 ca        1 AX3      0.936900
      6 NAG         0.7940   -2.3340    4.1080 nb        1 AX3     -0.861500
      7 NAF         0.9890    0.1170    4.0730 nb        1 AX3     -0.861500
      8 CAI         1.3430    0.0420    5.4150 ca        1 AX3      0.939900
      9 NAA         1.5550    1.2420    6.0850 nh        1 AX3     -0.943000
     10 NAE         1.4680   -1.1270    6.1480 nb        1 AX3     -0.867000
     11 CAJ         1.1520   -2.2820    5.4470 ca        1 AX3      0.939900
     12 NAB         1.1660   -3.4810    6.1510 nh        1 AX3     -0.943000
     13 HAC        -0.2800    0.6570   -0.7320 hc        1 AX3      0.075450
     14 HACA       -0.0110   -1.1480   -0.6260 hc        1 AX3      0.075450
     15 HAD         2.3480   -0.7600    0.2970 hc        1 AX3      0.075450
     16 HADA        2.1050    1.0490    0.1930 hc        1 AX3      0.075450
     17 HAL         0.1050    0.9450    1.7650 h1        1 AX3      0.117700
     18 HNAH        0.2190   -2.0110    1.7210 hn        1 AX3      0.427800
     19 HNAA        1.6630    2.0650    5.5430 hn        1 AX3      0.436800
     20 HNAB        1.9920    1.2080    6.9730 hn        1 AX3      0.436800
     21 HNAC        1.6040   -3.4940    7.0400 hn        1 AX3      0.436800
     22 HNAD        1.1360   -4.3260    5.6340 hn        1 AX3      0.436800
@<TRIPOS>BOND
     1    1    2 1   
     2    1    3 1   
     3    1   13 1   
     4    1   14 1   
     5    2    3 1   
     6    2   15 1   
     7    2   16 1   
     8    3    4 1   
     9    3   17 1   
    10    4    5 1   
    11    4   18 1   
    12    5    6 ar  
    13    5    7 ar  
    14    6   11 ar  
    15    7    8 ar  
    16    8    9 1   
    17    8   10 ar  
    18    9   19 1   
    19    9   20 1   
    20   10   11 ar  
    21   11   12 1   
    22   12   21 1   
    23   12   22 1   
@<TRIPOS>SUBSTRUCTURE
     1 AX3         1 TEMP              0 ****  ****    0 ROOT
