@<TRIPOS>MOLECULE
AX3
   22    23     1     0     0
SMALL
bcc


@<TRIPOS>ATOM
      1 CAC         0.2350   -0.1480   -0.1960 cx        1 AX3     -0.150400
      2 CAD         1.6310    0.0020    0.3290 cx        1 AX3     -0.150400
      3 CAL         0.4590    0.0070    1.2950 cx        1 AX3      0.161500
      4 NAH         0.1690   -1.0730    2.1790 nu        1 AX3     -0.793900
      5 CAK         0.6980   -1.0790    3.4860 ca        1 AX3      0.933900
      6 NAG         0.7370   -2.3120    4.1190 nb        1 AX3     -0.857500
      7 NAF         1.0610    0.1240    4.0630 nb        1 AX3     -0.857500
      8 CAI         1.4500    0.0360    5.3940 ca        1 AX3      0.936900
      9 NAA         1.8940    1.2050    6.0060 nv        1 AX3     -0.939500
     10 NAE         1.4720   -1.1260    6.1480 nb        1 AX3     -0.865000
     11 CAJ         1.1370   -2.2740    5.4450 ca        1 AX3      0.936900
     12 NAB         1.2600   -3.4910    6.1110 nv        1 AX3     -0.939500
     13 HAC        -0.2380    0.6930   -0.7330 hc        1 AX3      0.075950
     14 HACA       -0.0780   -1.1240   -0.6080 hc        1 AX3      0.075950
     15 HAD         2.1740    0.9490    0.1680 hc        1 AX3      0.075950
     16 HADA        2.3090   -0.8700    0.2920 hc        1 AX3      0.075950
     17 HAL         0.1870    0.9840    1.7570 h1        1 AX3      0.115700
     18 HNAH        0.1290   -1.9730    1.7440 hn        1 AX3      0.425800
     19 HNAA        1.6850    2.0670    5.5620 hn        1 AX3      0.434800
     20 HNAB        1.9830    1.2040    6.9930 hn        1 AX3      0.434800
     21 HNAC        0.8220   -4.2840    5.7070 hn        1 AX3      0.434800
     22 HNAD        1.3480   -3.4680    7.0990 hn        1 AX3      0.434800
@<TRIPOS>BOND
     1    1    2 1   
     2    1    3 1   
     3    1   13 1   
     4    1   14 1   
     5    2    3 1   
     6    2   15 1   
     7    2   16 1   
     8    3    4 1   
     9    3   17 1   
    10    4    5 1   
    11    4   18 1   
    12    5    6 ar  
    13    5    7 ar  
    14    6   11 ar  
    15    7    8 ar  
    16    8    9 1   
    17    8   10 ar  
    18    9   19 1   
    19    9   20 1   
    20   10   11 ar  
    21   11   12 1   
    22   12   21 1   
    23   12   22 1   
@<TRIPOS>SUBSTRUCTURE
     1 AX3         1 TEMP              0 ****  ****    0 ROOT
