@<TRIPOS>MOLECULE
AX3
   22    21     1     0     0
SMALL
bcc


@<TRIPOS>ATOM
      1 CAC         1.9530   -0.8970   -2.8980 cx        1 AX3     -0.150400
      2 CAD         2.3780    0.3960   -2.2230 cx        1 AX3     -0.150400
      3 CAL         1.0200   -0.2130   -1.9120 cx        1 AX3      0.161500
      4 NAH         0.8990   -0.8450   -0.6240 nh        1 AX3     -0.683000
      5 CAK        -0.0250   -0.3290    0.3430 ce        1 AX3      0.437600
      6 NAG         0.1580   -0.5870    1.6500 ne        1 AX3     -0.700000
      7 NAF        -1.1090    0.3550   -0.0610 n1        1 AX3     -0.324000
      8 CAI        -2.0100    0.7820    0.8410 c1        1 AX3      0.598600
      9 NAA        -3.1660    1.5030    0.4090 n3        1 AX3     -0.802400
     10 NAE        -1.8270    0.5240    2.1470 n1        1 AX3     -0.664800
     11 CAJ        -0.7430   -0.1600    2.5520 c1        1 AX3      0.439400
     12 NAB        -0.5720   -0.4720    3.9360 n3        1 AX3     -0.436400
     13 HAC         1.7020   -0.8220   -3.8450 hc        1 AX3      0.075950
     14 HACA        2.3930   -1.7120   -2.5720 hc        1 AX3      0.075950
     15 HAD         3.0560    0.3060   -1.5190 hc        1 AX3      0.075950
     16 HADA        2.3660    1.1970   -2.7910 hc        1 AX3      0.075950
     17 HAL         0.2470    0.2470   -2.3060 h1        1 AX3      0.115700
     18 HNAH        1.3890   -1.5970   -0.4340 hn        1 AX3      0.425800
     19 HNAA       -3.1860    1.8800   -0.4260 hn        1 AX3      0.434800
     20 HNAB       -3.8820    1.6010    0.9740 hn        1 AX3      0.434800
     21 HNAC        0.2000   -0.8740    4.2230 hn        1 AX3      0.279700
     22 HNAD       -1.2390   -0.2810    4.5350 hn        1 AX3      0.279700
@<TRIPOS>BOND
     1    1    2 1   
     2    1    3 1   
     3    1   13 1   
     4    1   14 1   
     5    2    3 1   
     6    2   15 1   
     7    2   16 1   
     8    3    4 1   
     9    3   17 1   
    10    4    5 1   
    11    4   18 1   
    12    5    6 1   
    13    5    7 2   
    14    6   11 2   
    15    8    9 1   
    16    8   10 3   
    17    9   19 1   
    18    9   20 1   
    19   11   12 2   
    20   12   21 1   
    21   12   22 1   
@<TRIPOS>SUBSTRUCTURE
     1 AX3         1 TEMP              0 ****  ****    0 ROOT
