@<TRIPOS>MOLECULE
AX3
   25    26     1     0     0
SMALL
bcc


@<TRIPOS>ATOM
      1 CAC         0.5030   -0.3260   -0.2550 cx        1 AX3     -0.067900
      2 CAD         1.6590   -1.0330    0.3750 cx        1 AX3     -0.067900
      3 CAL         0.7910   -0.1290    1.2310 cx        1 AX3     -0.059500
      4 NAH        -0.1690   -0.6820    2.2230 n4        1 AX3     -0.712700
      5 CAK         0.4450   -0.7960    3.5820 ca        1 AX3      0.864900
      6 NAG         0.9060   -2.0370    3.9760 nb        1 AX3     -0.632500
      7 NAF         0.5140    0.3490    4.3480 nb        1 AX3     -0.632500
      8 CAI         1.0920    0.1840    5.5880 ca        1 AX3      0.843400
      9 NAA         1.1850    1.3880    6.4620 n4        1 AX3     -0.828300
     10 NAE         1.5860   -1.0000    6.0880 nb        1 AX3     -0.638000
     11 CAJ         1.4630   -2.0760    5.2330 ca        1 AX3      0.843400
     12 NAB         1.9730   -3.3900    5.7210 n4        1 AX3     -0.828300
     13 HAC         0.6700    0.5560   -0.9130 hc        1 AX3      0.138700
     14 HACA       -0.3760   -0.9130   -0.5910 hc        1 AX3      0.138700
     15 HAD         1.6100   -2.1340    0.4900 hc        1 AX3      0.138700
     16 HADA        2.6970   -0.6920    0.1700 hc        1 AX3      0.138700
     17 HAL         1.1790    0.8580    1.5780 hx        1 AX3      0.160700
     18 HNAH       -0.9880   -0.0420    2.2740 hn        1 AX3      0.512300
     19 HNAA        0.2290    1.7450    6.6670 hn        1 AX3      0.529467
     20 HNAB        1.7230    2.1340    5.9770 hn        1 AX3      0.529467
     21 HNAC        2.9860   -3.3130    5.9440 hn        1 AX3      0.529467
     22 HNAD        1.8420   -4.1290    5.0000 hn        1 AX3      0.529467
     23 HAH2       -0.4960   -1.6170    1.9090 hn        1 AX3      0.512300
     24 HAA3        1.6590    1.1600    7.3600 hn        1 AX3      0.529467
     25 HAB3        1.4610   -3.6660    6.5830 hn        1 AX3      0.529467
@<TRIPOS>BOND
     1    1    2 1   
     2    1    3 1   
     3    1   13 1   
     4    1   14 1   
     5    2    3 1   
     6    2   15 1   
     7    2   16 1   
     8    3    4 1   
     9    3   17 1   
    10    4    5 1   
    11    4   18 1   
    12    4   23 1   
    13    5    6 ar  
    14    5    7 ar  
    15    6   11 ar  
    16    7    8 ar  
    17    8    9 1   
    18    8   10 ar  
    19    9   19 1   
    20    9   20 1   
    21    9   24 1   
    22   10   11 ar  
    23   11   12 1   
    24   12   21 1   
    25   12   22 1   
    26   12   25 1   
@<TRIPOS>SUBSTRUCTURE
     1 AX3         1 TEMP              0 ****  ****    0 ROOT
