@<TRIPOS>MOLECULE
AX4
   28    29     1     0     0
SMALL
bcc


@<TRIPOS>ATOM
      1 C4         -1.3070   -0.4020    0.0950 ca        1 AX4      0.568600
      2 C5         -2.5870   -0.9770    0.1860 ca        1 AX4     -0.473600
      3 C6         -3.7060   -0.1090    0.0090 ca        1 AX4      0.713200
      4 N1         -3.5440    1.2230   -0.2740 nb        1 AX4     -0.820000
      5 N3         -1.1000    0.9030   -0.1680 nb        1 AX4     -0.790000
      6 CAF         2.3930   -0.9300    1.2240 ca        1 AX4     -0.074500
      7 CAD         3.6810   -0.4150    1.1250 ca        1 AX4     -0.142500
      8 CAL         4.0490    0.3640    0.0210 ca        1 AX4     -0.054300
      9 CAA         5.4220    0.9090   -0.0860 c3        1 AX4     -0.057800
     10 CAE         3.1060    0.6100   -0.9830 ca        1 AX4     -0.142500
     11 CAG         1.8210    0.0780   -0.8930 ca        1 AX4     -0.074500
     12 CAO         1.4550   -0.6980    0.2100 ca        1 AX4     -0.049100
     13 SAK        -0.0350   -1.5030    0.3640 ss        1 AX4     -0.180200
     14 C2         -2.2400    1.6760   -0.3640 ca        1 AX4      0.904900
     15 NAC        -2.0520    3.0100   -0.7510 nh        1 AX4     -0.924500
     16 NAB        -4.9940   -0.6040    0.1940 nh        1 AX4     -0.940500
     17 H5         -2.7120   -2.0430    0.4040 ha        1 AX4      0.157000
     18 HAF         2.1060   -1.5260    2.1050 ha        1 AX4      0.145000
     19 HAD         4.4130   -0.6120    1.9230 ha        1 AX4      0.134000
     20 HAA         6.0930    0.1570   -0.5740 hc        1 AX4      0.046700
     21 HAAA        5.4370    1.8420   -0.7010 hc        1 AX4      0.046700
     22 HAAB        5.8380    1.1440    0.9250 hc        1 AX4      0.046700
     23 HAE         3.3810    1.2260   -1.8520 ha        1 AX4      0.134000
     24 HAG         1.0930    0.2780   -1.6950 ha        1 AX4      0.145000
     25 HNAC       -2.8290    3.6170   -0.6260 hn        1 AX4      0.423300
     26 HNAA       -1.1610    3.4020   -0.5480 hn        1 AX4      0.423300
     27 HNAB       -5.0960   -1.5820    0.0580 hn        1 AX4      0.417800
     28 HNAD       -5.7530   -0.0410   -0.1150 hn        1 AX4      0.417800
@<TRIPOS>BOND
     1    1    2 ar  
     2    1    5 ar  
     3    1   13 1   
     4    2    3 ar  
     5    2   17 1   
     6    3    4 ar  
     7    3   16 1   
     8    4   14 ar  
     9    5   14 ar  
    10    6    7 ar  
    11    6   12 ar  
    12    6   18 1   
    13    7    8 ar  
    14    7   19 1   
    15    8    9 1   
    16    8   10 ar  
    17    9   20 1   
    18    9   21 1   
    19    9   22 1   
    20   10   11 ar  
    21   10   23 1   
    22   11   12 ar  
    23   11   24 1   
    24   12   13 1   
    25   14   15 1   
    26   15   25 1   
    27   15   26 1   
    28   16   27 1   
    29   16   28 1   
@<TRIPOS>SUBSTRUCTURE
     1 AX4         1 TEMP              0 ****  ****    0 ROOT
