@<TRIPOS>MOLECULE
AX4
   30    31     1     0     0
SMALL
bcc


@<TRIPOS>ATOM
      1 C4         -0.1020   -0.0870    0.2920 ca        1 AX4      0.462600
      2 C5          1.3250    0.0110    0.0490 ca        1 AX4     -0.303600
      3 C6          2.1620    0.0640    1.1560 ca        1 AX4      0.537200
      4 N1          1.7130    0.0300    2.4600 nb        1 AX4     -0.749000
      5 N3         -0.5770   -0.1230    1.5760 nb        1 AX4     -0.694000
      6 CAF        -3.4420    0.9030   -0.5730 ca        1 AX4     -0.030000
      7 CAD        -4.8210    0.8080   -0.4550 ca        1 AX4     -0.149000
      8 CAL        -5.4480   -0.4480   -0.4040 ca        1 AX4      0.041700
      9 CAA        -6.9190   -0.5490   -0.3080 c3        1 AX4     -0.090800
     10 CAE        -4.6570   -1.6080   -0.4620 ca        1 AX4     -0.149000
     11 CAG        -3.2770   -1.5150   -0.5800 ca        1 AX4     -0.030000
     12 CAO        -2.6510   -0.2580   -0.6540 ca        1 AX4     -0.231100
     13 SAK        -1.0390   -0.1470   -1.0490 ss        1 AX4      0.208800
     14 C2          0.3540   -0.0630    2.5710 ca        1 AX4      0.794900
     15 NAC        -0.1850   -0.1030    3.9670 n4        1 AX4     -0.821300
     16 NAB         3.6280    0.1650    0.9800 n4        1 AX4     -0.824300
     17 H5          1.6820    0.0380   -0.9950 ha        1 AX4      0.206000
     18 HAF        -2.9680    1.8970   -0.6240 ha        1 AX4      0.147000
     19 HAD        -5.4340    1.7240   -0.4120 ha        1 AX4      0.170000
     20 HAA        -7.3520    0.3320    0.2290 hc        1 AX4      0.078367
     21 HAAA       -7.2290   -1.4820    0.2240 hc        1 AX4      0.078367
     22 HAAB       -7.3590   -0.5760   -1.3410 hc        1 AX4      0.078367
     23 HAE        -5.1400   -2.5990   -0.4240 ha        1 AX4      0.170000
     24 HAG        -2.6730   -2.4350   -0.6360 ha        1 AX4      0.147000
     25 HNAC       -0.7080   -0.9820    4.0990 hn        1 AX4      0.495133
     26 HNAA       -0.8240    0.6940    4.1040 hn        1 AX4      0.495133
     27 HNAB        3.9790    1.0270    1.4230 hn        1 AX4      0.489800
     28 HNAD        3.8500    0.1820   -0.0240 hn        1 AX4      0.489800
     29 HAC3        0.5810   -0.0520    4.6550 hn        1 AX4      0.495133
     30 HAB3        4.0930   -0.6450    1.4190 hn        1 AX4      0.489800
@<TRIPOS>BOND
     1    1    2 ar  
     2    1    5 ar  
     3    1   13 1   
     4    2    3 ar  
     5    2   17 1   
     6    3    4 ar  
     7    3   16 1   
     8    4   14 ar  
     9    5   14 ar  
    10    6    7 ar  
    11    6   12 ar  
    12    6   18 1   
    13    7    8 ar  
    14    7   19 1   
    15    8    9 1   
    16    8   10 ar  
    17    9   20 1   
    18    9   21 1   
    19    9   22 1   
    20   10   11 ar  
    21   10   23 1   
    22   11   12 ar  
    23   11   24 1   
    24   12   13 1   
    25   14   15 1   
    26   15   25 1   
    27   15   26 1   
    28   15   29 1   
    29   16   27 1   
    30   16   28 1   
    31   16   30 1   
@<TRIPOS>SUBSTRUCTURE
     1 AX4         1 TEMP              0 ****  ****    0 ROOT
