@<TRIPOS>MOLECULE
AX4
   28    29     1     0     0
SMALL
bcc


@<TRIPOS>ATOM
      1 C4         -0.0350   -0.1570    0.2810 ca        1 AX4      0.569600
      2 C5          1.3540   -0.1400    0.0560 ca        1 AX4     -0.475600
      3 C6          2.1920    0.1660    1.1700 ca        1 AX4      0.716200
      4 N1          1.6700    0.4110    2.4150 nb        1 AX4     -0.822000
      5 N3         -0.5920    0.1060    1.4790 nb        1 AX4     -0.791000
      6 CAF        -3.2570    0.5310   -0.0860 ca        1 AX4     -0.075000
      7 CAD        -4.6380    0.5040    0.1000 ca        1 AX4     -0.142500
      8 CAL        -5.3920   -0.5900   -0.3380 ca        1 AX4     -0.054300
      9 CAA        -6.8620   -0.6110   -0.1620 c3        1 AX4     -0.057800
     10 CAE        -4.7390   -1.6650   -0.9560 ca        1 AX4     -0.142500
     11 CAG        -3.3580   -1.6450   -1.1240 ca        1 AX4     -0.075000
     12 CAO        -2.6060   -0.5410   -0.7010 ca        1 AX4     -0.049100
     13 SAK        -0.9520   -0.5600   -1.0970 ss        1 AX4     -0.181200
     14 C2          0.2900    0.4070    2.5110 ca        1 AX4      0.907900
     15 NAC        -0.2660    0.7860    3.7400 nv        1 AX4     -0.926500
     16 NAB         3.5670    0.2690    0.9860 nv        1 AX4     -0.942500
     17 H5          1.7660   -0.3440   -0.9380 ha        1 AX4      0.157000
     18 HAF        -2.6800    1.4030    0.2600 ha        1 AX4      0.145500
     19 HAD        -5.1380    1.3510    0.5930 ha        1 AX4      0.134500
     20 HAA        -7.2300   -1.6520    0.0080 hc        1 AX4      0.046367
     21 HAAA       -7.3600   -0.2100   -1.0810 hc        1 AX4      0.046367
     22 HAAB       -7.1720    0.0210    0.7070 hc        1 AX4      0.046367
     23 HAE        -5.3210   -2.5320   -1.3010 ha        1 AX4      0.134500
     24 HAG        -2.8500   -2.5020   -1.5950 ha        1 AX4      0.145500
     25 HNAC        0.3370    0.7530    4.5290 hn        1 AX4      0.424300
     26 HNAA       -1.2090    0.5160    3.8990 hn        1 AX4      0.424300
     27 HNAB        4.1430    0.3040    1.7950 hn        1 AX4      0.418800
     28 HNAD        3.9330   -0.2300    0.2110 hn        1 AX4      0.418800
@<TRIPOS>BOND
     1    1    2 ar  
     2    1    5 ar  
     3    1   13 1   
     4    2    3 ar  
     5    2   17 1   
     6    3    4 ar  
     7    3   16 1   
     8    4   14 ar  
     9    5   14 ar  
    10    6    7 ar  
    11    6   12 ar  
    12    6   18 1   
    13    7    8 ar  
    14    7   19 1   
    15    8    9 1   
    16    8   10 ar  
    17    9   20 1   
    18    9   21 1   
    19    9   22 1   
    20   10   11 ar  
    21   10   23 1   
    22   11   12 ar  
    23   11   24 1   
    24   12   13 1   
    25   14   15 1   
    26   15   25 1   
    27   15   26 1   
    28   16   27 1   
    29   16   28 1   
@<TRIPOS>SUBSTRUCTURE
     1 AX4         1 TEMP              0 ****  ****    0 ROOT
