@<TRIPOS>MOLECULE
AX4
   28    23     1     0     0
SMALL
bcc


@<TRIPOS>ATOM
      1 C4          1.5910    1.1300    0.0420 c1        1 AX4      0.465900
      2 C5          2.9160    0.8020    0.0640 c1        1 AX4     -0.290500
      3 C6          3.6100    0.8470    1.2380 c1        1 AX4      0.251800
      4 N1          2.9900    1.2130    2.3700 n1        1 AX4     -0.624800
      5 N3          0.9720    1.4950    1.1750 n1        1 AX4     -0.592800
      6 CAF        -0.6130   -1.2190   -1.6140 c1        1 AX4     -0.055000
      7 CAD        -1.7470   -2.0150   -1.6260 c1        1 AX4     -0.055000
      8 CAL        -2.9950   -1.4460   -1.4230 c1        1 AX4     -0.019100
      9 CAA        -4.2360   -2.3040   -1.4960 c3        1 AX4     -0.092000
     10 CAE        -3.1070   -0.0820   -1.2100 c1        1 AX4     -0.085500
     11 CAG        -1.9730    0.7140   -1.1990 c1        1 AX4     -0.006500
     12 CAO        -0.7250    0.1450   -1.4010 c1        1 AX4     -0.048900
     13 SAK         0.7150    1.1800   -1.5030 ss        1 AX4     -0.079200
     14 C2          1.6670    1.5400    2.3480 c1        1 AX4      0.575600
     15 NAC         1.0210    1.9650    3.5390 n3        1 AX4     -0.796400
     16 NAB         4.9920    0.5210    1.2600 n3        1 AX4     -0.805400
     17 H5          3.3670    0.5360   -0.7600 ha        1 AX4      0.099500
     18 HAF         0.2660   -1.6200   -1.7570 ha        1 AX4      0.080500
     19 HAD        -1.6680   -2.9770   -1.7760 ha        1 AX4      0.080500
     20 HAA        -4.4000   -2.5630   -2.4260 hc        1 AX4      0.046700
     21 HAAA       -5.0030   -1.7970   -1.1580 hc        1 AX4      0.046700
     22 HAAB       -4.1100   -3.1070   -0.9500 hc        1 AX4      0.046700
     23 HAE        -3.9870    0.3190   -1.0670 ha        1 AX4      0.075500
     24 HAG        -2.0530    1.6750   -1.0480 ha        1 AX4      0.087500
     25 HNAC        1.4130    1.8120    4.3510 hn        1 AX4      0.427800
     26 HNAA        0.2260    2.4130    3.4920 hn        1 AX4      0.427800
     27 HNAB        5.4470    0.5070    2.0530 hn        1 AX4      0.418800
     28 HNAD        5.4250    0.3140    0.4820 hn        1 AX4      0.418800
@<TRIPOS>BOND
     1    1    5 3   
     2    1   13 1   
     3    2    3 3   
     4    2   17 1   
     5    3   16 1   
     6    4   14 3   
     7    6    7 3   
     8    6   18 1   
     9    7   19 1   
    10    8    9 1   
    11    8   10 3   
    12    9   20 1   
    13    9   21 1   
    14    9   22 1   
    15   10   23 1   
    16   11   12 3   
    17   11   24 1   
    18   12   13 1   
    19   14   15 1   
    20   15   25 1   
    21   15   26 1   
    22   16   27 1   
    23   16   28 1   
@<TRIPOS>SUBSTRUCTURE
     1 AX4         1 TEMP              0 ****  ****    0 ROOT
