@<TRIPOS>MOLECULE
AX4
   28    29     1     0     0
SMALL
bcc


@<TRIPOS>ATOM
      1 C4         -0.0480    0.0280    0.2910 ca        1 AX4      0.568600
      2 C5          1.3300    0.2060    0.0680 ca        1 AX4     -0.473600
      3 C6          2.1980    0.0530    1.1900 ca        1 AX4      0.713200
      4 N1          1.7170   -0.2890    2.4280 nb        1 AX4     -0.820000
      5 N3         -0.5650   -0.2940    1.4930 nb        1 AX4     -0.790000
      6 CAF        -3.5490    0.9890   -1.1430 ca        1 AX4     -0.074500
      7 CAD        -4.9180    0.8060   -0.9790 ca        1 AX4     -0.142000
      8 CAL        -5.4080   -0.3450   -0.3470 ca        1 AX4     -0.054300
      9 CAA        -6.8660   -0.5390   -0.1760 c3        1 AX4     -0.057800
     10 CAE        -4.5020   -1.3080    0.1090 ca        1 AX4     -0.142000
     11 CAG        -3.1310   -1.1330   -0.0730 ca        1 AX4     -0.074500
     12 CAO        -2.6440    0.0150   -0.7020 ca        1 AX4     -0.049100
     13 SAK        -1.0090    0.2750   -1.0930 ss        1 AX4     -0.180200
     14 C2          0.3490   -0.4610    2.5280 ca        1 AX4      0.904900
     15 NAC        -0.1510   -0.9070    3.7600 nh        1 AX4     -0.924500
     16 NAB         3.5570    0.3210    1.0470 nh        1 AX4     -0.940500
     17 H5          1.7100    0.4700   -0.9250 ha        1 AX4      0.157000
     18 HAF        -3.1710    1.9060   -1.6240 ha        1 AX4      0.145000
     19 HAD        -5.6210    1.5730   -1.3380 ha        1 AX4      0.134000
     20 HAA        -7.2990   -0.9990   -1.1010 hc        1 AX4      0.046700
     21 HAAA       -7.3800    0.4370    0.0020 hc        1 AX4      0.046700
     22 HAAB       -7.0830   -1.2170    0.6860 hc        1 AX4      0.046700
     23 HAE        -4.8730   -2.2130    0.6120 ha        1 AX4      0.134000
     24 HAG        -2.4330   -1.9050    0.2880 ha        1 AX4      0.145000
     25 HNAC        0.4370   -0.7660    4.5480 hn        1 AX4      0.423300
     26 HNAA       -1.1230   -0.7640    3.9130 hn        1 AX4      0.423300
     27 HNAB        4.1640    0.0290    1.7780 hn        1 AX4      0.417800
     28 HNAD        3.9120    0.2270    0.1250 hn        1 AX4      0.417800
@<TRIPOS>BOND
     1    1    2 ar  
     2    1    5 ar  
     3    1   13 1   
     4    2    3 ar  
     5    2   17 1   
     6    3    4 ar  
     7    3   16 1   
     8    4   14 ar  
     9    5   14 ar  
    10    6    7 ar  
    11    6   12 ar  
    12    6   18 1   
    13    7    8 ar  
    14    7   19 1   
    15    8    9 1   
    16    8   10 ar  
    17    9   20 1   
    18    9   21 1   
    19    9   22 1   
    20   10   11 ar  
    21   10   23 1   
    22   11   12 ar  
    23   11   24 1   
    24   12   13 1   
    25   14   15 1   
    26   15   25 1   
    27   15   26 1   
    28   16   27 1   
    29   16   28 1   
@<TRIPOS>SUBSTRUCTURE
     1 AX4         1 TEMP              0 ****  ****    0 ROOT
