@<TRIPOS>MOLECULE
AX5
   28    29     1     0     0
SMALL
bcc


@<TRIPOS>ATOM
      1 C4         -1.3650   -0.1920   -0.0200 ca        1 AX5      0.578600
      2 C5         -2.3120   -1.2300   -0.0200 ca        1 AX5     -0.470600
      3 C6         -3.6900   -0.8570   -0.0250 ca        1 AX5      0.713200
      4 N1         -4.0780    0.4580    0.0070 nb        1 AX5     -0.821000
      5 N3         -1.7010    1.1160   -0.0090 nb        1 AX5     -0.805000
      6 CAF         3.3390    0.1740   -1.2100 ca        1 AX5     -0.111000
      7 CAD         4.6770   -0.2140   -1.2020 ca        1 AX5     -0.132000
      8 CAC         5.3420   -0.4140    0.0080 ca        1 AX5     -0.122000
      9 CAE         4.6640   -0.2250    1.2120 ca        1 AX5     -0.132000
     10 CAG         3.3250    0.1630    1.2090 ca        1 AX5     -0.111000
     11 CAN         2.6520    0.3630   -0.0040 ca        1 AX5     -0.086300
     12 CAI         1.2360    0.7910   -0.0100 c3        1 AX5      0.024000
     13 SAL         0.2610   -0.6950   -0.0410 ss        1 AX5     -0.251400
     14 C2         -3.0620    1.3970    0.0270 ca        1 AX5      0.907900
     15 NAB        -3.4370    2.7410    0.1610 nh        1 AX5     -0.926500
     16 NAA        -4.6670   -1.8430   -0.1320 nh        1 AX5     -0.940500
     17 H5         -1.9980   -2.2790   -0.0330 ha        1 AX5      0.158000
     18 HAD         5.2100   -0.3620   -2.1530 ha        1 AX5      0.133000
     19 HAC         6.3980   -0.7210    0.0120 ha        1 AX5      0.132000
     20 HAE         5.1850   -0.3810    2.1680 ha        1 AX5      0.133000
     21 HAG         2.7930    0.3120    2.1600 ha        1 AX5      0.137000
     22 HAI         0.9910    1.3950    0.8990 h1        1 AX5      0.085700
     23 HAIA        1.0070    1.4210   -0.9050 h1        1 AX5      0.085700
     24 HNAB       -4.3770    2.9610   -0.0790 hn        1 AX5      0.423300
     25 HNAA       -2.7540    3.4150   -0.0960 hn        1 AX5      0.423300
     26 HNAC       -4.3950   -2.7440    0.1800 hn        1 AX5      0.418300
     27 HNAD       -5.6080   -1.5830    0.0570 hn        1 AX5      0.418300
     28 HAF         2.8170    0.3310   -2.1670 ha        1 AX5      0.137000
@<TRIPOS>BOND
     1    1    2 ar  
     2    1    5 ar  
     3    1   13 1   
     4    2    3 ar  
     5    2   17 1   
     6    3    4 ar  
     7    3   16 1   
     8    4   14 ar  
     9    5   14 ar  
    10    6    7 ar  
    11    6   11 ar  
    12    6   28 1   
    13    7    8 ar  
    14    7   18 1   
    15    8    9 ar  
    16    8   19 1   
    17    9   10 ar  
    18    9   20 1   
    19   10   11 ar  
    20   10   21 1   
    21   11   12 1   
    22   12   13 1   
    23   12   22 1   
    24   12   23 1   
    25   14   15 1   
    26   15   24 1   
    27   15   25 1   
    28   16   26 1   
    29   16   27 1   
@<TRIPOS>SUBSTRUCTURE
     1 AX5         1 TEMP              0 ****  ****    0 ROOT
