@<TRIPOS>MOLECULE
AX5
   28    23     1     0     0
SMALL
bcc


@<TRIPOS>ATOM
      1 C4          0.2370   -1.1310    1.2410 c1        1 AX5      0.474900
      2 C5          1.2980   -1.6350    1.9360 c1        1 AX5     -0.284500
      3 C6          1.0970   -2.2400    3.1430 c1        1 AX5      0.250800
      4 N1         -0.1440   -2.3380    3.6450 n1        1 AX5     -0.623800
      5 N3         -1.0020   -1.2300    1.7460 n1        1 AX5     -0.605800
      6 CAF        -0.5070    0.7980   -3.0530 c1        1 AX5     -0.054500
      7 CAD        -0.2780    1.2890   -4.3290 c1        1 AX5     -0.066500
      8 CAC         0.2060    2.5760   -4.5000 c1        1 AX5     -0.066500
      9 CAE         0.4610    3.3730   -3.3950 c1        1 AX5     -0.066500
     10 CAG         0.2320    2.8820   -2.1190 c1        1 AX5     -0.066500
     11 CAN        -0.2520    1.5950   -1.9480 c1        1 AX5     -0.052100
     12 CAI        -0.4440    1.0370   -0.5530 c3        1 AX5     -0.009200
     13 SAL         0.4800   -0.4660   -0.3850 ss        1 AX5     -0.150200
     14 C2         -1.2020   -1.8350    2.9510 c1        1 AX5      0.573600
     15 NAB        -2.5160   -1.9640    3.4700 n3        1 AX5     -0.791400
     16 NAA         2.1870   -2.8390    3.8260 n3        1 AX5     -0.806400
     17 H5          2.2000   -1.5630    1.5710 ha        1 AX5      0.100500
     18 HAF        -0.8480   -0.1090   -2.9330 ha        1 AX5      0.078500
     19 HAD        -0.4580    0.7280   -5.1070 ha        1 AX5      0.076750
     20 HAC         0.3670    2.9220   -5.3990 ha        1 AX5      0.076750
     21 HAE         0.8020    4.2800   -3.5150 ha        1 AX5      0.076750
     22 HAG         0.4120    3.4430   -1.3410 ha        1 AX5      0.076750
     23 HAI        -0.1290    1.6890    0.1050 h1        1 AX5      0.085700
     24 HAIA       -1.3940    0.8550   -0.4030 h1        1 AX5      0.085700
     25 HNAB       -3.2380   -1.8090    2.9310 hn        1 AX5      0.424300
     26 HNAA       -2.6410   -2.2220    4.3380 hn        1 AX5      0.424300
     27 HNAC        2.0470   -3.2740    4.6170 hn        1 AX5      0.419300
     28 HNAD        3.0250   -2.8140    3.4600 hn        1 AX5      0.419300
@<TRIPOS>BOND
     1    1    5 3   
     2    1   13 1   
     3    2    3 3   
     4    2   17 1   
     5    3   16 1   
     6    4   14 3   
     7    6   11 3   
     8    6   18 1   
     9    7    8 3   
    10    7   19 1   
    11    8   20 1   
    12    9   10 3   
    13    9   21 1   
    14   10   22 1   
    15   11   12 1   
    16   12   13 1   
    17   12   23 1   
    18   12   24 1   
    19   14   15 1   
    20   15   25 1   
    21   15   26 1   
    22   16   27 1   
    23   16   28 1   
@<TRIPOS>SUBSTRUCTURE
     1 AX5         1 TEMP              0 ****  ****    0 ROOT
