@<TRIPOS>MOLECULE
AX5
   30    31     1     0     0
SMALL
bcc


@<TRIPOS>ATOM
      1 C4         -0.3190   -0.0040    0.2220 ca        1 AX5      0.490600
      2 C5          1.1110    0.0050   -0.0120 ca        1 AX5     -0.294600
      3 C6          1.9430   -0.0060    1.1020 ca        1 AX5      0.535200
      4 N1          1.4810   -0.0240    2.4030 nb        1 AX5     -0.743000
      5 N3         -0.8060   -0.0210    1.5030 nb        1 AX5     -0.715000
      6 CAF        -3.9680   -1.1960   -2.6060 ca        1 AX5     -0.090000
      7 CAD        -4.6150   -1.1790   -3.8380 ca        1 AX5     -0.122000
      8 CAC        -4.9430    0.0370   -4.4420 ca        1 AX5     -0.066000
      9 CAE        -4.6240    1.2400   -3.8080 ca        1 AX5     -0.122000
     10 CAG        -3.9770    1.2310   -2.5750 ca        1 AX5     -0.090000
     11 CAN        -3.6400    0.0110   -1.9670 ca        1 AX5     -0.172300
     12 CAI        -2.9920   -0.0030   -0.6420 c3        1 AX5      0.019000
     13 SAL        -1.2740    0.0090   -1.1040 ss        1 AX5      0.063600
     14 C2          0.1200   -0.0300    2.5060 ca        1 AX5      0.800900
     15 NAB        -0.4280   -0.0490    3.8990 n4        1 AX5     -0.822300
     16 NAA         3.4130    0.0020    0.9370 n4        1 AX5     -0.824300
     17 H5          1.4750    0.0190   -1.0540 ha        1 AX5      0.210000
     18 HAC        -5.4610    0.0470   -5.4150 ha        1 AX5      0.166000
     19 HAE        -4.8930    2.1990   -4.2800 ha        1 AX5      0.163000
     20 HAG        -3.7450    2.1830   -2.0730 ha        1 AX5      0.138000
     21 HAI        -3.2560    0.8950   -0.0310 h1        1 AX5      0.106700
     22 HAIA       -3.2490   -0.9180   -0.0540 h1        1 AX5      0.106700
     23 HNAB       -1.0080   -0.8930    4.0210 hn        1 AX5      0.495800
     24 HNAA       -1.0140    0.7870    4.0420 hn        1 AX5      0.495800
     25 HNAC        3.8220   -0.8410    1.3710 hn        1 AX5      0.490800
     26 HNAD        3.6440    0.0150   -0.0660 hn        1 AX5      0.490800
     27 HAF        -3.7280   -2.1580   -2.1270 ha        1 AX5      0.138000
     28 HAB3        0.3360   -0.0550    4.5910 hn        1 AX5      0.495800
     29 HAA3        3.8160    0.8360    1.3910 hn        1 AX5      0.490800
     30 HAD        -4.8770   -2.1280   -4.3340 ha        1 AX5      0.163000
@<TRIPOS>BOND
     1    1    2 ar  
     2    1    5 ar  
     3    1   13 1   
     4    2    3 ar  
     5    2   17 1   
     6    3    4 ar  
     7    3   16 1   
     8    4   14 ar  
     9    5   14 ar  
    10    6    7 ar  
    11    6   11 ar  
    12    6   27 1   
    13    7    8 ar  
    14    7   30 1   
    15    8    9 ar  
    16    8   18 1   
    17    9   10 ar  
    18    9   19 1   
    19   10   11 ar  
    20   10   20 1   
    21   11   12 1   
    22   12   13 1   
    23   12   21 1   
    24   12   22 1   
    25   14   15 1   
    26   15   23 1   
    27   15   24 1   
    28   15   28 1   
    29   16   25 1   
    30   16   26 1   
    31   16   29 1   
@<TRIPOS>SUBSTRUCTURE
     1 AX5         1 TEMP              0 ****  ****    0 ROOT
