@<TRIPOS>MOLECULE
AX5
   28    29     1     0     0
SMALL
bcc


@<TRIPOS>ATOM
      1 C4         -0.1730    0.0230    0.1630 ca        1 AX5      0.579600
      2 C5          1.2200    0.0520   -0.0190 ca        1 AX5     -0.472600
      3 C6          2.0320    0.0630    1.1550 ca        1 AX5      0.716200
      4 N1          1.4800    0.0260    2.4100 nb        1 AX5     -0.824000
      5 N3         -0.7600    0.0090    1.3790 nb        1 AX5     -0.806000
      6 CAF        -3.9970   -1.2150   -2.5940 ca        1 AX5     -0.111000
      7 CAD        -4.7690   -1.2100   -3.7530 ca        1 AX5     -0.132000
      8 CAC        -5.1550   -0.0010   -4.3330 ca        1 AX5     -0.122000
      9 CAE        -4.7660    1.2050   -3.7490 ca        1 AX5     -0.132000
     10 CAG        -3.9940    1.2040   -2.5900 ca        1 AX5     -0.111000
     11 CAN        -3.6010   -0.0070   -2.0040 ca        1 AX5     -0.086300
     12 CAI        -2.7950   -0.0100   -0.7640 c3        1 AX5      0.025000
     13 SAL        -1.0910   -0.0030   -1.2710 ss        1 AX5     -0.252400
     14 C2          0.0980    0.0380    2.4720 ca        1 AX5      0.910900
     15 NAB        -0.4830    0.1360    3.7420 nv        1 AX5     -0.928500
     16 NAA         3.4130    0.1640    1.0320 nv        1 AX5     -0.943500
     17 H5          1.6560    0.0760   -1.0230 ha        1 AX5      0.158000
     18 HAD        -5.0750   -2.1620   -4.2110 ha        1 AX5      0.133500
     19 HAC        -5.7650    0.0020   -5.2480 ha        1 AX5      0.132000
     20 HAE        -5.0690    2.1590   -4.2040 ha        1 AX5      0.133500
     21 HAG        -3.6880    2.1570   -2.1310 ha        1 AX5      0.137000
     22 HAI        -3.0100   -0.9140   -0.1430 h1        1 AX5      0.085700
     23 HAIA       -3.0140    0.8890   -0.1360 h1        1 AX5      0.085700
     24 HNAB        0.0980   -0.0900    4.5160 hn        1 AX5      0.424300
     25 HNAA       -1.4370   -0.1310    3.8150 hn        1 AX5      0.424300
     26 HNAC        3.9670   -0.0070    1.8390 hn        1 AX5      0.419300
     27 HNAD        3.7900   -0.1430    0.1670 hn        1 AX5      0.419300
     28 HAF        -3.6940   -2.1700   -2.1390 ha        1 AX5      0.137000
@<TRIPOS>BOND
     1    1    2 ar  
     2    1    5 ar  
     3    1   13 1   
     4    2    3 ar  
     5    2   17 1   
     6    3    4 ar  
     7    3   16 1   
     8    4   14 ar  
     9    5   14 ar  
    10    6    7 ar  
    11    6   11 ar  
    12    6   28 1   
    13    7    8 ar  
    14    7   18 1   
    15    8    9 ar  
    16    8   19 1   
    17    9   10 ar  
    18    9   20 1   
    19   10   11 ar  
    20   10   21 1   
    21   11   12 1   
    22   12   13 1   
    23   12   22 1   
    24   12   23 1   
    25   14   15 1   
    26   15   24 1   
    27   15   25 1   
    28   16   26 1   
    29   16   27 1   
@<TRIPOS>SUBSTRUCTURE
     1 AX5         1 TEMP              0 ****  ****    0 ROOT
