@<TRIPOS>MOLECULE
AX5
   28    29     1     0     0
SMALL
bcc


@<TRIPOS>ATOM
      1 C4         -0.1730    0.0150    0.1610 ca        1 AX5      0.578600
      2 C5          1.2200    0.0600   -0.0220 ca        1 AX5     -0.470600
      3 C6          2.0330    0.0580    1.1520 ca        1 AX5      0.713200
      4 N1          1.4820    0.0510    2.4070 nb        1 AX5     -0.821000
      5 N3         -0.7580   -0.0130    1.3780 nb        1 AX5     -0.805000
      6 CAF        -3.9730   -1.2400   -2.6090 ca        1 AX5     -0.111000
      7 CAD        -4.7470   -1.2340   -3.7680 ca        1 AX5     -0.132000
      8 CAC        -5.1580   -0.0260   -4.3300 ca        1 AX5     -0.122000
      9 CAE        -4.7940    1.1790   -3.7300 ca        1 AX5     -0.132000
     10 CAG        -4.0200    1.1790   -2.5710 ca        1 AX5     -0.111000
     11 CAN        -3.6020   -0.0320   -2.0030 ca        1 AX5     -0.086300
     12 CAI        -2.7950   -0.0360   -0.7630 c3        1 AX5      0.024000
     13 SAL        -1.0910   -0.0080   -1.2720 ss        1 AX5     -0.251400
     14 C2          0.1000    0.0280    2.4700 ca        1 AX5      0.907900
     15 NAB        -0.4820    0.1210    3.7420 nh        1 AX5     -0.926500
     16 NAA         3.4180   -0.0050    1.0260 nh        1 AX5     -0.940500
     17 H5          1.6550    0.0770   -1.0260 ha        1 AX5      0.158000
     18 HAD        -5.0330   -2.1860   -4.2390 ha        1 AX5      0.133000
     19 HAC        -5.7680   -0.0230   -5.2450 ha        1 AX5      0.132000
     20 HAE        -5.1170    2.1340   -4.1710 ha        1 AX5      0.133000
     21 HAG        -3.7340    2.1310   -2.0990 ha        1 AX5      0.137000
     22 HAI        -3.0000   -0.9480   -0.1490 h1        1 AX5      0.085700
     23 HAIA       -3.0230    0.8560   -0.1280 h1        1 AX5      0.085700
     24 HNAB       -1.4310   -0.1650    3.8120 hn        1 AX5      0.423300
     25 HNAA        0.1020   -0.1150    4.5110 hn        1 AX5      0.423300
     26 HNAC        3.7810    0.3330    0.1660 hn        1 AX5      0.418300
     27 HNAD        3.9650    0.1850    1.8340 hn        1 AX5      0.418300
     28 HAF        -3.6510   -2.1940   -2.1670 ha        1 AX5      0.137000
@<TRIPOS>BOND
     1    1    2 ar  
     2    1    5 ar  
     3    1   13 1   
     4    2    3 ar  
     5    2   17 1   
     6    3    4 ar  
     7    3   16 1   
     8    4   14 ar  
     9    5   14 ar  
    10    6    7 ar  
    11    6   11 ar  
    12    6   28 1   
    13    7    8 ar  
    14    7   18 1   
    15    8    9 ar  
    16    8   19 1   
    17    9   10 ar  
    18    9   20 1   
    19   10   11 ar  
    20   10   21 1   
    21   11   12 1   
    22   12   13 1   
    23   12   22 1   
    24   12   23 1   
    25   14   15 1   
    26   15   24 1   
    27   15   25 1   
    28   16   26 1   
    29   16   27 1   
@<TRIPOS>SUBSTRUCTURE
     1 AX5         1 TEMP              0 ****  ****    0 ROOT
