@<TRIPOS>MOLECULE
AX6
   32    28     1     0     0
SMALL
bcc


@<TRIPOS>ATOM
      1 C4          0.0960   -2.0560    1.5580 c1        1 AX6     -0.076000
      2 C5          1.1500   -2.6930    2.1500 c1        1 AX6     -0.342000
      3 C6          0.9340   -3.5480    3.1880 c1        1 AX6      0.195000
      4 N1         -0.3270   -3.7660    3.6340 n1        1 AX6     -0.298000
      5 N3         -1.1610   -2.2750    2.0040 n1        1 AX6     -0.280000
      6 CAA         1.5450    4.4060   -4.2410 c3        1 AX6     -0.077000
      7 OAL         0.1810    3.9460   -4.1560 os        1 AX6     -0.209000
      8 CAP        -0.0560    3.0340   -3.0850 c2        1 AX6      0.087000
      9 CAG        -0.3520    3.5150   -1.8130 c2        1 AX6     -0.207000
     10 CAE        -0.6290    2.6140   -0.7660 c1        1 AX6     -0.076000
     11 CAF        -0.0350    1.6550   -3.3240 c1        1 AX6     -0.158000
     12 CAD        -0.3100    0.7580   -2.2820 c1        1 AX6     -0.079000
     13 CAO        -0.6070    1.2400   -1.0050 c1        1 AX6     -0.116000
     14 CAI        -0.8890    0.2500    0.1490 c3        1 AX6     -0.235000
     15 SAM         0.3720   -0.9810    0.1900 ss        1 AX6      0.253000
     16 C2         -1.3780   -3.1310    3.0440 c1        1 AX6      0.192000
     17 NAC        -2.7290   -3.3420    3.5430 n3        1 AX6     -0.326000
     18 NAB         2.0530   -4.1890    3.8400 n3        1 AX6     -0.341000
     19 H5          2.0580   -2.5360    1.8280 ha        1 AX6      0.158000
     20 HAA         1.8080    4.7980   -3.3930 h1        1 AX6      0.084667
     21 HAAA        1.6180    5.0870   -4.9560 h1        1 AX6      0.084667
     22 HAAB        2.1370    3.6450   -4.4490 h1        1 AX6      0.084667
     23 HAG        -0.3660    4.4740   -1.6460 ha        1 AX6      0.139000
     24 HAE        -0.8350    2.9490    0.1210 ha        1 AX6      0.137000
     25 HAF         0.1740    1.3140   -4.2250 ha        1 AX6      0.151000
     26 HAD        -0.2950   -0.1990   -2.4480 ha        1 AX6      0.141000
     27 HAI        -1.7640   -0.1810    0.0060 h1        1 AX6      0.123000
     28 HAIA       -0.8990    0.7370    1.0050 h1        1 AX6      0.123000
     29 HNAC       -2.8590   -3.7220    4.3730 hn        1 AX6      0.219500
     30 HNAA       -3.4560   -3.0470    3.0500 hn        1 AX6      0.219500
     31 HNAB        2.9090   -4.0190    3.5540 hn        1 AX6      0.214500
     32 HNAD        1.9110   -4.7380    4.5550 hn        1 AX6      0.214500
@<TRIPOS>BOND
     1    1    5 1   
     2    1   15 1   
     3    2    3 1   
     4    2   19 1   
     5    3   18 1   
     6    4   16 1   
     7    6    7 1   
     8    6   20 1   
     9    6   21 1   
    10    6   22 1   
    11    7    8 1   
    12    8    9 1   
    13    8   11 1   
    14    9   10 1   
    15    9   23 1   
    16   10   24 1   
    17   11   25 1   
    18   12   13 1   
    19   12   26 1   
    20   13   14 1   
    21   14   15 1   
    22   14   27 1   
    23   14   28 1   
    24   16   17 1   
    25   17   29 1   
    26   17   30 1   
    27   18   31 1   
    28   18   32 1   
@<TRIPOS>SUBSTRUCTURE
     1 AX6         1 TEMP              0 ****  ****    0 ROOT
