@<TRIPOS>MOLECULE
AX6
   32    33     1     0     0
SMALL
bcc


@<TRIPOS>ATOM
      1 C4         -2.1660   -0.1810    0.0180 ca        1 AX6      0.579600
      2 C5         -3.0620   -1.2630    0.0540 ca        1 AX6     -0.472600
      3 C6         -4.4550   -0.9560    0.1030 ca        1 AX6      0.715200
      4 N1         -4.9060    0.3390    0.0930 nb        1 AX6     -0.824000
      5 N3         -2.5640    1.1090    0.0310 nb        1 AX6     -0.806000
      6 CAA         6.6050   -0.6160    0.8870 c3        1 AX6      0.112700
      7 CAP         4.5340   -0.0920   -0.1630 ca        1 AX6      0.132100
      8 CAG         3.8300    0.0910   -1.3700 ca        1 AX6     -0.182500
      9 CAE         2.4820    0.4160   -1.3260 ca        1 AX6     -0.077500
     10 CAF         3.8860    0.0530    1.0690 ca        1 AX6     -0.182500
     11 CAD         2.5310    0.3810    1.0920 ca        1 AX6     -0.077500
     12 CAO         1.8180    0.5630   -0.0980 ca        1 AX6     -0.123300
     13 CAI         0.3860    0.9260   -0.0630 c3        1 AX6      0.033000
     14 SAM        -0.5190   -0.6050   -0.0530 ss        1 AX6     -0.256400
     15 C2         -3.9360    1.3250    0.0960 ca        1 AX6      0.909900
     16 NAC        -4.3720    2.6500    0.2220 nh        1 AX6     -0.928500
     17 NAB        -5.3810   -1.9890    0.2120 nh        1 AX6     -0.942500
     18 H5         -2.6970   -2.2960    0.0560 ha        1 AX6      0.158000
     19 HAA         6.6200    0.3160    1.5030 h1        1 AX6      0.045367
     20 HAAA        6.1780   -1.4660    1.4720 h1        1 AX6      0.045367
     21 HAAB        7.6330   -0.8650    0.5210 h1        1 AX6      0.045367
     22 HAG         4.3580   -0.0270   -2.3260 ha        1 AX6      0.145000
     23 HAE         1.9270    0.5610   -2.2660 ha        1 AX6      0.139000
     24 HAF         4.4270   -0.0870    2.0140 ha        1 AX6      0.145000
     25 HAD         2.0190    0.4950    2.0590 ha        1 AX6      0.139000
     26 HAI         0.1400    1.5260    0.8480 h1        1 AX6      0.084200
     27 HAIA        0.1000    1.5370   -0.9550 h1        1 AX6      0.084200
     28 HNAC       -5.3290    2.8230    0.0180 hn        1 AX6      0.424300
     29 HNAA       -3.7300    3.3550   -0.0540 hn        1 AX6      0.424300
     30 HNAB       -5.0760   -2.8740   -0.1170 hn        1 AX6      0.419300
     31 HNAD       -6.3390   -1.7720    0.0660 hn        1 AX6      0.419300
     32 OAL         5.8680   -0.4120   -0.3140 os        1 AX6     -0.325900
@<TRIPOS>BOND
     1    1    2 ar  
     2    1    5 ar  
     3    1   14 1   
     4    2    3 ar  
     5    2   18 1   
     6    3    4 ar  
     7    3   17 1   
     8    4   15 ar  
     9    5   15 ar  
    10    6   19 1   
    11    6   20 1   
    12    6   21 1   
    13    6   32 1   
    14    7    8 ar  
    15    7   10 ar  
    16    7   32 1   
    17    8    9 ar  
    18    8   22 1   
    19    9   12 ar  
    20    9   23 1   
    21   10   11 ar  
    22   10   24 1   
    23   11   12 ar  
    24   11   25 1   
    25   12   13 1   
    26   13   14 1   
    27   13   26 1   
    28   13   27 1   
    29   15   16 1   
    30   16   28 1   
    31   16   29 1   
    32   17   30 1   
    33   17   31 1   
@<TRIPOS>SUBSTRUCTURE
     1 AX6         1 TEMP              0 ****  ****    0 ROOT
