@<TRIPOS>MOLECULE
AX6
   34    35     1     0     0
SMALL
bcc


@<TRIPOS>ATOM
      1 C4         -0.3690   -0.0010    0.2950 c2        1 AX6     -0.171000
      2 C5          1.0450   -0.0330   -0.0240 c2        1 AX6     -0.166000
      3 C6          1.9370   -0.1850    1.0300 c2        1 AX6      0.013000
      4 N1          1.5510   -0.3060    2.3510 n2        1 AX6     -0.223000
      5 N3         -0.7820   -0.1200    1.5980 n2        1 AX6     -0.192000
      6 CAA        -6.0800    0.0100   -6.4830 c3        1 AX6     -0.084000
      7 CAP        -5.5320    0.4880   -4.2110 c3        1 AX6      0.070000
      8 CAG        -5.1080   -0.8010   -3.5020 c2        1 AX6     -0.206000
      9 CAE        -4.4030   -0.6840   -2.4130 c1        1 AX6     -0.035000
     10 CAF        -4.8550    1.7400   -3.5490 c3        1 AX6     -0.142000
     11 CAD        -4.1470    1.4200   -2.3510 c1        1 AX6     -0.094000
     12 CAO        -3.7960    0.3510   -1.6470 c2        1 AX6     -0.117000
     13 CAI        -3.0820    0.2110   -0.3870 c3        1 AX6     -0.214000
     14 SAM        -1.3940    0.1830   -0.9590 ss        1 AX6      0.595000
     15 C2          0.1990   -0.2640    2.5360 c2        1 AX6      0.083000
     16 NAC        -0.2690   -0.3910    3.9520 n4        1 AX6     -0.015000
     17 NAB         3.3930   -0.2250    0.7770 n4        1 AX6     -0.016000
     18 H5          1.3490    0.0650   -1.0800 ha        1 AX6      0.209000
     19 HAA        -6.9790    0.6730   -6.4650 h1        1 AX6      0.093333
     20 HAAA       -5.5600    0.0740   -7.4730 h1        1 AX6      0.093333
     21 HAAB       -6.3680   -1.0450   -6.2550 h1        1 AX6      0.093333
     22 HAG        -6.6530    0.5740   -4.1410 h1        1 AX6      0.113000
     23 HAE        -5.4360   -1.7380   -3.9740 ha        1 AX6      0.209000
     24 HAF        -5.6570    2.5010   -3.3380 hc        1 AX6      0.165500
     25 HAD        -4.1480    2.2000   -4.3010 hc        1 AX6      0.165500
     26 HAI        -3.2580    1.0810    0.2950 h1        1 AX6      0.154500
     27 HAIA       -3.3540   -0.7320    0.1470 h1        1 AX6      0.154500
     28 HNAC       -0.8840   -1.2160    4.0300 hn        1 AX6      0.290667
     29 HNAA       -0.8020    0.4540    4.2070 hn        1 AX6      0.290667
     30 HNAB        3.8610    0.5440    1.2800 hn        1 AX6      0.285000
     31 HNAD        3.5670   -0.1280   -0.2330 hn        1 AX6      0.285000
     32 HAC3        0.5320   -0.4980    4.5920 hn        1 AX6      0.290667
     33 HAB3        3.7850   -1.1210    1.1060 hn        1 AX6      0.285000
     34 OAL        -5.1020    0.4670   -5.5540 os        1 AX6     -0.264000
@<TRIPOS>BOND
     1    1    2 1   
     2    1    5 1   
     3    1   14 1   
     4    2    3 1   
     5    2   18 1   
     6    3    4 1   
     7    3   17 1   
     8    4   15 1   
     9    5   15 1   
    10    6   19 1   
    11    6   20 1   
    12    6   21 1   
    13    6   34 1   
    14    7    8 1   
    15    7   10 1   
    16    7   22 1   
    17    7   34 1   
    18    8    9 1   
    19    8   23 1   
    20    9   12 1   
    21   10   11 1   
    22   10   24 1   
    23   10   25 1   
    24   11   12 1   
    25   12   13 1   
    26   13   14 1   
    27   13   26 1   
    28   13   27 1   
    29   15   16 1   
    30   16   28 1   
    31   16   29 1   
    32   16   32 1   
    33   17   30 1   
    34   17   31 1   
    35   17   33 1   
@<TRIPOS>SUBSTRUCTURE
     1 AX6         1 TEMP              0 ****  ****    0 ROOT
