@<TRIPOS>MOLECULE
AX6
   32    32     1     0     0
SMALL
bcc


@<TRIPOS>ATOM
      1 C4         -0.5230   -0.1000   -0.1110 ca        1 AX6      0.578600
      2 C5          0.8360    0.2320   -0.2470 ca        1 AX6     -0.470600
      3 C6          1.5010    0.7460    0.9070 ca        1 AX6      0.711200
      4 N1          0.8370    0.9440    2.0900 nb        1 AX6     -0.821000
      5 N3         -1.2110    0.0600    1.0390 nb        1 AX6     -0.804000
      6 CAA        -5.7850    3.1500   -5.2440 c3        1 AX6      0.111700
      7 CAP        -5.0010    1.1790   -4.2260 c2        1 AX6      0.039100
      8 CAG        -3.5440   -4.2340   -2.4360 c1        1 AX6     -0.139500
      9 CAE        -3.5700   -3.0380   -2.3660 cg        1 AX6     -0.164300
     10 CAF        -4.3110    0.5350   -3.2600 cf        1 AX6     -0.208000
     11 CAD        -4.2160   -0.9010   -3.2390 cf        1 AX6     -0.064000
     12 CAO        -3.5990   -1.6300   -2.2770 ce        1 AX6      0.013100
     13 CAI        -2.9530   -1.0440   -1.0770 c3        1 AX6      0.023900
     14 SAM        -1.2560   -0.7310   -1.5110 ss        1 AX6     -0.246400
     15 C2         -0.5030    0.6030    2.1050 ca        1 AX6      0.906900
     16 NAC        -1.2220    0.8910    3.2740 nh        1 AX6     -0.925500
     17 NAB         2.8710    0.9920    0.8560 nh        1 AX6     -0.939500
     18 H5          1.3600    0.0820   -1.1970 ha        1 AX6      0.158000
     19 HAA        -5.3180    2.9010   -6.2270 h1        1 AX6      0.044700
     20 HAAA       -6.8490    2.8120   -5.2210 h1        1 AX6      0.044700
     21 HAAB       -5.7140    4.2480   -5.0380 h1        1 AX6      0.044700
     22 HAG        -5.5340    0.6870   -5.0530 h4        1 AX6      0.133000
     23 HAE        -3.5170   -5.2920   -2.4950 ha        1 AX6      0.166500
     24 HAF        -4.6910   -1.4320   -4.0850 ha        1 AX6      0.126000
     25 HAD        -3.7980    1.1110   -2.4720 ha        1 AX6      0.154000
     26 HAI        -3.4550   -0.0960   -0.7640 h1        1 AX6      0.089200
     27 HAIA       -3.0040   -1.7510   -0.2120 h1        1 AX6      0.089200
     28 HNAC       -2.0840    0.4090    3.3870 hn        1 AX6      0.421800
     29 HNAA       -0.6840    1.0160    4.1000 hn        1 AX6      0.421800
     30 HNAB        3.2710    1.5240    1.5940 hn        1 AX6      0.416300
     31 HNAD        3.2340    1.1710   -0.0510 hn        1 AX6      0.416300
     32 OAL        -5.0480    2.5570   -4.1770 os        1 AX6     -0.327900
@<TRIPOS>BOND
     1    1    2 ar  
     2    1    5 ar  
     3    1   14 1   
     4    2    3 ar  
     5    2   18 1   
     6    3    4 ar  
     7    3   17 1   
     8    4   15 ar  
     9    5   15 ar  
    10    6   19 1   
    11    6   20 1   
    12    6   21 1   
    13    6   32 1   
    14    7   10 2   
    15    7   22 1   
    16    7   32 1   
    17    8    9 3   
    18    8   23 1   
    19    9   12 1   
    20   10   11 1   
    21   10   25 1   
    22   11   12 2   
    23   11   24 1   
    24   12   13 1   
    25   13   14 1   
    26   13   26 1   
    27   13   27 1   
    28   15   16 1   
    29   16   28 1   
    30   16   29 1   
    31   17   30 1   
    32   17   31 1   
@<TRIPOS>SUBSTRUCTURE
     1 AX6         1 TEMP              0 ****  ****    0 ROOT
