@<TRIPOS>MOLECULE
AX6
   32    34     1     0     0
SMALL
bcc


@<TRIPOS>ATOM
      1 C4         -0.1220   -0.0140    0.3410 ca        1 AX6      0.577600
      2 C5          1.2600    0.0470    0.0990 ca        1 AX6     -0.472600
      3 C6          2.1240    0.0010    1.2350 ca        1 AX6      0.720200
      4 N1          1.6300   -0.1170    2.5090 nb        1 AX6     -0.823000
      5 N3         -0.6540   -0.1070    1.5790 nb        1 AX6     -0.809000
      6 CAA        -6.1280    0.7670   -6.4800 c3        1 AX6      0.111700
      7 CAP        -5.7370    0.0500   -4.2530 c3        1 AX6      0.165300
      8 CAG        -5.1780   -1.1830   -3.5210 c2        1 AX6     -0.173200
      9 CAE        -4.3940   -0.7410   -2.5470 cc        1 AX6     -0.150000
     10 CAF        -5.1020    1.3380   -3.5730 c3        1 AX6     -0.013100
     11 CAD        -4.3040    0.7580   -2.5030 cc        1 AX6     -0.141300
     12 CAO        -3.6360    0.0350   -1.6070 cc        1 AX6      0.020700
     13 CAI        -2.7790   -0.0350   -0.4540 c3        1 AX6      0.055000
     14 SAM        -1.1020    0.0290   -1.0500 ss        1 AX6     -0.234400
     15 C2          0.2520   -0.1300    2.6330 ca        1 AX6      0.913900
     16 NAC        -0.2720   -0.1170    3.9310 nv        1 AX6     -0.928500
     17 NAB         3.4970    0.1290    1.0570 nv        1 AX6     -0.944500
     18 H5          1.6500    0.1350   -0.9210 ha        1 AX6      0.159000
     19 HAA        -6.0470    1.8450   -6.1950 h1        1 AX6      0.033367
     20 HAAA       -7.2000    0.4480   -6.4580 h1        1 AX6      0.033367
     21 HAAB       -5.6880    0.5950   -7.4940 h1        1 AX6      0.033367
     22 HAG        -6.8550    0.0860   -4.1630 h1        1 AX6      0.045700
     23 HAE        -5.4310   -2.1870   -3.8450 ha        1 AX6      0.165000
     24 HAF        -5.9020    2.0150   -3.1880 hc        1 AX6      0.081200
     25 HAD        -4.4710    1.8920   -4.3130 hc        1 AX6      0.081200
     26 HAI        -2.9740    0.8200    0.2440 h1        1 AX6      0.102700
     27 HAIA       -2.9540   -0.9860    0.1130 h1        1 AX6      0.102700
     28 HNAC       -1.2180   -0.4030    4.0310 hn        1 AX6      0.425300
     29 HNAA        0.3470   -0.3750    4.6640 hn        1 AX6      0.425300
     30 HNAB        4.0900   -0.0760    1.8270 hn        1 AX6      0.421300
     31 HNAD        3.8390   -0.1120    0.1580 hn        1 AX6      0.421300
     32 OAL        -5.3460   -0.0390   -5.6150 os        1 AX6     -0.405600
@<TRIPOS>BOND
     1    1    2 ar  
     2    1    5 ar  
     3    1   14 1   
     4    2    3 ar  
     5    2   18 1   
     6    3    4 ar  
     7    3   17 1   
     8    4   15 ar  
     9    5   15 ar  
    10    6   19 1   
    11    6   20 1   
    12    6   21 1   
    13    6   32 1   
    14    7    8 1   
    15    7   10 1   
    16    7   22 1   
    17    7   32 1   
    18    8    9 2   
    19    8   23 1   
    20    9   11 1   
    21    9   12 1   
    22   10   11 1   
    23   10   24 1   
    24   10   25 1   
    25   11   12 2   
    26   12   13 1   
    27   13   14 1   
    28   13   26 1   
    29   13   27 1   
    30   15   16 1   
    31   16   28 1   
    32   16   29 1   
    33   17   30 1   
    34   17   31 1   
@<TRIPOS>SUBSTRUCTURE
     1 AX6         1 TEMP              0 ****  ****    0 ROOT
