@<TRIPOS>MOLECULE
AX7
   18    19     1     0     0
SMALL
bcc


@<TRIPOS>ATOM
      1 NAF         0.0030   -0.0860    0.0310 na        1 AX7     -0.248300
      2 CAI         1.3980   -0.0570    0.0170 ca        1 AX7     -0.023200
      3 CAD         2.3490   -0.1400    1.0480 ca        1 AX7     -0.141000
      4 CAB         3.6810   -0.0770    0.6810 ca        1 AX7     -0.053000
      5 CAC         4.0850    0.0640   -0.6670 ca        1 AX7     -0.130000
      6 CAE         3.1740    0.1480   -1.7000 ca        1 AX7     -0.041000
      7 CAJ         1.8000    0.0890   -1.3760 ca        1 AX7      0.053400
      8 NAG         0.6710    0.1470   -2.1920 nc        1 AX7     -0.459100
      9 CAH        -0.3830    0.0410   -1.3300 cd        1 AX7      0.349700
     10 NAA        -1.7770    0.0570   -1.7650 n4        1 AX7     -0.745600
     11 HNAF       -0.5800   -0.1750    0.8220 hn        1 AX7      0.329700
     12 HAD         2.0450   -0.2490    2.0990 ha        1 AX7      0.162000
     13 HAB         4.4590   -0.1390    1.4620 ha        1 AX7      0.165000
     14 HAC         5.1650    0.1070   -0.8900 ha        1 AX7      0.167000
     15 HAE         3.4910    0.2580   -2.7490 ha        1 AX7      0.174000
     16 HNAA       -2.2680    0.8510   -1.3360 hn        1 AX7      0.480133
     17 HNAB       -2.2350   -0.8250   -1.5020 hn        1 AX7      0.480133
     18 HAA3       -1.8010    0.1580   -2.7930 hn        1 AX7      0.480133
@<TRIPOS>BOND
     1    1    2 1   
     2    1    9 1   
     3    1   11 1   
     4    2    3 ar  
     5    2    7 ar  
     6    3    4 ar  
     7    3   12 1   
     8    4    5 ar  
     9    4   13 1   
    10    5    6 ar  
    11    5   14 1   
    12    6    7 ar  
    13    6   15 1   
    14    7    8 1   
    15    8    9 2   
    16    9   10 1   
    17   10   16 1   
    18   10   17 1   
    19   10   18 1   
@<TRIPOS>SUBSTRUCTURE
     1 AX7         1 TEMP              0 ****  ****    0 ROOT
