@<TRIPOS>MOLECULE
AX7
   17    18     1     0     0
SMALL
bcc


@<TRIPOS>ATOM
      1 NAF        -0.0150    0.1170    0.0480 na        1 AX7     -0.287300
      2 CAI         1.3880    0.0400    0.0260 ca        1 AX7     -0.085200
      3 CAD         2.3410    0.1030    1.0440 ca        1 AX7     -0.127000
      4 CAB         3.6800    0.0580    0.6710 ca        1 AX7     -0.123000
      5 CAC         4.0670   -0.0400   -0.6730 ca        1 AX7     -0.144000
      6 CAE         3.1350   -0.1010   -1.7020 ca        1 AX7     -0.082000
      7 CAJ         1.7760   -0.0650   -1.3690 ca        1 AX7      0.089400
      8 NAG         0.6280   -0.1050   -2.1840 nc        1 AX7     -0.606100
      9 CAH        -0.4260   -0.0490   -1.3210 cd        1 AX7      0.575700
     10 NAA        -1.7900   -0.1720   -1.6590 nv        1 AX7     -0.852800
     11 HNAF       -0.5650   -0.1590    0.8200 hn        1 AX7      0.296700
     12 HAD         2.0470    0.1860    2.0990 ha        1 AX7      0.135000
     13 HAB         4.4550    0.1000    1.4510 ha        1 AX7      0.131000
     14 HAC         5.1400   -0.0700   -0.9170 ha        1 AX7      0.132000
     15 HAE         3.4490   -0.1730   -2.7530 ha        1 AX7      0.147000
     16 HNAA       -1.9310   -0.1620   -2.6500 hn        1 AX7      0.400800
     17 HNAB       -2.3650    0.4990   -1.1930 hn        1 AX7      0.400800
@<TRIPOS>BOND
     1    1    2 1   
     2    1    9 1   
     3    1   11 1   
     4    2    3 ar  
     5    2    7 ar  
     6    3    4 ar  
     7    3   12 1   
     8    4    5 ar  
     9    4   13 1   
    10    5    6 ar  
    11    5   14 1   
    12    6    7 ar  
    13    6   15 1   
    14    7    8 1   
    15    8    9 2   
    16    9   10 1   
    17   10   16 1   
    18   10   17 1   
@<TRIPOS>SUBSTRUCTURE
     1 AX7         1 TEMP              0 ****  ****    0 ROOT
