@<TRIPOS>MOLECULE
AX7
   17    18     1     0     0
SMALL
bcc


@<TRIPOS>ATOM
      1 NAF         1.1390   -1.1530    0.0430 na        1 AX7     -0.287300
      2 CAI        -0.1990   -0.7270   -0.0040 ca        1 AX7     -0.085200
      3 CAD        -1.4030   -1.4330    0.0110 ca        1 AX7     -0.127000
      4 CAB        -2.5800   -0.6920    0.0180 ca        1 AX7     -0.123000
      5 CAC        -2.5670    0.7110    0.0170 ca        1 AX7     -0.144000
      6 CAE        -1.3790    1.4340    0.0060 ca        1 AX7     -0.082000
      7 CAJ        -0.1730    0.7250   -0.0080 ca        1 AX7      0.089400
      8 NAG         1.1610    1.1800   -0.0180 nc        1 AX7     -0.606100
      9 CAH         1.9240    0.0500   -0.0400 cd        1 AX7      0.575700
     10 NAA         3.3280   -0.0060   -0.1690 nh        1 AX7     -0.852800
     11 HNAF        1.4460   -2.0290   -0.2950 hn        1 AX7      0.296700
     12 HAD        -1.4230   -2.5300    0.0170 ha        1 AX7      0.135000
     13 HAB        -3.5460   -1.2180    0.0250 ha        1 AX7      0.131000
     14 HAC        -3.5250    1.2520    0.0260 ha        1 AX7      0.132000
     15 HAE        -1.3800    2.5330    0.0100 ha        1 AX7      0.147000
     16 HNAA        3.7460   -0.6630    0.4580 hn        1 AX7      0.400800
     17 HNAB        3.7470    0.9000   -0.0950 hn        1 AX7      0.400800
@<TRIPOS>BOND
     1    1    2 1   
     2    1    9 1   
     3    1   11 1   
     4    2    3 ar  
     5    2    7 ar  
     6    3    4 ar  
     7    3   12 1   
     8    4    5 ar  
     9    4   13 1   
    10    5    6 ar  
    11    5   14 1   
    12    6    7 ar  
    13    6   15 1   
    14    7    8 1   
    15    8    9 2   
    16    9   10 1   
    17   10   16 1   
    18   10   17 1   
@<TRIPOS>SUBSTRUCTURE
     1 AX7         1 TEMP              0 ****  ****    0 ROOT
