@<TRIPOS>MOLECULE
AX7
   17    18     1     0     0
SMALL
bcc


@<TRIPOS>ATOM
      1 NAF        -0.0120   -0.1200    0.0550 na        1 AX7     -0.287300
      2 CAI         1.3910   -0.0440    0.0260 ca        1 AX7     -0.085200
      3 CAD         2.3490   -0.1170    1.0390 ca        1 AX7     -0.127000
      4 CAB         3.6860   -0.0710    0.6590 ca        1 AX7     -0.123000
      5 CAC         4.0670    0.0370   -0.6870 ca        1 AX7     -0.144000
      6 CAE         3.1290    0.1070   -1.7110 ca        1 AX7     -0.082000
      7 CAJ         1.7720    0.0710   -1.3700 ca        1 AX7      0.089400
      8 NAG         0.6190    0.1180   -2.1790 nc        1 AX7     -0.606100
      9 CAH        -0.4300    0.0570   -1.3100 cd        1 AX7      0.575700
     10 NAA        -1.7950    0.1850   -1.6410 nh        1 AX7     -0.852800
     11 HNAF       -0.5580    0.1510    0.8320 hn        1 AX7      0.296700
     12 HAD         2.0610   -0.2070    2.0940 ha        1 AX7      0.135000
     13 HAB         4.4660   -0.1200    1.4340 ha        1 AX7      0.131000
     14 HAC         5.1380    0.0670   -0.9360 ha        1 AX7      0.132000
     15 HAE         3.4380    0.1870   -2.7620 ha        1 AX7      0.147000
     16 HNAA       -2.3690   -0.4890   -1.1760 hn        1 AX7      0.400800
     17 HNAB       -1.9420    0.1820   -2.6310 hn        1 AX7      0.400800
@<TRIPOS>BOND
     1    1    2 1   
     2    1    9 1   
     3    1   11 1   
     4    2    3 ar  
     5    2    7 ar  
     6    3    4 ar  
     7    3   12 1   
     8    4    5 ar  
     9    4   13 1   
    10    5    6 ar  
    11    5   14 1   
    12    6    7 ar  
    13    6   15 1   
    14    7    8 1   
    15    8    9 2   
    16    9   10 1   
    17   10   16 1   
    18   10   17 1   
@<TRIPOS>SUBSTRUCTURE
     1 AX7         1 TEMP              0 ****  ****    0 ROOT
