@<TRIPOS>MOLECULE
AX7
   17    12     1     0     0
SMALL
bcc


@<TRIPOS>ATOM
      1 NAF        -1.4670    0.0000    0.6040 n2        1 AX7     -0.244000
      2 CAI        -0.1110    0.0000    0.6040 c1        1 AX7     -0.040000
      3 CAD         0.8330    0.0000    1.6490 c1        1 AX7     -0.119000
      4 CAB         2.1880    0.0000    1.3600 c1        1 AX7     -0.119000
      5 CAC         2.6150    0.0000    0.0420 c1        1 AX7     -0.119000
      6 CAE         1.6870    0.0000   -0.9870 c1        1 AX7     -0.119000
      7 CAJ         0.3100    0.0000   -0.6940 c1        1 AX7     -0.050000
      8 NAG        -0.7890    0.0000   -1.4890 n1        1 AX7     -0.179000
      9 CAH        -1.8870    0.0000   -0.6880 c1        1 AX7      0.097000
     10 NAA        -3.1630   -0.0000   -1.3080 n2        1 AX7     -0.291000
     11 HNAF       -2.0030    0.0000    1.3420 DU        1 AX7      0.247000
     12 HAD         0.5320    0.0000    2.5780 ha        1 AX7      0.136250
     13 HAB         2.8420    0.0000    2.0850 ha        1 AX7      0.136250
     14 HAC         3.5700    0.0000   -0.1620 ha        1 AX7      0.136250
     15 HAE         1.9880    0.0000   -1.9160 ha        1 AX7      0.136250
     16 HNAA       -3.5720    0.7890   -1.5110 hn        1 AX7      0.196000
     17 HNAB       -3.5720   -0.7900   -1.5100 hn        1 AX7      0.196000
@<TRIPOS>BOND
     1    1    2 1   
     2    1    9 1   
     3    2    7 1   
     4    3    4 1   
     5    3   12 1   
     6    4   13 1   
     7    5    6 1   
     8    5   14 1   
     9    6   15 1   
    10    8    9 1   
    11   10   16 1   
    12   10   17 1   
@<TRIPOS>SUBSTRUCTURE
     1 AX7         1 TEMP              0 ****  ****    0 ROOT
