@<TRIPOS>MOLECULE
AX8
   30    32     1     0     0
SMALL
bcc


@<TRIPOS>ATOM
      1 CAJ         0.0600    0.4990    0.0350 ca        1 AX8     -0.100000
      2 CAO         1.4590    0.4860    0.0510 ca        1 AX8      0.015400
      3 CLAC        2.3000    1.2490   -1.2100 cl        1 AX8     -0.068400
      4 CAN         2.1420   -0.1540    1.0950 ca        1 AX8      0.024400
      5 CLAB        3.8360   -0.1920    1.1430 cl        1 AX8     -0.065400
      6 CAG         1.4170   -0.7750    2.1200 ca        1 AX8     -0.115000
      7 CAF         0.0260   -0.7530    2.1030 ca        1 AX8     -0.103000
      8 CAM        -0.6570   -0.1150    1.0630 ca        1 AX8     -0.111300
      9 CAK        -2.1600   -0.0490    1.0630 c3        1 AX8      0.092600
     10 NAS        -2.8600   -1.2960    1.1560 na        1 AX8     -0.177300
     11 CAR        -3.0630   -2.0070    2.3600 ca        1 AX8     -0.087200
     12 CAI        -3.1040   -1.5940    3.6920 ca        1 AX8     -0.132000
     13 CAE        -3.4080   -2.5520    4.6550 ca        1 AX8     -0.126000
     14 CAD        -3.6680   -3.8850    4.3090 ca        1 AX8     -0.142000
     15 CAH        -3.6360   -4.3180    2.9880 ca        1 AX8     -0.084000
     16 CAQ        -3.3300   -3.3850    1.9910 ca        1 AX8      0.097400
     17 NAL        -3.2390   -3.5360    0.5930 nc        1 AX8     -0.609100
     18 CAP        -2.9090   -2.3030    0.1170 cd        1 AX8      0.595700
     19 NAA        -2.6120   -1.9970   -1.2230 nh        1 AX8     -0.853800
     20 HAJ        -0.4690    0.9950   -0.7930 ha        1 AX8      0.148000
     21 HAG         1.9500   -1.2840    2.9380 ha        1 AX8      0.155000
     22 HAF        -0.5410   -1.2450    2.9100 ha        1 AX8      0.154000
     23 HAK        -2.5110    0.4710    0.1240 h1        1 AX8      0.067200
     24 HAKA       -2.4800    0.5780    1.9480 h1        1 AX8      0.067200
     25 HAI        -2.9080   -0.5510    3.9740 ha        1 AX8      0.134000
     26 HAE        -3.4440   -2.2550    5.7140 ha        1 AX8      0.132000
     27 HAD        -3.9050   -4.6070    5.1050 ha        1 AX8      0.133000
     28 HAH        -3.8470   -5.3640    2.7250 ha        1 AX8      0.149000
     29 HNAA       -2.9600   -1.1070   -1.5130 hn        1 AX8      0.404800
     30 HNAB       -2.8670   -2.7340   -1.8500 hn        1 AX8      0.404800
@<TRIPOS>BOND
     1    1    2 ar  
     2    1    8 ar  
     3    1   20 1   
     4    2    3 1   
     5    2    4 ar  
     6    4    5 1   
     7    4    6 ar  
     8    6    7 ar  
     9    6   21 1   
    10    7    8 ar  
    11    7   22 1   
    12    8    9 1   
    13    9   10 1   
    14    9   23 1   
    15    9   24 1   
    16   10   11 1   
    17   10   18 1   
    18   11   12 ar  
    19   11   16 ar  
    20   12   13 ar  
    21   12   25 1   
    22   13   14 ar  
    23   13   26 1   
    24   14   15 ar  
    25   14   27 1   
    26   15   16 ar  
    27   15   28 1   
    28   16   17 1   
    29   17   18 2   
    30   18   19 1   
    31   19   29 1   
    32   19   30 1   
@<TRIPOS>SUBSTRUCTURE
     1 AX8         1 TEMP              0 ****  ****    0 ROOT
