@<TRIPOS>MOLECULE
AX8
   30    24     1     0     0
SMALL
bcc


@<TRIPOS>ATOM
      1 CAJ         1.5260    1.5070   -1.7460 c1        1 AX8     -0.100000
      2 CAO         2.9010    1.4820   -1.9560 c1        1 AX8     -0.063000
      3 CLAC        3.5330    1.4750   -3.5770 cl        1 AX8      0.010000
      4 CAN         3.7670    1.4500   -0.8740 c1        1 AX8     -0.054000
      5 CLAB        5.4960    1.5510   -1.1370 cl        1 AX8      0.013000
      6 CAG         3.2620    1.4430    0.4230 c2        1 AX8     -0.115000
      7 CAF         1.8900    1.4680    0.6330 c1        1 AX8     -0.103000
      8 CAM         1.0210    1.5000   -0.4490 c1        1 AX8     -0.104000
      9 CAK        -0.5030    1.5630   -0.2130 c3        1 AX8      0.026000
     10 NAS        -1.0350    0.2150   -0.1190 n3        1 AX8     -0.203000
     11 CAR        -1.4090   -0.6420    0.8790 c1        1 AX8     -0.042000
     12 CAI        -1.4230   -0.5100    2.2850 c1        1 AX8     -0.121000
     13 CAE        -1.8640   -1.5650    3.0790 c1        1 AX8     -0.121000
     14 CAD        -2.2910   -2.7480    2.4890 c1        1 AX8     -0.121000
     15 CAH        -2.2780   -2.8790    1.1040 c1        1 AX8     -0.121000
     16 CAQ        -1.8310   -1.8090    0.2970 c1        1 AX8     -0.042000
     17 NAL        -1.7160   -1.6720   -1.0550 n1        1 AX8     -0.182000
     18 CAP        -1.2240   -0.4210   -1.3130 c1        1 AX8      0.117000
     19 NAA        -1.4190   -0.4960   -2.7370 n2        1 AX8     -0.292000
     20 HAJ         0.9200    1.5290   -2.5040 ha        1 AX8      0.148000
     21 HAG         3.8750    1.4210    1.1890 ha        1 AX8      0.155000
     22 HAF         1.5350    1.4630    1.5440 ha        1 AX8      0.154000
     23 HAK        -0.6840    2.0410    0.6160 h1        1 AX8      0.106500
     24 HAKA       -0.9300    2.0300   -0.9590 h1        1 AX8      0.106500
     25 HAI        -1.1240    0.3190    2.6990 ha        1 AX8      0.137000
     26 HAE        -1.8730   -1.4730    4.0540 ha        1 AX8      0.137000
     27 HAD        -2.6000   -3.4870    3.0460 ha        1 AX8      0.137000
     28 HAH        -2.5780   -3.7110    0.6890 ha        1 AX8      0.137000
     29 HNAA       -1.4500    0.2710   -3.2360 hn        1 AX8      0.200000
     30 HNAB       -1.4950   -1.3160   -3.1480 hn        1 AX8      0.200000
@<TRIPOS>BOND
     1    1    8 1   
     2    1   20 1   
     3    2    3 1   
     4    2    4 1   
     5    4    6 1   
     6    6    7 1   
     7    6   21 1   
     8    7   22 1   
     9    8    9 1   
    10    9   10 1   
    11    9   23 1   
    12    9   24 1   
    13   10   11 1   
    14   10   18 1   
    15   11   16 1   
    16   12   13 1   
    17   12   25 1   
    18   13   26 1   
    19   14   15 1   
    20   14   27 1   
    21   15   28 1   
    22   17   18 1   
    23   19   29 1   
    24   19   30 1   
@<TRIPOS>SUBSTRUCTURE
     1 AX8         1 TEMP              0 ****  ****    0 ROOT
