@<TRIPOS>MOLECULE
AX8
   31    33     1     0     0
SMALL
bcc


@<TRIPOS>ATOM
      1 CAJ        -0.2360    0.6490   -0.0310 ca        1 AX8     -0.155000
      2 CAO         1.0960    0.7950   -0.4310 ca        1 AX8      0.007400
      3 CLAC        1.4370    1.6690   -1.8350 cl        1 AX8     -0.020400
      4 CAN         2.1250    0.2210    0.3390 ca        1 AX8      0.036400
      5 CLAB        3.7410    0.3800   -0.1120 cl        1 AX8     -0.005400
      6 CAG         1.8030   -0.4900    1.5030 ca        1 AX8     -0.107000
      7 CAF         0.4750   -0.6340    1.8950 ca        1 AX8     -0.095000
      8 CAM        -0.5490   -0.0690    1.1280 ca        1 AX8     -0.173300
      9 CAK        -1.9770   -0.1570    1.5810 c3        1 AX8      0.073600
     10 NAS        -2.5390   -1.4800    1.5380 na        1 AX8     -0.130300
     11 CAR        -3.1930   -2.1630    2.5700 ca        1 AX8     -0.031200
     12 CAI        -3.5750   -1.7740    3.8650 ca        1 AX8     -0.141000
     13 CAE        -4.2400   -2.7090    4.6370 ca        1 AX8     -0.060000
     14 CAD        -4.5330   -4.0070    4.1590 ca        1 AX8     -0.131000
     15 CAH        -4.1720   -4.4170    2.8910 ca        1 AX8     -0.043000
     16 CAQ        -3.4900   -3.4970    2.0670 ca        1 AX8      0.055400
     17 NAL        -3.0130   -3.6330    0.7610 nc        1 AX8     -0.472100
     18 CAP        -2.4440   -2.4260    0.4770 cd        1 AX8      0.365700
     19 NAA        -1.8210   -2.1200   -0.8080 n4        1 AX8     -0.750600
     20 HAJ        -1.0320    1.1530   -0.6050 ha        1 AX8      0.155000
     21 HAG         2.6080   -0.9270    2.1190 ha        1 AX8      0.178000
     22 HAF         0.2360   -1.1820    2.8210 ha        1 AX8      0.161000
     23 HAK        -2.0440    0.2050    2.6520 h1        1 AX8      0.094200
     24 HAKA       -2.6240    0.5220    0.9490 h1        1 AX8      0.094200
     25 HAI        -3.3570   -0.7670    4.2470 ha        1 AX8      0.156000
     26 HAE        -4.5540   -2.4390    5.6600 ha        1 AX8      0.162000
     27 HAD        -5.0670   -4.7050    4.8250 ha        1 AX8      0.164000
     28 HAH        -4.4050   -5.4270    2.5190 ha        1 AX8      0.172000
     29 HNAA       -0.9980   -1.5100   -0.6660 hn        1 AX8      0.479467
     30 HNAB       -2.5070   -1.6460   -1.4090 hn        1 AX8      0.479467
     31 HAA3       -1.5300   -3.0010   -1.2550 hn        1 AX8      0.479467
@<TRIPOS>BOND
     1    1    2 ar  
     2    1    8 ar  
     3    1   20 1   
     4    2    3 1   
     5    2    4 ar  
     6    4    5 1   
     7    4    6 ar  
     8    6    7 ar  
     9    6   21 1   
    10    7    8 ar  
    11    7   22 1   
    12    8    9 1   
    13    9   10 1   
    14    9   23 1   
    15    9   24 1   
    16   10   11 1   
    17   10   18 1   
    18   11   12 ar  
    19   11   16 ar  
    20   12   13 ar  
    21   12   25 1   
    22   13   14 ar  
    23   13   26 1   
    24   14   15 ar  
    25   14   27 1   
    26   15   16 ar  
    27   15   28 1   
    28   16   17 1   
    29   17   18 2   
    30   18   19 1   
    31   19   29 1   
    32   19   30 1   
    33   19   31 1   
@<TRIPOS>SUBSTRUCTURE
     1 AX8         1 TEMP              0 ****  ****    0 ROOT
