@<TRIPOS>MOLECULE
AX8
   30    32     1     0     0
SMALL
bcc


@<TRIPOS>ATOM
      1 CAJ        -1.6230   -0.9520    1.2070 ca        1 AX8     -0.117000
      2 CAO        -2.8930   -0.6360    0.7100 ca        1 AX8      0.013400
      3 CLAC       -4.1550   -1.7490    0.9180 cl        1 AX8     -0.062400
      4 CAN        -3.1030    0.5850    0.0510 ca        1 AX8      0.024400
      5 CLAB       -4.6260    0.9980   -0.5650 cl        1 AX8     -0.059400
      6 CAG        -2.0380    1.4810   -0.1050 ca        1 AX8     -0.116000
      7 CAF        -0.7790    1.1640    0.3940 ca        1 AX8     -0.100000
      8 CAM        -0.5680   -0.0510    1.0540 ca        1 AX8     -0.119300
      9 CAK         0.7850   -0.3820    1.6260 c3        1 AX8      0.094600
     10 NAS         1.8190   -0.5550    0.6550 na        1 AX8     -0.183300
     11 CAR         2.8830    0.3170    0.3760 ca        1 AX8     -0.074200
     12 CAI         3.3070    1.5080    0.9700 ca        1 AX8     -0.135000
     13 CAE         4.4420    2.1170    0.4470 ca        1 AX8     -0.122000
     14 CAD         5.1430    1.5630   -0.6350 ca        1 AX8     -0.147000
     15 CAH         4.7400    0.3800   -1.2400 ca        1 AX8     -0.081000
     16 CAQ         3.5980   -0.2650   -0.7470 ca        1 AX8      0.091400
     17 NAL         2.9630   -1.4480   -1.1630 nc        1 AX8     -0.609100
     18 CAP         1.9010   -1.6050   -0.3210 cd        1 AX8      0.592700
     19 NAA         1.0130   -2.6980   -0.2860 nh        1 AX8     -0.854800
     20 HAJ        -1.4640   -1.9100    1.7270 ha        1 AX8      0.156000
     21 HAG        -2.2000    2.4390   -0.6250 ha        1 AX8      0.157000
     22 HAF         0.0560    1.8710    0.2670 ha        1 AX8      0.153000
     23 HAK         1.0930    0.4540    2.3210 h1        1 AX8      0.074700
     24 HAKA        0.7090   -1.3330    2.2330 h1        1 AX8      0.074700
     25 HAI         2.7700    1.9470    1.8200 ha        1 AX8      0.131000
     26 HAE         4.8020    3.0550    0.8940 ha        1 AX8      0.131000
     27 HAD         6.0370    2.0830   -1.0120 ha        1 AX8      0.132000
     28 HAH         5.2970   -0.0480   -2.0860 ha        1 AX8      0.148000
     29 HNAA        0.0580   -2.4140   -0.1890 hn        1 AX8      0.403800
     30 HNAB        1.1520   -3.3220   -1.0560 hn        1 AX8      0.403800
@<TRIPOS>BOND
     1    1    2 ar  
     2    1    8 ar  
     3    1   20 1   
     4    2    3 1   
     5    2    4 ar  
     6    4    5 1   
     7    4    6 ar  
     8    6    7 ar  
     9    6   21 1   
    10    7    8 ar  
    11    7   22 1   
    12    8    9 1   
    13    9   10 1   
    14    9   23 1   
    15    9   24 1   
    16   10   11 1   
    17   10   18 1   
    18   11   12 ar  
    19   11   16 ar  
    20   12   13 ar  
    21   12   25 1   
    22   13   14 ar  
    23   13   26 1   
    24   14   15 ar  
    25   14   27 1   
    26   15   16 ar  
    27   15   28 1   
    28   16   17 1   
    29   17   18 2   
    30   18   19 1   
    31   19   29 1   
    32   19   30 1   
@<TRIPOS>SUBSTRUCTURE
     1 AX8         1 TEMP              0 ****  ****    0 ROOT
