@<TRIPOS>MOLECULE
AX8
   30    32     1     0     0
SMALL
bcc


@<TRIPOS>ATOM
      1 CAJ         0.0380    0.5170    0.0330 ca        1 AX8     -0.100000
      2 CAO         1.4370    0.5300    0.0610 ca        1 AX8      0.015400
      3 ClAC        2.2750    1.3010   -1.1970 cl        1 AX8     -0.068400
      4 CAN         2.1230   -0.0890    1.1160 ca        1 AX8      0.024400
      5 ClAB        3.8170   -0.0940    1.1790 cl        1 AX8     -0.065400
      6 CAG         1.4010   -0.7170    2.1380 ca        1 AX8     -0.115000
      7 CAF         0.0100   -0.7210    2.1090 ca        1 AX8     -0.103000
      8 CAM        -0.6770   -0.1040    1.0580 ca        1 AX8     -0.111300
      9 CAK        -2.1800   -0.0670    1.0440 c3        1 AX8      0.092600
     10 NAS        -2.8580   -1.3260    1.1430 na        1 AX8     -0.177300
     11 CAR        -3.0580   -2.0290    2.3520 ca        1 AX8     -0.087200
     12 CAI        -3.1190   -1.6040    3.6800 ca        1 AX8     -0.132000
     13 CAE        -3.4140   -2.5580    4.6490 ca        1 AX8     -0.126000
     14 CAD        -3.6470   -3.8990    4.3130 ca        1 AX8     -0.142000
     15 CAH        -3.5950   -4.3440    2.9970 ca        1 AX8     -0.084000
     16 CAQ        -3.2970   -3.4150    1.9940 ca        1 AX8      0.097400
     17 NAL        -3.1910   -3.5780    0.5990 nc        1 AX8     -0.609100
     18 CAP        -2.8780   -2.3440    0.1130 cd        1 AX8      0.595700
     19 NAA        -2.5750   -2.0450   -1.2270 nv        1 AX8     -0.853800
     20 HAJ        -0.4930    0.9970   -0.8040 ha        1 AX8      0.148000
     21 HAG         1.9350   -1.2090    2.9660 ha        1 AX8      0.155000
     22 HAF        -0.5560   -1.2190    2.9150 ha        1 AX8      0.154000
     23 HAK        -2.5200    0.5620    1.9200 h1        1 AX8      0.067200
     24 HAKA       -2.5330    0.4380    0.0970 h1        1 AX8      0.067200
     25 HAI        -2.9450   -0.5550    3.9530 ha        1 AX8      0.134000
     26 HAE        -3.4650   -2.2520    5.7040 ha        1 AX8      0.132000
     27 HAD        -3.8780   -4.6170    5.1140 ha        1 AX8      0.133000
     28 HAH        -3.7850   -5.3960    2.7420 ha        1 AX8      0.149000
     29 HNAA       -2.9360   -1.1640   -1.5290 hn        1 AX8      0.404800
     30 HNAB       -2.8100   -2.7920   -1.8490 hn        1 AX8      0.404800
@<TRIPOS>BOND
     1    1    2 ar  
     2    1    8 ar  
     3    1   20 1   
     4    2    3 1   
     5    2    4 ar  
     6    4    5 1   
     7    4    6 ar  
     8    6    7 ar  
     9    6   21 1   
    10    7    8 ar  
    11    7   22 1   
    12    8    9 1   
    13    9   10 1   
    14    9   23 1   
    15    9   24 1   
    16   10   11 1   
    17   10   18 1   
    18   11   12 ar  
    19   11   16 ar  
    20   12   13 ar  
    21   12   25 1   
    22   13   14 ar  
    23   13   26 1   
    24   14   15 ar  
    25   14   27 1   
    26   15   16 ar  
    27   15   28 1   
    28   16   17 1   
    29   17   18 2   
    30   18   19 1   
    31   19   29 1   
    32   19   30 1   
@<TRIPOS>SUBSTRUCTURE
     1 AX8         1 TEMP              0 ****  ****    0 ROOT
