@<TRIPOS>MOLECULE
AXA
   56    60     1     0     0
SMALL
bcc


@<TRIPOS>ATOM
      1 CAH         0.1600    0.0380    0.0810 ca        1 AXA     -0.134000
      2 CAY         1.5580   -0.0780    0.1480 ca        1 AXA      0.039600
      3 N1          2.2400   -0.1660    1.3590 n         1 AXA     -0.476100
      4 CAV         3.6370   -0.1990    1.3880 c         1 AXA      0.675500
      5 OAC         4.2210   -0.3570    2.4660 o         1 AXA     -0.547500
      6 CAM         4.3790    0.0270    0.0860 c3        1 AXA      0.054400
      7 OAS         3.6560   -0.2820   -1.1090 os        1 AXA     -0.290900
      8 CAZ         2.2950   -0.1010   -1.0760 ca        1 AXA      0.138100
      9 CAG         1.6440   -0.0210   -2.3120 ca        1 AXA     -0.119000
     10 CAF         0.2570    0.0820   -2.3520 ca        1 AXA     -0.097000
     11 CAX        -0.4800    0.1120   -1.1640 ca        1 AXA     -0.204300
     12 CAL        -1.9620    0.1570   -1.2180 c3        1 AXA      0.191100
     13 N2         -2.4320    1.5970   -1.2810 n4        1 AXA     -0.658800
     14 CAW        -3.9160    1.7310   -1.3470 c         1 AXA      0.462800
     15 OAD        -4.6040    0.7190   -1.3530 o         1 AXA     -0.391100
     16 CBB        -4.4680    3.1360   -1.4000 cc        1 AXA      0.388900
     17 N3         -3.6260    4.1590   -1.4630 nd        1 AXA     -0.529100
     18 N4         -5.8610    3.2450   -1.3840 n         1 AXA     -0.449400
     19 CBD        -6.4800    4.5070   -1.4310 c         1 AXA      0.774100
     20 OAE        -7.7310    4.5230   -1.4660 o         1 AXA     -0.720500
     21 CBF        -5.5910    5.6630   -1.4580 cc        1 AXA     -0.182600
     22 CBC        -5.8730    7.0560   -1.4420 cc        1 AXA     -0.052300
     23 CBE        -4.1790    5.4200   -1.4890 cd        1 AXA      0.048300
     24 SAT        -3.3210    6.8460   -1.5220 ss        1 AXA      0.310200
     25 CBA        -4.6780    7.7880   -1.4770 cd        1 AXA     -0.104400
     26 CAJ        -4.6100    9.2640   -1.4490 c3        1 AXA     -0.030100
     27 CAI        -5.8820    9.8500   -0.8670 c3        1 AXA     -0.076400
     28 CAK        -7.0930    9.2360   -1.5310 c3        1 AXA     -0.082400
     29 CBG        -7.1890    7.7310   -1.2650 c3        1 AXA      0.001600
     30 CAN        -8.3030    7.1540   -2.1430 c3        1 AXA     -0.136400
     31 CAU        -9.4050    6.5780   -1.3020 c         1 AXA      0.572100
     32 OAB        -9.6980    6.7970   -0.1400 o         1 AXA     -0.399100
     33 N5        -10.3120    5.5800   -2.0000 n4        1 AXA     -0.761400
     34 HAH        -0.4360    0.0330    1.0070 ha        1 AXA      0.143000
     35 HN1         1.7300   -0.3120    2.2020 hn        1 AXA      0.346500
     36 HAM         4.6990    1.1040    0.0350 h1        1 AXA      0.114700
     37 HAMA        5.2780   -0.6510    0.0360 h1        1 AXA      0.114700
     38 HAG         2.2410   -0.0610   -3.2390 ha        1 AXA      0.184000
     39 HAF        -0.2520    0.1150   -3.3280 ha        1 AXA      0.143000
     40 HAL        -2.3600   -0.3640   -2.1370 hx        1 AXA      0.117200
     41 HALA       -2.4310   -0.3100   -0.3050 hx        1 AXA      0.117200
     42 HN2        -2.0840    2.0980   -0.4510 hn        1 AXA      0.476300
     43 HN4        -6.4260    2.4210   -1.3360 hn        1 AXA      0.369500
     44 HAJ        -3.7270    9.6080   -0.8450 hc        1 AXA      0.083200
     45 HAJA       -4.4660    9.6470   -2.4990 hc        1 AXA      0.083200
     46 HAI        -5.9170    9.6730    0.2390 hc        1 AXA      0.075200
     47 HAIA       -5.8860   10.9600   -1.0310 hc        1 AXA      0.075200
     48 HAK        -7.0420    9.4230   -2.6360 hc        1 AXA      0.063700
     49 HAKA       -8.0240    9.7280   -1.1410 hc        1 AXA      0.063700
     50 HBG        -7.4620    7.5980   -0.1720 hc        1 AXA      0.100700
     51 HAN        -7.8860    6.3740   -2.8360 hc        1 AXA      0.108200
     52 HANA       -8.7610    7.9660   -2.7770 hc        1 AXA      0.108200
     53 HN5        -9.7810    4.7110   -2.1500 hn        1 AXA      0.473800
     54 HN5A      -11.1290    5.3720   -1.4130 hn        1 AXA      0.473800
     55 H22        -2.0140    2.0470   -2.1080 hn        1 AXA      0.476300
     56 H53       -10.6230    5.9450   -2.9020 hn        1 AXA      0.473800
@<TRIPOS>BOND
     1    1    2 ar  
     2    1   11 ar  
     3    1   34 1   
     4    2    3 1   
     5    2    8 ar  
     6    3    4 1   
     7    3   35 1   
     8    4    5 2   
     9    4    6 1   
    10    6    7 1   
    11    6   36 1   
    12    6   37 1   
    13    7    8 1   
    14    8    9 ar  
    15    9   10 ar  
    16    9   38 1   
    17   10   11 ar  
    18   10   39 1   
    19   11   12 1   
    20   12   13 1   
    21   12   40 1   
    22   12   41 1   
    23   13   14 1   
    24   13   42 1   
    25   13   55 1   
    26   14   15 2   
    27   14   16 1   
    28   16   17 2   
    29   16   18 1   
    30   17   23 1   
    31   18   19 1   
    32   18   43 1   
    33   19   20 2   
    34   19   21 1   
    35   21   22 1   
    36   21   23 2   
    37   22   25 2   
    38   22   29 1   
    39   23   24 1   
    40   24   25 1   
    41   25   26 1   
    42   26   27 1   
    43   26   44 1   
    44   26   45 1   
    45   27   28 1   
    46   27   46 1   
    47   27   47 1   
    48   28   29 1   
    49   28   48 1   
    50   28   49 1   
    51   29   30 1   
    52   29   50 1   
    53   30   31 1   
    54   30   51 1   
    55   30   52 1   
    56   31   32 2   
    57   31   33 1   
    58   33   53 1   
    59   33   54 1   
    60   33   56 1   
@<TRIPOS>SUBSTRUCTURE
     1 AXA         1 TEMP              0 ****  ****    0 ROOT
