@<TRIPOS>MOLECULE
AXA
   54    58     1     0     0
SMALL
bcc


@<TRIPOS>ATOM
      1 CAH        -4.3970    1.1900    0.1440 ca        1 AXA     -0.132000
      2 CAY        -5.4630    0.3630    0.5410 ca        1 AXA      0.019600
      3 N1         -5.7010    0.0480    1.8850 n         1 AXA     -0.466100
      4 CAV        -6.6400   -0.9150    2.2210 c         1 AXA      0.675500
      5 OAC        -6.8680   -1.1830    3.4130 o         1 AXA     -0.608500
      6 CAM        -7.3350   -1.6500    1.0880 c3        1 AXA      0.060400
      7 OAS        -7.4340   -0.9240   -0.1360 os        1 AXA     -0.312900
      8 CAZ        -6.3190   -0.1670   -0.4610 ca        1 AXA      0.076100
      9 CAG        -6.1150    0.1200   -1.8120 ca        1 AXA     -0.118000
     10 CAF        -5.0550    0.9470   -2.1800 ca        1 AXA     -0.120000
     11 CAX        -4.2050    1.4790   -1.2090 ca        1 AXA     -0.120300
     12 CAL        -3.0820    2.3970   -1.6040 c3        1 AXA      0.128300
     13 N2         -1.7660    1.8070   -1.5430 n         1 AXA     -0.522900
     14 CAW        -1.0300    1.8350   -0.3840 c         1 AXA      0.583800
     15 OAD        -1.3650    2.4810    0.6280 o         1 AXA     -0.598100
     16 CBB         0.3140    1.0940   -0.3850 cc        1 AXA      0.443900
     17 N3          0.4510   -0.0140   -1.1040 nd        1 AXA     -0.581100
     18 N4          1.3050    1.6560    0.4150 n         1 AXA     -0.460400
     19 CBD         2.5780    1.0550    0.5320 c         1 AXA      0.739100
     20 OAE         3.4010    1.5800    1.3060 o         1 AXA     -0.645500
     21 CBF         2.7730   -0.1420   -0.2780 cc        1 AXA     -0.216600
     22 CBC         3.9230   -0.9800   -0.4000 cc        1 AXA     -0.027300
     23 CBE         1.6800   -0.6420   -1.0320 cd        1 AXA      0.131300
     24 SAT         2.0790   -2.0800   -1.7940 ss        1 AXA      0.130200
     25 CBA         3.6370   -2.0890   -1.1840 cd        1 AXA     -0.132400
     26 CAJ         4.6020   -3.1840   -1.3920 c3        1 AXA     -0.005100
     27 CAI         5.5700   -3.2320   -0.2200 c3        1 AXA     -0.073400
     28 CAK         6.2280   -1.8870   -0.0100 c3        1 AXA     -0.079400
     29 CBG         5.2380   -0.7510    0.2520 c3        1 AXA      0.006600
     30 CAN         5.8490    0.5730   -0.2070 c3        1 AXA     -0.145400
     31 CAU         6.8860    1.0740    0.7830 c         1 AXA      0.656100
     32 OAB         8.1100    0.9960    0.5420 o         1 AXA     -0.630100
     33 N5          6.4400    1.6190    1.9580 n         1 AXA     -0.672000
     34 HAH        -3.7100    1.6220    0.8910 ha        1 AXA      0.162000
     35 HN1        -5.1820    0.5140    2.5950 hn        1 AXA      0.341500
     36 HAM        -6.7850   -2.6120    0.9010 h1        1 AXA      0.091700
     37 HAMA       -8.4040   -1.8570    1.3680 h1        1 AXA      0.091700
     38 HAG        -6.7980   -0.3010   -2.5640 ha        1 AXA      0.156000
     39 HAF        -4.8960    1.1790   -3.2440 ha        1 AXA      0.139000
     40 HAL        -3.2360    2.7450   -2.6670 h1        1 AXA      0.076200
     41 HALA       -3.0990    3.3010   -0.9260 h1        1 AXA      0.076200
     42 HN2        -1.5520    1.1220   -2.2330 hn        1 AXA      0.333500
     43 HN4         1.0800    2.4470    0.9840 hn        1 AXA      0.359500
     44 HAJ         4.0710   -4.1680   -1.4880 hc        1 AXA      0.055200
     45 HAJA        5.1730   -3.0130   -2.3460 hc        1 AXA      0.055200
     46 HAI         5.0210   -3.5390    0.7070 hc        1 AXA      0.048700
     47 HAIA        6.3570   -4.0050   -0.4220 hc        1 AXA      0.048700
     48 HAK         6.9360   -1.9450    0.8590 hc        1 AXA      0.057200
     49 HAKA        6.8450   -1.6450   -0.9170 hc        1 AXA      0.057200
     50 HBG         5.0380   -0.6910    1.3630 hc        1 AXA      0.076700
     51 HAN         6.3530    0.4470   -1.2000 hc        1 AXA      0.074700
     52 HANA        5.0430    1.3450   -0.3260 hc        1 AXA      0.074700
     53 HN5         5.4700    1.7360    2.1240 hn        1 AXA      0.320500
     54 HN5A        7.0900    1.9950    2.6020 hn        1 AXA      0.320500
@<TRIPOS>BOND
     1    1    2 ar  
     2    1   11 ar  
     3    1   34 1   
     4    2    3 1   
     5    2    8 ar  
     6    3    4 1   
     7    3   35 1   
     8    4    5 2   
     9    4    6 1   
    10    6    7 1   
    11    6   36 1   
    12    6   37 1   
    13    7    8 1   
    14    8    9 ar  
    15    9   10 ar  
    16    9   38 1   
    17   10   11 ar  
    18   10   39 1   
    19   11   12 1   
    20   12   13 1   
    21   12   40 1   
    22   12   41 1   
    23   13   14 1   
    24   13   42 1   
    25   14   15 2   
    26   14   16 1   
    27   16   17 2   
    28   16   18 1   
    29   17   23 1   
    30   18   19 1   
    31   18   43 1   
    32   19   20 2   
    33   19   21 1   
    34   21   22 1   
    35   21   23 2   
    36   22   25 2   
    37   22   29 1   
    38   23   24 1   
    39   24   25 1   
    40   25   26 1   
    41   26   27 1   
    42   26   44 1   
    43   26   45 1   
    44   27   28 1   
    45   27   46 1   
    46   27   47 1   
    47   28   29 1   
    48   28   48 1   
    49   28   49 1   
    50   29   30 1   
    51   29   50 1   
    52   30   31 1   
    53   30   51 1   
    54   30   52 1   
    55   31   32 2   
    56   31   33 1   
    57   33   53 1   
    58   33   54 1   
@<TRIPOS>SUBSTRUCTURE
     1 AXA         1 TEMP              0 ****  ****    0 ROOT
