@<TRIPOS>MOLECULE
AXA
   56    60     1     0     0
SMALL
bcc


@<TRIPOS>ATOM
      1 CAH         0.2100    0.0030    0.0610 ca        1 AXA     -0.134000
      2 CAY         1.6100   -0.1070    0.0840 ca        1 AXA      0.039600
      3 N1          2.3280   -0.2060    1.2720 ns        1 AXA     -0.476100
      4 CAV         3.7260   -0.2340    1.2580 c         1 AXA      0.675500
      5 OAC         4.3430   -0.4040    2.3160 o         1 AXA     -0.546500
      6 CAM         4.4280    0.0100   -0.0620 c3        1 AXA      0.054400
      7 OAS         3.6690   -0.2850   -1.2400 os        1 AXA     -0.290900
      8 CAZ         2.3090   -0.1120   -1.1620 ca        1 AXA      0.138100
      9 CAG         1.6210   -0.0190   -2.3770 ca        1 AXA     -0.120000
     10 CAF         0.2330    0.0770   -2.3730 ca        1 AXA     -0.097000
     11 CAX        -0.4680    0.0890   -1.1630 ca        1 AXA     -0.205300
     12 CAL        -1.9510    0.1270   -1.1720 c3        1 AXA      0.192100
     13 N2         -2.4290    1.5650   -1.2040 ny        1 AXA     -0.658800
     14 CAW        -3.9150    1.6920   -1.2260 c         1 AXA      0.461800
     15 OAD        -4.5980    0.6780   -1.2030 o         1 AXA     -0.388100
     16 CBB        -4.4760    3.0950   -1.2740 cc        1 AXA      0.392900
     17 N3         -3.6390    4.1240   -1.3020 nd        1 AXA     -0.529100
     18 N4         -5.8720    3.1900   -1.2840 ns        1 AXA     -0.447400
     19 CBD        -6.5000    4.4470   -1.3290 c         1 AXA      0.769100
     20 OAE        -7.7510    4.4750   -1.3240 o         1 AXA     -0.714500
     21 CBF        -5.6120    5.6030   -1.3760 cc        1 AXA     -0.188600
     22 CBC        -5.9190    6.9880   -1.4060 cc        1 AXA     -0.063300
     23 CBE        -4.2000    5.3820   -1.3390 cd        1 AXA      0.055300
     24 SAT        -3.3680    6.8270   -1.3170 ss        1 AXA      0.313200
     25 CBA        -4.7430    7.7460   -1.3470 cd        1 AXA     -0.097400
     26 CAJ        -4.7520    9.2200   -1.2550 c3        1 AXA     -0.029100
     27 CAI        -6.0530    9.6850   -0.6250 c3        1 AXA     -0.075400
     28 CAK        -7.2380    9.1270   -1.3820 c3        1 AXA     -0.087400
     29 CBG        -7.2760    7.5960   -1.4010 c3        1 AXA      0.014600
     30 CAN        -8.0950    7.1260   -2.6090 c3        1 AXA     -0.150400
     31 CAU        -9.5640    7.1440   -2.3030 c         1 AXA      0.549100
     32 OAB       -10.3890    8.0090   -2.5340 o         1 AXA     -0.380100
     33 N5        -10.1010    5.9080   -1.6140 nz        1 AXA     -0.757400
     34 HAH        -0.3570   -0.0160    1.0040 ha        1 AXA      0.143000
     35 HN1         1.8450   -0.3670    2.1280 hn        1 AXA      0.346500
     36 HAM         5.3270   -0.6650   -0.1480 h1        1 AXA      0.114700
     37 HAMA        4.7430    1.0890   -0.1090 h1        1 AXA      0.114700
     38 HAG         2.1890   -0.0460   -3.3220 ha        1 AXA      0.184000
     39 HAF        -0.3050    0.1190   -3.3330 ha        1 AXA      0.143000
     40 HAL        -2.3900   -0.3530   -0.2510 hx        1 AXA      0.117200
     41 HALA       -2.3750   -0.3860   -2.0840 hx        1 AXA      0.117200
     42 HN2        -2.0370    2.0270   -2.0370 hn        1 AXA      0.476300
     43 HN4        -6.4310    2.3600   -1.2370 hn        1 AXA      0.372500
     44 HAJ        -3.8830    9.5860   -0.6440 hc        1 AXA      0.085200
     45 HAJA       -4.6480    9.6640   -2.2840 hc        1 AXA      0.085200
     46 HAI        -6.0940    9.3660    0.4490 hc        1 AXA      0.075200
     47 HAIA       -6.0940   10.8060   -0.6470 hc        1 AXA      0.075200
     48 HAK        -7.2010    9.5190   -2.4340 hc        1 AXA      0.066700
     49 HAKA       -8.1880    9.5030   -0.9190 hc        1 AXA      0.066700
     50 HBG        -7.7780    7.2390   -0.4530 hc        1 AXA      0.060700
     51 HAN        -7.7740    6.0960   -2.9250 hc        1 AXA      0.117200
     52 HANA       -7.9310    7.8160   -3.4870 hc        1 AXA      0.117200
     53 HN5        -9.9830    5.0930   -2.2280 hn        1 AXA      0.475800
     54 HN5A       -9.5520    5.7240   -0.7630 hn        1 AXA      0.475800
     55 H22        -2.0600    2.0580   -0.3780 hn        1 AXA      0.476300
     56 H53       -11.0930    6.0200   -1.3750 hn        1 AXA      0.475800
@<TRIPOS>BOND
     1    1    2 ar  
     2    1   11 ar  
     3    1   34 1   
     4    2    3 1   
     5    2    8 ar  
     6    3    4 1   
     7    3   35 1   
     8    4    5 2   
     9    4    6 1   
    10    6    7 1   
    11    6   36 1   
    12    6   37 1   
    13    7    8 1   
    14    8    9 ar  
    15    9   10 ar  
    16    9   38 1   
    17   10   11 ar  
    18   10   39 1   
    19   11   12 1   
    20   12   13 1   
    21   12   40 1   
    22   12   41 1   
    23   13   14 1   
    24   13   42 1   
    25   13   55 1   
    26   14   15 2   
    27   14   16 1   
    28   16   17 2   
    29   16   18 1   
    30   17   23 1   
    31   18   19 1   
    32   18   43 1   
    33   19   20 2   
    34   19   21 1   
    35   21   22 1   
    36   21   23 2   
    37   22   25 2   
    38   22   29 1   
    39   23   24 1   
    40   24   25 1   
    41   25   26 1   
    42   26   27 1   
    43   26   44 1   
    44   26   45 1   
    45   27   28 1   
    46   27   46 1   
    47   27   47 1   
    48   28   29 1   
    49   28   48 1   
    50   28   49 1   
    51   29   30 1   
    52   29   50 1   
    53   30   31 1   
    54   30   51 1   
    55   30   52 1   
    56   31   32 2   
    57   31   33 1   
    58   33   53 1   
    59   33   54 1   
    60   33   56 1   
@<TRIPOS>SUBSTRUCTURE
     1 AXA         1 TEMP              0 ****  ****    0 ROOT
