@<TRIPOS>MOLECULE
AXA
   54    52     1     0     0
SMALL
bcc


@<TRIPOS>ATOM
      1 CAH         5.7670   -0.2840    0.8510 c1        1 AXA     -0.137000
      2 CAY         6.9290    0.3200    0.4980 c1        1 AXA      0.023000
      3 N1          7.8740    0.8280    1.4950 n2        1 AXA     -0.322000
      4 CAV         9.0910    1.1520    1.0750 c2        1 AXA      0.283000
      5 OAC         9.9790    1.2250    1.8490 o         1 AXA     -0.334000
      6 CAM         9.2310    1.7950   -0.3190 c3        1 AXA     -0.039000
      7 OAS         8.6390    1.0670   -1.2630 os        1 AXA     -0.195000
      8 CAZ         7.3460    0.3300   -0.9000 c2        1 AXA      0.031000
      9 CAG         6.5570   -0.2750   -1.8700 c1        1 AXA     -0.115000
     10 CAF         5.3540   -0.9010   -1.5060 c1        1 AXA     -0.113000
     11 CAX         4.9450   -0.9140   -0.1530 c1        1 AXA     -0.114000
     12 CAL         3.6700   -1.6440    0.2580 c3        1 AXA      0.005000
     13 N2          2.5470   -0.8490   -0.0670 n         1 AXA     -0.332000
     14 CAW         1.3990   -1.4420   -0.6860 c2        1 AXA      0.346000
     15 OAD         1.5440   -2.3310   -1.5530 o         1 AXA     -0.356000
     16 CBB         0.0410   -0.9770   -0.3190 c2        1 AXA      0.081000
     17 N3         -0.3140    0.3960   -0.5000 n1        1 AXA     -0.155000
     18 N4         -0.9760   -1.9460    0.0340 n         1 AXA     -0.300000
     19 CBD        -2.3190   -1.5080    0.3230 c2        1 AXA      0.377000
     20 OAE        -3.1470   -2.3050    0.6700 o         1 AXA     -0.371000
     21 CBF        -2.6990   -0.1270    0.0720 c2        1 AXA     -0.196000
     22 CBC        -4.1140    0.6300    0.1640 c1        1 AXA     -0.020000
     23 CBE        -1.6920    0.8340   -0.2730 c1        1 AXA     -0.277000
     24 SAT        -2.4080    2.2820   -0.4250 ss        1 AXA      0.669000
     25 CBA        -3.8890    2.0940   -0.1460 c1        1 AXA     -0.395000
     26 CAJ        -5.1110    3.0930    0.0890 c2        1 AXA     -0.091000
     27 CAI        -6.2710    2.5410    0.7260 c3        1 AXA     -0.152000
     28 CAK        -6.6200    1.2000    0.3900 c3        1 AXA     -0.158000
     29 CBG        -5.5720    0.1810    0.5230 c2        1 AXA     -0.040000
     30 CAN        -5.9480   -1.0330   -0.4150 c3        1 AXA     -0.174000
     31 CAU        -6.9800   -1.9090    0.2790 c2        1 AXA      0.300000
     32 OAB        -7.0510   -1.9150    1.4700 o         1 AXA     -0.391000
     33 N5         -7.9530   -2.6780   -0.5190 n         1 AXA     -0.432000
     34 HAH         5.4820   -0.2900    1.7990 ha        1 AXA      0.139000
     35 HN1         7.7330    0.6710    2.3620 hn        1 AXA      0.251000
     36 HAM         9.0460    2.7460   -0.2370 h1        1 AXA      0.131500
     37 HAMA       10.2620    1.7900   -0.6270 h1        1 AXA      0.131500
     38 HAG         6.8580   -0.2620   -2.8620 ha        1 AXA      0.159000
     39 HAF         4.8380   -1.2980   -2.1420 ha        1 AXA      0.160000
     40 HAL         3.6160   -2.4770   -0.1990 h1        1 AXA      0.115500
     41 HALA        3.6890   -1.8090    1.2650 h1        1 AXA      0.115500
     42 HN2         2.5340   -0.0130    0.1520 hn        1 AXA      0.246000
     43 HN4        -0.7550   -2.8280    0.1220 hn        1 AXA      0.273000
     44 HAJ        -4.7740    3.8810    0.6670 ha        1 AXA      0.094500
     45 HAJA       -5.3780    3.4420   -0.7590 ha        1 AXA      0.094500
     46 HAI        -7.0770    3.1440    0.4930 hc        1 AXA      0.088000
     47 HAIA       -6.1360    2.5790    1.6520 hc        1 AXA      0.088000
     48 HAK        -7.3570    0.9370    0.9530 hc        1 AXA      0.096500
     49 HAKA       -6.9240    1.1980   -0.5270 hc        1 AXA      0.096500
     50 HBG        -5.5760   -0.1360    1.4470 ha        1 AXA      0.115000
     51 HAN        -5.1010   -1.5910   -0.6150 hc        1 AXA      0.114500
     52 HANA       -6.3260   -0.6870   -1.2660 hc        1 AXA      0.114500
     53 HN5        -8.5980   -3.2600   -0.0700 hn        1 AXA      0.233000
     54 HN5A       -7.9040   -2.6670   -1.4630 hn        1 AXA      0.233000
@<TRIPOS>BOND
     1    1    2 1   
     2    1   34 1   
     3    2    8 1   
     4    3    4 1   
     5    3   35 1   
     6    4    5 1   
     7    4    6 1   
     8    6    7 1   
     9    6   36 1   
    10    6   37 1   
    11    7    8 1   
    12    8    9 1   
    13    9   38 1   
    14   10   11 1   
    15   10   39 1   
    16   11   12 1   
    17   12   13 1   
    18   12   40 1   
    19   12   41 1   
    20   13   14 1   
    21   13   42 1   
    22   14   15 1   
    23   14   16 1   
    24   16   17 1   
    25   16   18 1   
    26   18   19 1   
    27   18   43 1   
    28   19   20 1   
    29   19   21 1   
    30   21   22 1   
    31   21   23 1   
    32   22   25 1   
    33   23   24 1   
    34   24   25 1   
    35   26   27 1   
    36   26   44 1   
    37   26   45 1   
    38   27   28 1   
    39   27   46 1   
    40   27   47 1   
    41   28   29 1   
    42   28   48 1   
    43   28   49 1   
    44   29   30 1   
    45   29   50 1   
    46   30   31 1   
    47   30   51 1   
    48   30   52 1   
    49   31   32 1   
    50   31   33 1   
    51   33   53 1   
    52   33   54 1   
@<TRIPOS>SUBSTRUCTURE
     1 AXA         1 TEMP              0 ****  ****    0 ROOT
