@<TRIPOS>MOLECULE
AXB
   60    65     1     0     0
SMALL
bcc


@<TRIPOS>ATOM
      1 N1          0.4760   -1.1470    0.9980 n4        1 AXB     -0.622400
      2 CAZ         1.8380   -0.9590    0.6620 cc        1 AXB     -0.422200
      3 CBF         3.0110   -1.0550    1.5760 c         1 AXB      0.545300
      4 OAD         3.1540   -1.3040    2.7500 o         1 AXB     -0.399100
      5 CBG         3.9030   -0.7080    0.3860 c         1 AXB      0.501300
      6 OAE         5.0630   -0.5420    0.1130 o         1 AXB     -0.357100
      7 CBD         2.5970   -0.6360   -0.4760 cd        1 AXB      0.174800
      8 N2          2.4160   -0.3400   -1.7550 nh        1 AXB     -0.574400
      9 CAM         3.5470   -0.0300   -2.6280 c3        1 AXB      0.186800
     10 CAK         3.6320   -0.9680   -3.8290 c3        1 AXB     -0.072100
     11 CAP         1.1120   -0.3510   -2.4010 c3        1 AXB      0.249100
     12 CAY         1.1240   -0.8270   -3.8280 ca        1 AXB     -0.114300
     13 CAJ        -0.1030   -0.9580   -4.4890 ca        1 AXB     -0.079000
     14 CAX         2.3170   -1.1250   -4.5020 ca        1 AXB     -0.020300
     15 CAI         2.2680   -1.5900   -5.8240 ca        1 AXB     -0.101000
     16 CAH         1.0460   -1.7470   -6.4700 ca        1 AXB     -0.094000
     17 CAW        -0.1440   -1.4180   -5.8080 ca        1 AXB     -0.164300
     18 CAO        -1.4590   -1.6370   -6.4800 c3        1 AXB      0.166100
     19 N3         -1.6250   -0.7750   -7.6940 n4        1 AXB     -0.661800
     20 CAV        -2.9420   -1.0030   -8.4000 c         1 AXB      0.470800
     21 OAB        -3.7540   -1.7310   -7.8510 o         1 AXB     -0.400100
     22 CBB        -3.1130   -0.3010   -9.7180 cc        1 AXB      0.393900
     23 N4         -2.1780    0.5690  -10.0960 nd        1 AXB     -0.557100
     24 CBH        -2.3730    1.1880  -11.3100 cd        1 AXB      0.054300
     25 SAU        -1.3690    2.3170  -12.0280 ss        1 AXB      0.233200
     26 CBA        -2.3240    2.4740  -13.3810 cd        1 AXB     -0.064400
     27 CAQ        -1.9880    3.3780  -14.4760 c3        1 AXB     -0.239300
     28 SBK        -2.8080    3.0650  -15.9840 s6        1 AXB      1.332000
     29 OAF        -2.8310    4.2670  -16.6870 o         1 AXB     -0.622300
     30 OAG        -2.2390    1.9400  -16.5750 o         1 AXB     -0.622300
     31 CAN        -4.3670    2.7230  -15.3900 c3        1 AXB     -0.328600
     32 CAL        -4.4490    1.5530  -14.4370 c3        1 AXB      0.002900
     33 CBC        -3.4610    1.6600  -13.3430 cc        1 AXB     -0.041300
     34 CBI        -3.5010    0.9180  -12.1390 cc        1 AXB     -0.156600
     35 CBE        -4.5210   -0.0280  -11.6950 c         1 AXB      0.735100
     36 OAC        -5.5590   -0.3460  -12.2830 o         1 AXB     -0.542500
     37 N5         -4.2590   -0.6320  -10.4310 n         1 AXB     -0.469400
     38 HN1         0.4210   -1.2980    2.0190 hn        1 AXB      0.459467
     39 HN1A       -0.0820   -0.3210    0.7540 hn        1 AXB      0.459467
     40 HAM         4.5130   -0.0820   -2.0460 h1        1 AXB      0.101200
     41 HAMA        3.4060    1.0320   -2.9850 h1        1 AXB      0.101200
     42 HAK         4.0070   -1.9810   -3.5120 hc        1 AXB      0.101200
     43 HAKA        4.3920   -0.5430   -4.5420 hc        1 AXB      0.101200
     44 HAP         0.7070    0.7060   -2.3810 h1        1 AXB      0.066700
     45 HAPA        0.4130   -1.0120   -1.8100 h1        1 AXB      0.066700
     46 HAJ        -1.0370   -0.7090   -3.9600 ha        1 AXB      0.144000
     47 HAI         3.2060   -1.8410   -6.3490 ha        1 AXB      0.175000
     48 HAH         1.0260   -2.1480   -7.4960 ha        1 AXB      0.149000
     49 HAO        -1.5490   -2.7140   -6.8150 hx        1 AXB      0.121700
     50 HAOA       -2.3200   -1.4170   -5.7830 hx        1 AXB      0.121700
     51 HN3        -0.8580   -0.9620   -8.3550 hn        1 AXB      0.474300
     52 HAQ        -0.8780    3.3470  -14.6730 h1        1 AXB      0.134700
     53 HAQA       -2.1990    4.4420  -14.1620 h1        1 AXB      0.134700
     54 HAN        -4.8150    3.6280  -14.8950 h1        1 AXB      0.135200
     55 HANA       -5.0620    2.5040  -16.2500 h1        1 AXB      0.135200
     56 HAL        -5.4860    1.4720  -14.0060 hc        1 AXB      0.099200
     57 HALA       -4.2590    0.5930  -14.9980 hc        1 AXB      0.099200
     58 HN5        -4.9200   -1.2830  -10.0590 hn        1 AXB      0.363500
     59 H13         0.0910   -1.9720    0.5220 hn        1 AXB      0.459467
     60 H32        -1.5680    0.2180   -7.4300 hn        1 AXB      0.474300
@<TRIPOS>BOND
     1    1    2 1   
     2    1   38 1   
     3    1   39 1   
     4    1   59 1   
     5    2    3 1   
     6    2    7 2   
     7    3    4 2   
     8    3    5 1   
     9    5    6 2   
    10    5    7 1   
    11    7    8 1   
    12    8    9 1   
    13    8   11 1   
    14    9   10 1   
    15    9   40 1   
    16    9   41 1   
    17   10   14 1   
    18   10   42 1   
    19   10   43 1   
    20   11   12 1   
    21   11   44 1   
    22   11   45 1   
    23   12   13 ar  
    24   12   14 ar  
    25   13   17 ar  
    26   13   46 1   
    27   14   15 ar  
    28   15   16 ar  
    29   15   47 1   
    30   16   17 ar  
    31   16   48 1   
    32   17   18 1   
    33   18   19 1   
    34   18   49 1   
    35   18   50 1   
    36   19   20 1   
    37   19   51 1   
    38   19   60 1   
    39   20   21 2   
    40   20   22 1   
    41   22   23 2   
    42   22   37 1   
    43   23   24 1   
    44   24   25 1   
    45   24   34 2   
    46   25   26 1   
    47   26   27 1   
    48   26   33 2   
    49   27   28 1   
    50   27   52 1   
    51   27   53 1   
    52   28   29 2   
    53   28   30 2   
    54   28   31 1   
    55   31   32 1   
    56   31   54 1   
    57   31   55 1   
    58   32   33 1   
    59   32   56 1   
    60   32   57 1   
    61   33   34 1   
    62   34   35 1   
    63   35   36 2   
    64   35   37 1   
    65   37   58 1   
@<TRIPOS>SUBSTRUCTURE
     1 AXB         1 TEMP              0 ****  ****    0 ROOT
