@<TRIPOS>MOLECULE
AXB
   58    63     1     0     0
SMALL
bcc


@<TRIPOS>ATOM
      1 N1          6.7110    0.4910   -3.1980 nh        1 AXB     -0.793600
      2 CAZ         7.2920    0.0050   -2.0760 cc        1 AXB      0.014800
      3 CBF         8.7000    0.1410   -1.5420 c         1 AXB      0.472300
      4 OAD         9.7260    0.6480   -1.9500 o         1 AXB     -0.467100
      5 CBG         8.2170   -0.6160   -0.2970 c         1 AXB      0.487300
      6 OAE         8.7220   -1.0120    0.7370 o         1 AXB     -0.486100
      7 CBD         6.8590   -0.6720   -0.9310 cd        1 AXB     -0.072200
      8 N2          5.6790   -1.3090   -0.5820 nh        1 AXB     -0.573400
      9 CAM         5.7340   -2.1030    0.6400 c3        1 AXB      0.175800
     10 CAK         5.5870   -1.3110    1.9400 c3        1 AXB     -0.075100
     11 CAP         4.4640   -0.5040   -0.6630 c3        1 AXB      0.218100
     12 CAY         4.0150    0.1390    0.6170 ca        1 AXB     -0.111300
     13 CAJ         3.0430    1.1410    0.5610 ca        1 AXB     -0.101000
     14 CAX         4.5330   -0.2660    1.8560 ca        1 AXB     -0.054300
     15 CAI         4.0660    0.3410    3.0280 ca        1 AXB     -0.129000
     16 CAH         3.0950    1.3370    2.9700 ca        1 AXB     -0.110000
     17 CAW         2.5810    1.7420    1.7340 ca        1 AXB     -0.132300
     18 CAO         1.5590    2.8390    1.6540 c3        1 AXB      0.127300
     19 N3          0.2100    2.3920    1.3960 n         1 AXB     -0.519900
     20 CAV        -0.2510    2.2390    0.1120 c         1 AXB      0.581800
     21 OAB         0.3750    2.6130   -0.8980 o         1 AXB     -0.595100
     22 CBB        -1.6610    1.6530   -0.0630 cc        1 AXB      0.455900
     23 N4         -2.0920    0.7270    0.7880 nd        1 AXB     -0.590100
     24 CBH        -3.3560    0.2220    0.5510 cd        1 AXB      0.147300
     25 SAU        -4.1280   -0.9570    1.4560 ss        1 AXB      0.142200
     26 CBA        -5.5120   -0.9350    0.5060 cd        1 AXB     -0.119400
     27 CAQ        -6.6530   -1.8040    0.7850 c3        1 AXB     -0.220300
     28 SBK        -8.0520   -1.5940   -0.2100 s6        1 AXB      1.316000
     29 OAF        -8.5800   -2.8700   -0.4550 o         1 AXB     -0.644300
     30 OAG        -8.9020   -0.6530    0.3790 o         1 AXB     -0.644300
     31 CAN        -7.3960   -0.9900   -1.6590 c3        1 AXB     -0.317600
     32 CAL        -6.5100    0.2270   -1.5080 c3        1 AXB      0.002900
     33 CBC        -5.4290   -0.0210   -0.5340 cc        1 AXB     -0.037300
     34 CBI        -4.1760    0.6550   -0.5200 cc        1 AXB     -0.217600
     35 CBE        -3.6760    1.6630   -1.4460 c         1 AXB      0.733100
     36 OAC        -4.2670    2.1180   -2.4400 o         1 AXB     -0.612500
     37 N5         -2.3800    2.1450   -1.1470 n         1 AXB     -0.461400
     38 HN1         7.3280    0.8150   -3.9080 hn        1 AXB      0.422800
     39 HN1A        5.8870    0.0310   -3.5120 hn        1 AXB      0.422800
     40 HAM         4.8950   -2.8510    0.5620 h1        1 AXB      0.067700
     41 HAMA        6.7110   -2.6620    0.6650 h1        1 AXB      0.067700
     42 HAK         5.3550   -2.0290    2.7700 hc        1 AXB      0.070700
     43 HAKA        6.5700   -0.8200    2.1860 hc        1 AXB      0.070700
     44 HAP         4.5870    0.2900   -1.4520 h1        1 AXB      0.068200
     45 HAPA        3.6480   -1.2100   -1.0020 h1        1 AXB      0.068200
     46 HAJ         2.6340    1.4640   -0.4110 ha        1 AXB      0.152000
     47 HAI         4.4740    0.0270    4.0010 ha        1 AXB      0.138000
     48 HAH         2.7380    1.8080    3.8980 ha        1 AXB      0.133000
     49 HAO         1.5340    3.4050    2.6300 h1        1 AXB      0.075200
     50 HAOA        1.8590    3.5560    0.8330 h1        1 AXB      0.075200
     51 HN3        -0.2400    1.8930    2.1310 hn        1 AXB      0.332500
     52 HAQ        -6.3200   -2.8810    0.7250 h1        1 AXB      0.125700
     53 HAQA       -6.9710   -1.6540    1.8590 h1        1 AXB      0.125700
     54 HAN        -6.8150   -1.7890   -2.1970 h1        1 AXB      0.125200
     55 HANA       -8.2300   -0.7170   -2.3640 h1        1 AXB      0.125200
     56 HAL        -6.0690    0.5170   -2.5010 hc        1 AXB      0.092200
     57 HALA       -7.1250    1.1040   -1.1590 hc        1 AXB      0.092200
     58 HN5        -1.9420    2.7970   -1.7670 hn        1 AXB      0.360500
@<TRIPOS>BOND
     1    1    2 1   
     2    1   38 1   
     3    1   39 1   
     4    2    3 1   
     5    2    7 2   
     6    3    4 2   
     7    3    5 1   
     8    5    6 2   
     9    5    7 1   
    10    7    8 1   
    11    8    9 1   
    12    8   11 1   
    13    9   10 1   
    14    9   40 1   
    15    9   41 1   
    16   10   14 1   
    17   10   42 1   
    18   10   43 1   
    19   11   12 1   
    20   11   44 1   
    21   11   45 1   
    22   12   13 ar  
    23   12   14 ar  
    24   13   17 ar  
    25   13   46 1   
    26   14   15 ar  
    27   15   16 ar  
    28   15   47 1   
    29   16   17 ar  
    30   16   48 1   
    31   17   18 1   
    32   18   19 1   
    33   18   49 1   
    34   18   50 1   
    35   19   20 1   
    36   19   51 1   
    37   20   21 2   
    38   20   22 1   
    39   22   23 2   
    40   22   37 1   
    41   23   24 1   
    42   24   25 1   
    43   24   34 2   
    44   25   26 1   
    45   26   27 1   
    46   26   33 2   
    47   27   28 1   
    48   27   52 1   
    49   27   53 1   
    50   28   29 2   
    51   28   30 2   
    52   28   31 1   
    53   31   32 1   
    54   31   54 1   
    55   31   55 1   
    56   32   33 1   
    57   32   56 1   
    58   32   57 1   
    59   33   34 1   
    60   34   35 1   
    61   35   36 2   
    62   35   37 1   
    63   37   58 1   
@<TRIPOS>SUBSTRUCTURE
     1 AXB         1 TEMP              0 ****  ****    0 ROOT
