@<TRIPOS>MOLECULE
AXB
   60    65     1     0     0
SMALL
bcc


@<TRIPOS>ATOM
      1 N1          0.4880   -1.1540    0.9970 nz        1 AXB     -0.622400
      2 CAZ         1.8480   -0.9590    0.6600 cc        1 AXB     -0.422200
      3 CBF         3.0230   -1.0510    1.5730 c         1 AXB      0.545300
      4 OAD         3.1680   -1.3010    2.7470 o         1 AXB     -0.399100
      5 CBG         3.9120   -0.6970    0.3820 c         1 AXB      0.501300
      6 OAE         5.0710   -0.5250    0.1090 o         1 AXB     -0.357100
      7 CBD         2.6050   -0.6300   -0.4780 cd        1 AXB      0.174800
      8 N2          2.4220   -0.3330   -1.7560 nh        1 AXB     -0.574400
      9 CAM         3.5510   -0.0160   -2.6300 c3        1 AXB      0.186800
     10 CAK         3.6390   -0.9510   -3.8330 c3        1 AXB     -0.072100
     11 CAP         1.1170   -0.3490   -2.4010 c3        1 AXB      0.249100
     12 CAY         1.1300   -0.8220   -3.8300 ca        1 AXB     -0.114300
     13 CAJ        -0.0970   -0.9570   -4.4890 ca        1 AXB     -0.079000
     14 CAX         2.3250   -1.1130   -4.5050 ca        1 AXB     -0.020300
     15 CAI         2.2760   -1.5760   -5.8280 ca        1 AXB     -0.101000
     16 CAH         1.0550   -1.7370   -6.4730 ca        1 AXB     -0.094000
     17 CAW        -0.1370   -1.4150   -5.8090 ca        1 AXB     -0.164300
     18 CAO        -1.4510   -1.6400   -6.4800 c3        1 AXB      0.166100
     19 N3         -1.6220   -0.7760   -7.6940 ny        1 AXB     -0.661800
     20 CAV        -2.9380   -1.0100   -8.3980 c         1 AXB      0.470800
     21 OAB        -3.7480   -1.7410   -7.8500 o         1 AXB     -0.400100
     22 CBB        -3.1130   -0.3080   -9.7160 cc        1 AXB      0.393900
     23 N4         -2.1820    0.5660  -10.0950 nd        1 AXB     -0.557100
     24 CBH        -2.3810    1.1850  -11.3080 cd        1 AXB      0.054300
     25 SAU        -1.3820    2.3170  -12.0270 ss        1 AXB      0.233200
     26 CBA        -2.3390    2.4710  -13.3790 cd        1 AXB     -0.064400
     27 CAQ        -2.0070    3.3770  -14.4740 c3        1 AXB     -0.239300
     28 SBK        -2.8280    3.0610  -15.9820 s6        1 AXB      1.332000
     29 OAF        -2.8560    4.2630  -16.6840 o         1 AXB     -0.622300
     30 OAG        -2.2550    1.9390  -16.5730 o         1 AXB     -0.622300
     31 CAN        -4.3840    2.7120  -15.3860 c3        1 AXB     -0.328600
     32 CAL        -4.4600    1.5420  -14.4340 c3        1 AXB      0.002900
     33 CBC        -3.4730    1.6520  -13.3400 cc        1 AXB     -0.041300
     34 CBI        -3.5090    0.9110  -12.1370 cc        1 AXB     -0.156600
     35 CBE        -4.5240   -0.0400  -11.6920 c         1 AXB      0.735100
     36 OAC        -5.5610   -0.3620  -12.2790 o         1 AXB     -0.542500
     37 N5         -4.2590   -0.6430  -10.4290 ns        1 AXB     -0.469400
     38 HN1         0.4340   -1.3070    2.0180 hn        1 AXB      0.459467
     39 HN1A       -0.0740   -0.3300    0.7540 hn        1 AXB      0.459467
     40 HAM         3.4040    1.0460   -2.9850 h1        1 AXB      0.101200
     41 HAMA        4.5170   -0.0650   -2.0490 h1        1 AXB      0.101200
     42 HAK         4.0190   -1.9630   -3.5180 hc        1 AXB      0.101200
     43 HAKA        4.3960   -0.5210   -4.5450 hc        1 AXB      0.101200
     44 HAP         0.4220   -1.0140   -1.8110 h1        1 AXB      0.066700
     45 HAPA        0.7070    0.7060   -2.3790 h1        1 AXB      0.066700
     46 HAJ        -1.0320   -0.7140   -3.9590 ha        1 AXB      0.144000
     47 HAI         3.2150   -1.8210   -6.3540 ha        1 AXB      0.175000
     48 HAH         1.0350   -2.1360   -7.5000 ha        1 AXB      0.149000
     49 HAO        -2.3120   -1.4240   -5.7830 hx        1 AXB      0.121200
     50 HAOA       -1.5370   -2.7160   -6.8170 hx        1 AXB      0.121200
     51 HN3        -1.5690    0.2160   -7.4280 hn        1 AXB      0.474300
     52 HAQ        -0.8970    3.3500  -14.6730 h1        1 AXB      0.134700
     53 HAQA       -2.2220    4.4390  -14.1590 h1        1 AXB      0.134700
     54 HAN        -4.8350    3.6150  -14.8900 h1        1 AXB      0.135200
     55 HANA       -5.0800    2.4910  -16.2460 h1        1 AXB      0.135200
     56 HAL        -5.4960    1.4570  -14.0020 hc        1 AXB      0.099200
     57 HALA       -4.2670    0.5830  -14.9960 hc        1 AXB      0.099200
     58 HN5        -4.9170   -1.2970  -10.0560 hn        1 AXB      0.363500
     59 H13         0.1060   -1.9800    0.5190 hn        1 AXB      0.459467
     60 H32        -0.8550   -0.9590   -8.3550 hn        1 AXB      0.474300
@<TRIPOS>BOND
     1    1    2 1   
     2    1   38 1   
     3    1   39 1   
     4    1   59 1   
     5    2    3 1   
     6    2    7 2   
     7    3    4 2   
     8    3    5 1   
     9    5    6 2   
    10    5    7 1   
    11    7    8 1   
    12    8    9 1   
    13    8   11 1   
    14    9   10 1   
    15    9   40 1   
    16    9   41 1   
    17   10   14 1   
    18   10   42 1   
    19   10   43 1   
    20   11   12 1   
    21   11   44 1   
    22   11   45 1   
    23   12   13 ar  
    24   12   14 ar  
    25   13   17 ar  
    26   13   46 1   
    27   14   15 ar  
    28   15   16 ar  
    29   15   47 1   
    30   16   17 ar  
    31   16   48 1   
    32   17   18 1   
    33   18   19 1   
    34   18   49 1   
    35   18   50 1   
    36   19   20 1   
    37   19   51 1   
    38   19   60 1   
    39   20   21 2   
    40   20   22 1   
    41   22   23 2   
    42   22   37 1   
    43   23   24 1   
    44   24   25 1   
    45   24   34 2   
    46   25   26 1   
    47   26   27 1   
    48   26   33 2   
    49   27   28 1   
    50   27   52 1   
    51   27   53 1   
    52   28   29 2   
    53   28   30 2   
    54   28   31 1   
    55   31   32 1   
    56   31   54 1   
    57   31   55 1   
    58   32   33 1   
    59   32   56 1   
    60   32   57 1   
    61   33   34 1   
    62   34   35 1   
    63   35   36 2   
    64   35   37 1   
    65   37   58 1   
@<TRIPOS>SUBSTRUCTURE
     1 AXB         1 TEMP              0 ****  ****    0 ROOT
