@<TRIPOS>MOLECULE
AXB
   60    65     1     0     0
SMALL
bcc


@<TRIPOS>ATOM
      1 N1          0.4830   -1.1320    1.0010 n4        1 AXB     -0.622400
      2 CAZ         1.8450   -0.9540    0.6610 cc        1 AXB     -0.422200
      3 CBF         3.0200   -1.0570    1.5740 c         1 AXB      0.545300
      4 OAD         3.1630   -1.3050    2.7480 o         1 AXB     -0.399100
      5 CBG         3.9110   -0.7190    0.3800 c         1 AXB      0.501300
      6 OAE         5.0720   -0.5620    0.1050 o         1 AXB     -0.357100
      7 CBD         2.6040   -0.6390   -0.4780 cd        1 AXB      0.174800
      8 N2          2.4230   -0.3440   -1.7580 nh        1 AXB     -0.574400
      9 CAM         3.5550   -0.0440   -2.6340 c3        1 AXB      0.186800
     10 CAK         3.6300   -0.9850   -3.8330 c3        1 AXB     -0.072100
     11 CAP         1.1170   -0.3480   -2.4010 c3        1 AXB      0.249100
     12 CAY         1.1230   -0.8260   -3.8280 ca        1 AXB     -0.114300
     13 CAJ        -0.1060   -0.9490   -4.4850 ca        1 AXB     -0.079000
     14 CAX         2.3130   -1.1340   -4.5030 ca        1 AXB     -0.020300
     15 CAI         2.2570   -1.6010   -5.8240 ca        1 AXB     -0.101000
     16 CAH         1.0340   -1.7500   -6.4670 ca        1 AXB     -0.095000
     17 CAW        -0.1540   -1.4110   -5.8030 ca        1 AXB     -0.164300
     18 CAO        -1.4710   -1.6230   -6.4720 c3        1 AXB      0.166100
     19 N3         -1.6330   -0.7630   -7.6890 n4        1 AXB     -0.661800
     20 CAV        -2.9530   -0.9830   -8.3910 c         1 AXB      0.470800
     21 OAB        -3.7700   -1.7030   -7.8380 o         1 AXB     -0.400100
     22 CBB        -3.1210   -0.2850   -9.7110 cc        1 AXB      0.393900
     23 N4         -2.1800    0.5770  -10.0950 nd        1 AXB     -0.557100
     24 CBH        -2.3730    1.1920  -11.3100 cd        1 AXB      0.054300
     25 SAU        -1.3610    2.3090  -12.0350 ss        1 AXB      0.233200
     26 CBA        -2.3170    2.4690  -13.3860 cd        1 AXB     -0.064400
     27 CAQ        -1.9760    3.3670  -14.4860 c3        1 AXB     -0.239300
     28 SBK        -2.8020    3.0540  -15.9910 s6        1 AXB      1.332000
     29 OAF        -2.8160    4.2540  -16.6980 o         1 AXB     -0.622300
     30 OAG        -2.2430    1.9230  -16.5780 o         1 AXB     -0.622300
     31 CAN        -4.3620    2.7270  -15.3920 c3        1 AXB     -0.328600
     32 CAL        -4.4510    1.5620  -14.4350 c3        1 AXB      0.002900
     33 CBC        -3.4610    1.6640  -13.3430 cc        1 AXB     -0.041300
     34 CBI        -3.5040    0.9280  -12.1360 cc        1 AXB     -0.156600
     35 CBE        -4.5300   -0.0080  -11.6870 c         1 AXB      0.735100
     36 OAC        -5.5720   -0.3200  -12.2710 o         1 AXB     -0.542500
     37 N5         -4.2710   -0.6090  -10.4210 n         1 AXB     -0.469400
     38 HN1         0.4290   -1.2800    2.0220 hn        1 AXB      0.459467
     39 HN1A       -0.0700   -0.3020    0.7560 hn        1 AXB      0.459467
     40 HAM         4.5210   -0.1030   -2.0540 h1        1 AXB      0.101700
     41 HAMA        3.4200    1.0180   -2.9930 h1        1 AXB      0.101700
     42 HAK         3.9980   -2.0000   -3.5150 hc        1 AXB      0.101200
     43 HAKA        4.3910   -0.5670   -4.5480 hc        1 AXB      0.101200
     44 HAP         0.4150   -1.0010   -1.8080 h1        1 AXB      0.066700
     45 HAPA        0.7200    0.7130   -2.3820 h1        1 AXB      0.066700
     46 HAJ        -1.0380   -0.6930   -3.9550 ha        1 AXB      0.144000
     47 HAI         3.1920   -1.8600   -6.3510 ha        1 AXB      0.175000
     48 HAH         1.0080   -2.1530   -7.4920 ha        1 AXB      0.149000
     49 HAO        -2.3290   -1.3940   -5.7740 hx        1 AXB      0.121200
     50 HAOA       -1.5700   -2.7000   -6.8040 hx        1 AXB      0.121200
     51 HN3        -0.8690   -0.9570   -8.3500 hn        1 AXB      0.474300
     52 HAQ        -2.1780    4.4330  -14.1750 h1        1 AXB      0.134700
     53 HAQA       -0.8670    3.3260  -14.6850 h1        1 AXB      0.134700
     54 HAN        -5.0610    2.5100  -16.2510 h1        1 AXB      0.135200
     55 HANA       -4.8020    3.6370  -14.9000 h1        1 AXB      0.135200
     56 HAL        -4.2700    0.5970  -14.9930 hc        1 AXB      0.099200
     57 HALA       -5.4880    1.4900  -14.0020 hc        1 AXB      0.099200
     58 HN5        -4.9360   -1.2540  -10.0450 hn        1 AXB      0.363500
     59 H13         0.0910   -1.9550    0.5270 hn        1 AXB      0.459467
     60 H32        -1.5680    0.2300   -7.4270 hn        1 AXB      0.474300
@<TRIPOS>BOND
     1    1    2 1   
     2    1   38 1   
     3    1   39 1   
     4    1   59 1   
     5    2    3 1   
     6    2    7 2   
     7    3    4 2   
     8    3    5 1   
     9    5    6 2   
    10    5    7 1   
    11    7    8 1   
    12    8    9 1   
    13    8   11 1   
    14    9   10 1   
    15    9   40 1   
    16    9   41 1   
    17   10   14 1   
    18   10   42 1   
    19   10   43 1   
    20   11   12 1   
    21   11   44 1   
    22   11   45 1   
    23   12   13 ar  
    24   12   14 ar  
    25   13   17 ar  
    26   13   46 1   
    27   14   15 ar  
    28   15   16 ar  
    29   15   47 1   
    30   16   17 ar  
    31   16   48 1   
    32   17   18 1   
    33   18   19 1   
    34   18   49 1   
    35   18   50 1   
    36   19   20 1   
    37   19   51 1   
    38   19   60 1   
    39   20   21 2   
    40   20   22 1   
    41   22   23 2   
    42   22   37 1   
    43   23   24 1   
    44   24   25 1   
    45   24   34 2   
    46   25   26 1   
    47   26   27 1   
    48   26   33 2   
    49   27   28 1   
    50   27   52 1   
    51   27   53 1   
    52   28   29 2   
    53   28   30 2   
    54   28   31 1   
    55   31   32 1   
    56   31   54 1   
    57   31   55 1   
    58   32   33 1   
    59   32   56 1   
    60   32   57 1   
    61   33   34 1   
    62   34   35 1   
    63   35   36 2   
    64   35   37 1   
    65   37   58 1   
@<TRIPOS>SUBSTRUCTURE
     1 AXB         1 TEMP              0 ****  ****    0 ROOT
