@<TRIPOS>MOLECULE
AXB
   58    58     1     0     0
SMALL
bcc


@<TRIPOS>ATOM
      1 N1         -0.9540   -8.4680    4.3280 nh        1 AXB     -0.287000
      2 CAZ         0.2440   -7.6850    4.2890 cv        1 AXB     -0.102000
      3 CBF         1.5350   -8.3310    4.4100 cv        1 AXB      0.224000
      4 OAD         1.9120   -9.4610    4.6630 o         1 AXB     -0.233000
      5 CBG         1.8130   -7.1520    3.0410 cv        1 AXB      0.230000
      6 OAE         2.7450   -6.4580    2.6780 o         1 AXB     -0.240000
      7 CBD         0.4270   -6.9080    3.3860 cv        1 AXB     -0.093000
      8 N2         -0.0630   -5.5560    3.4880 nh        1 AXB     -0.196000
      9 CAM         0.0220   -4.8710    4.7040 c3        1 AXB     -0.048000
     10 CAK         0.3040   -3.4640    4.6350 c3        1 AXB     -0.133000
     11 CAP        -0.9100   -5.0580    2.5280 c3        1 AXB     -0.016000
     12 CAY        -1.0020   -3.4730    2.4220 c2        1 AXB     -0.103000
     13 CAJ        -1.6350   -2.8320    1.3600 c2        1 AXB     -0.087000
     14 CAX        -0.3220   -2.6940    3.4350 c2        1 AXB     -0.062000
     15 CAI        -0.3030   -1.3030    3.3450 c2        1 AXB     -0.122000
     16 CAH        -0.9440   -0.6580    2.2690 c1        1 AXB     -0.115000
     17 CAW        -1.6130   -1.4250    1.2720 c1        1 AXB     -0.117000
     18 CAO        -2.3820   -0.7150    0.1460 c3        1 AXB     -0.001000
     19 N3         -1.5000    0.2010   -0.5350 n         1 AXB     -0.331000
     20 CAV        -2.0460    1.2910   -1.2980 c2        1 AXB      0.345000
     21 OAB        -3.2520    1.4590   -1.3410 o         1 AXB     -0.347000
     22 CBB        -1.1120    2.2530   -2.0320 c2        1 AXB      0.094000
     23 N4         -0.5560    3.4130   -1.3280 n1        1 AXB     -0.166000
     24 CBH         0.0670    4.4670   -2.0670 c1        1 AXB     -0.259000
     25 SAU         0.6360    5.9210   -1.6200 ss        1 AXB      0.676000
     26 CBA         1.1380    6.6270   -2.8810 c1        1 AXB     -0.382000
     27 CAQ         1.9240    7.9940   -3.0960 c2        1 AXB     -0.767000
     28 SBK         2.4770    8.2150   -4.6470 s4        1 AXB      2.012800
     29 OAF         2.6650    9.6270   -4.8640 o         1 AXB     -0.532400
     30 OAG         3.7450    7.5450   -4.7820 o         1 AXB     -0.532400
     31 CAN         1.4680    7.6060   -5.7890 c2        1 AXB     -0.857000
     32 CAL         1.1390    6.2110   -5.5910 c3        1 AXB     -0.083000
     33 CBC         0.9050    5.6780   -4.0760 c2        1 AXB     -0.030000
     34 CBI         0.2350    4.3400   -3.5270 c1        1 AXB     -0.197000
     35 CBE        -0.2400    3.1190   -4.2180 c1        1 AXB      0.370000
     36 OAC        -0.0260    2.9710   -5.4080 o         1 AXB     -0.336000
     37 N5         -0.8620    2.0770   -3.4710 n3        1 AXB     -0.300000
     38 HN1        -1.3710   -8.6290    5.1300 hn        1 AXB      0.201000
     39 HN1A       -1.2800   -8.8460    3.5580 hn        1 AXB      0.201000
     40 HAM         0.7430   -5.2890    5.2270 h1        1 AXB      0.089000
     41 HAMA       -0.8430   -4.9750    5.1620 h1        1 AXB      0.089000
     42 HAK         1.2800   -3.3610    4.5740 hc        1 AXB      0.103500
     43 HAKA       -0.0380   -3.0530    5.4600 hc        1 AXB      0.103500
     44 HAP        -0.5990   -5.3940    1.6580 h1        1 AXB      0.118500
     45 HAPA       -1.8120   -5.3930    2.7280 h1        1 AXB      0.118500
     46 HAJ        -2.0960   -3.3590    0.6730 ha        1 AXB      0.151000
     47 HAI         0.1580   -0.7740    4.0310 ha        1 AXB      0.137000
     48 HAH        -0.9300    0.3210    2.2070 ha        1 AXB      0.132000
     49 HAO        -2.7180   -1.3830   -0.4930 h1        1 AXB      0.118000
     50 HAOA       -3.1390   -0.2180    0.5290 h1        1 AXB      0.118000
     51 HN3        -0.5940    0.0600   -0.5220 hn        1 AXB      0.244000
     52 HAQ         2.6640    8.0800   -2.4560 h4        1 AXB      0.164500
     53 HAQA        1.3580    8.7510   -2.8250 h4        1 AXB      0.164500
     54 HAN         1.8790    7.8730   -6.6420 ha        1 AXB      0.164500
     55 HANA        0.6060    8.0770   -5.8480 ha        1 AXB      0.164500
     56 HAL         1.8650    5.6770   -5.9840 hc        1 AXB      0.131500
     57 HALA        0.3190    6.0240   -6.1010 hc        1 AXB      0.131500
     58 HN5        -1.1330    1.3090   -3.8920 hn        1 AXB      0.276000
@<TRIPOS>BOND
     1    1    2 1   
     2    1   38 1   
     3    1   39 1   
     4    2    3 1   
     5    2    7 1   
     6    3    4 1   
     7    3    5 1   
     8    5    6 1   
     9    5    7 1   
    10    7    8 1   
    11    8    9 1   
    12    8   11 1   
    13    9   10 1   
    14    9   40 1   
    15    9   41 1   
    16   10   14 1   
    17   10   42 1   
    18   10   43 1   
    19   11   12 1   
    20   11   44 1   
    21   11   45 1   
    22   12   13 1   
    23   12   14 1   
    24   13   17 1   
    25   13   46 1   
    26   14   15 1   
    27   15   16 1   
    28   15   47 1   
    29   16   48 1   
    30   17   18 1   
    31   18   19 1   
    32   18   49 1   
    33   18   50 1   
    34   19   20 1   
    35   19   51 1   
    36   20   21 1   
    37   20   22 1   
    38   22   23 1   
    39   22   37 1   
    40   24   25 1   
    41   24   34 1   
    42   25   26 1   
    43   26   33 1   
    44   27   28 1   
    45   27   52 1   
    46   27   53 1   
    47   28   29 1   
    48   28   30 1   
    49   31   32 1   
    50   31   54 1   
    51   31   55 1   
    52   32   33 1   
    53   32   56 1   
    54   32   57 1   
    55   33   34 1   
    56   35   36 1   
    57   35   37 1   
    58   37   58 1   
@<TRIPOS>SUBSTRUCTURE
     1 AXB         1 TEMP              0 ****  ****    0 ROOT
