@<TRIPOS>MOLECULE
AXC
   39    43     1     0     0
SMALL
bcc


@<TRIPOS>ATOM
      1 CAN         0.2150   -0.2110   -0.3940 c3        1 AXC     -0.100400
      2 CAL         1.6900   -0.1390   -0.2350 cc        1 AXC      0.516300
      3 NAM         2.3150   -0.1640    1.0390 nc        1 AXC     -0.374300
      4 NAK         2.5800   -0.0400   -1.2760 nd        1 AXC     -0.544100
      5 NAI         3.7850   -0.0020   -0.6800 na        1 AXC     -0.014800
      6 CAJ         3.6340   -0.0770    0.7520 cd        1 AXC      0.017700
      7 CAE         4.8240   -0.0510    1.5710 ca        1 AXC     -0.127300
      8 CAF         4.7690   -0.1190    2.9710 ca        1 AXC     -0.076000
      9 CAA         5.9440   -0.0900    3.7050 ca        1 AXC     -0.138000
     10 CAB         7.1820    0.0090    3.0520 ca        1 AXC     -0.106000
     11 CAC         7.2590    0.0780    1.6720 ca        1 AXC     -0.175300
     12 CAD         6.0740    0.0500    0.8910 ca        1 AXC      0.417600
     13 NAG         6.1660    0.1220   -0.5000 nc        1 AXC     -0.723000
     14 CAH         5.0760    0.1000   -1.2460 cd        1 AXC      0.653800
     15 SAO         5.1420    0.1990   -2.9650 ss        1 AXC     -0.168400
     16 CAP         6.8810    0.2730   -3.3200 c3        1 AXC     -0.054600
     17 CAQ         6.9900    0.2220   -4.7990 cc        1 AXC      0.400800
     18 NAU         7.3430    1.2530   -5.5990 nd        1 AXC     -0.536100
     19 CAT         7.3360    0.7340   -6.9070 ca        1 AXC      0.059400
     20 CAY         7.6190    1.3370   -8.1420 ca        1 AXC     -0.063000
     21 CAX         7.5250    0.5620   -9.2860 ca        1 AXC     -0.154000
     22 CAW         7.1580   -0.7960   -9.2370 ca        1 AXC     -0.106000
     23 CAV         6.8710   -1.4330   -8.0400 ca        1 AXC     -0.137000
     24 CAS         6.9600   -0.6700   -6.8680 ca        1 AXC     -0.065200
     25 NAR         6.7600   -0.9760   -5.5220 na        1 AXC     -0.274300
     26 HAN1       -0.2600    0.6550    0.1310 hc        1 AXC      0.063700
     27 HAN2       -0.1650   -1.1590    0.0620 hc        1 AXC      0.063700
     28 HAN3       -0.0750   -0.1850   -1.4730 hc        1 AXC      0.063700
     29 HAF         3.7910   -0.1960    3.4730 ha        1 AXC      0.159000
     30 HAA         5.9100   -0.1420    4.8040 ha        1 AXC      0.142000
     31 HAB         8.1070    0.0330    3.6500 ha        1 AXC      0.140000
     32 HAC         8.2370    0.1570    1.1730 ha        1 AXC      0.152000
     33 HAP1        7.3320    1.2190   -2.9240 h1        1 AXC      0.109700
     34 HAP2        7.4310   -0.5830   -2.8520 h1        1 AXC      0.109700
     35 HAR         6.4260   -1.8250   -5.1540 hn        1 AXC      0.310700
     36 HAY         7.9070    2.3980   -8.1880 ha        1 AXC      0.150000
     37 HAX         7.7420    1.0150  -10.2660 ha        1 AXC      0.135000
     38 HAW         7.0980   -1.3650  -10.1780 ha        1 AXC      0.134000
     39 HAV         6.5860   -2.4930   -8.0090 ha        1 AXC      0.137000
@<TRIPOS>BOND
     1    1    2 1   
     2    1   26 1   
     3    1   27 1   
     4    1   28 1   
     5    2    3 1   
     6    2    4 2   
     7    3    6 2   
     8    4    5 1   
     9    5    6 1   
    10    5   14 1   
    11    6    7 1   
    12    7    8 ar  
    13    7   12 ar  
    14    8    9 ar  
    15    8   29 1   
    16    9   10 ar  
    17    9   30 1   
    18   10   11 ar  
    19   10   31 1   
    20   11   12 ar  
    21   11   32 1   
    22   12   13 1   
    23   13   14 2   
    24   14   15 1   
    25   15   16 1   
    26   16   17 1   
    27   16   33 1   
    28   16   34 1   
    29   17   18 2   
    30   17   25 1   
    31   18   19 1   
    32   19   20 ar  
    33   19   24 ar  
    34   20   21 ar  
    35   20   36 1   
    36   21   22 ar  
    37   21   37 1   
    38   22   23 ar  
    39   22   38 1   
    40   23   24 ar  
    41   23   39 1   
    42   24   25 1   
    43   25   35 1   
@<TRIPOS>SUBSTRUCTURE
     1 AXC         1 TEMP              0 ****  ****    0 ROOT
