@<TRIPOS>MOLECULE
AXC
   39    43     1     0     0
SMALL
bcc


@<TRIPOS>ATOM
      1 CAN         3.6720    4.2120    0.1910 c3        1 AXC     -0.100400
      2 CAL         3.3220    2.7700    0.1190 cc        1 AXC      0.516300
      3 NAM         4.3090    1.7500    0.1440 nc        1 AXC     -0.374300
      4 NAK         2.0420    2.2850    0.0220 nd        1 AXC     -0.544100
      5 NAI         2.1940    0.9500   -0.0170 na        1 AXC     -0.014800
      6 CAJ         3.5920    0.6070    0.0580 cd        1 AXC      0.017700
      7 CAE         3.9600   -0.7900    0.0310 ca        1 AXC     -0.127300
      8 CAF         5.2950   -1.2140    0.0990 ca        1 AXC     -0.076000
      9 CAA         5.5880   -2.5680    0.0690 ca        1 AXC     -0.138000
     10 CAB         4.5540   -3.5110   -0.0290 ca        1 AXC     -0.106000
     11 CAC         3.2290   -3.1160   -0.0970 ca        1 AXC     -0.175300
     12 CAD         2.8960   -1.7360   -0.0690 ca        1 AXC      0.417600
     13 NAG         1.5560   -1.3510   -0.1400 nc        1 AXC     -0.723000
     14 CAH         1.2230   -0.0730   -0.1180 cd        1 AXC      0.653800
     15 SAO        -0.4160    0.4470   -0.2160 ss        1 AXC     -0.168400
     16 CAP        -1.3390   -1.0680   -0.2880 c3        1 AXC     -0.054600
     17 CAQ        -2.7680   -0.6700   -0.2370 cc        1 AXC      0.400800
     18 NAU        -3.6420   -0.7320   -1.2670 nd        1 AXC     -0.536100
     19 CAT        -4.8690   -0.2820   -0.7470 ca        1 AXC      0.059400
     20 CAY        -6.1280   -0.1300   -1.3490 ca        1 AXC     -0.063000
     21 CAX        -7.1720    0.3470   -0.5740 ca        1 AXC     -0.154000
     22 CAW        -6.9990    0.6770    0.7840 ca        1 AXC     -0.106000
     23 CAV        -5.7750    0.5420    1.4200 ca        1 AXC     -0.137000
     24 CAS        -4.7040    0.0610    0.6560 ca        1 AXC     -0.065200
     25 NAR        -3.3690   -0.2070    0.9610 na        1 AXC     -0.274300
     26 HAN1        4.3270    4.4810   -0.6750 hc        1 AXC      0.063700
     27 HAN2        2.7560    4.8500    0.1660 hc        1 AXC      0.063700
     28 HAN3        4.2310    4.4150    1.1390 hc        1 AXC      0.063700
     29 HAF         6.0980   -0.4630    0.1750 ha        1 AXC      0.159000
     30 HAA         6.6330   -2.9080    0.1210 ha        1 AXC      0.142000
     31 HAB         4.8030   -4.5840   -0.0530 ha        1 AXC      0.140000
     32 HAC         2.4280   -3.8670   -0.1760 ha        1 AXC      0.152000
     33 HAP1       -1.1210   -1.6270   -1.2350 h1        1 AXC      0.109700
     34 HAP2       -1.0850   -1.7440    0.5670 h1        1 AXC      0.109700
     35 HAR        -2.9090   -0.0170    1.8100 hn        1 AXC      0.310700
     36 HAY        -6.2700   -0.3860   -2.4090 ha        1 AXC      0.150000
     37 HAX        -8.1670    0.4740   -1.0260 ha        1 AXC      0.135000
     38 HAW        -7.8630    1.0530    1.3530 ha        1 AXC      0.134000
     39 HAV        -5.6480    0.8010    2.4790 ha        1 AXC      0.137000
@<TRIPOS>BOND
     1    1    2 1   
     2    1   26 1   
     3    1   27 1   
     4    1   28 1   
     5    2    3 1   
     6    2    4 2   
     7    3    6 2   
     8    4    5 1   
     9    5    6 1   
    10    5   14 1   
    11    6    7 1   
    12    7    8 ar  
    13    7   12 ar  
    14    8    9 ar  
    15    8   29 1   
    16    9   10 ar  
    17    9   30 1   
    18   10   11 ar  
    19   10   31 1   
    20   11   12 ar  
    21   11   32 1   
    22   12   13 1   
    23   13   14 2   
    24   14   15 1   
    25   15   16 1   
    26   16   17 1   
    27   16   33 1   
    28   16   34 1   
    29   17   18 2   
    30   17   25 1   
    31   18   19 1   
    32   19   20 ar  
    33   19   24 ar  
    34   20   21 ar  
    35   20   36 1   
    36   21   22 ar  
    37   21   37 1   
    38   22   23 ar  
    39   22   38 1   
    40   23   24 ar  
    41   23   39 1   
    42   24   25 1   
    43   25   35 1   
@<TRIPOS>SUBSTRUCTURE
     1 AXC         1 TEMP              0 ****  ****    0 ROOT
