@<TRIPOS>MOLECULE
AXC
   39    33     1     0     0
SMALL
bcc


@<TRIPOS>ATOM
      1 CAN        -6.2890    0.1100    0.0880 c3        1 AXC     -0.145000
      2 CAL        -4.7730    0.0790    0.2620 c2        1 AXC     -0.058000
      3 NAM        -4.5700    0.0510    1.5960 n2        1 AXC     -0.154000
      4 NAK        -3.5680    0.1110   -0.3410 n2        1 AXC     -0.106000
      5 NAI        -2.6080    0.1030    0.6310 n2        1 AXC     -0.138000
      6 CAJ        -3.2230    0.0660    1.8190 c1        1 AXC      0.040000
      7 CAE        -2.4640    0.0580    3.0050 c1        1 AXC     -0.023000
      8 CAF        -3.1120    0.0190    4.2630 c1        1 AXC     -0.090000
      9 CAA        -2.3600    0.0120    5.4320 c1        1 AXC     -0.116833
     10 CAB        -0.9730    0.0430    5.3660 c1        1 AXC     -0.116833
     11 CAC        -0.3360    0.0810    4.1310 c1        1 AXC     -0.090000
     12 CAD        -1.1010    0.0880    2.9400 c1        1 AXC     -0.023000
     13 NAG        -0.4740    0.1260    1.7210 n1        1 AXC     -0.138000
     14 CAH        -1.2160    0.1330    0.5670 c1        1 AXC     -0.035000
     15 SAO         0.3400   -0.3270   -0.1790 ss        1 AXC      0.309000
     16 CAP         0.4560    0.3930   -1.8080 c3        1 AXC     -0.240000
     17 CAQ         1.8860    0.2520   -2.3260 c2        1 AXC      0.000000
     18 NAU         2.3460   -0.9850   -2.6620 n2        1 AXC     -0.114000
     19 CAT         3.6230   -0.8520   -3.1100 c1        1 AXC     -0.079000
     20 CAY         4.5730   -1.7980   -3.5570 c1        1 AXC     -0.116833
     21 CAX         5.8440   -1.3810   -3.9360 c1        1 AXC     -0.116833
     22 CAW         6.1800   -0.0340   -3.8760 c1        1 AXC     -0.116833
     23 CAV         5.2460    0.8970   -3.4360 c1        1 AXC     -0.116833
     24 CAS         3.9550    0.4740   -3.0500 c1        1 AXC     -0.022000
     25 NAR         2.8810    1.1530   -2.5660 n1        1 AXC     -0.227000
     26 HAN1       -6.6850   -0.6750    0.5280 hc        1 AXC      0.104333
     27 HAN2       -6.6490    0.9290    0.4950 hc        1 AXC      0.104333
     28 HAN3       -6.5090    0.0950   -0.8690 hc        1 AXC      0.104333
     29 HAF        -4.0910   -0.0020    4.3090 ha        1 AXC      0.158000
     30 HAA        -2.8090   -0.0150    6.3040 ha        1 AXC      0.139500
     31 HAB        -0.4420    0.0370    6.1920 ha        1 AXC      0.139500
     32 HAC         0.6430    0.1030    4.0850 ha        1 AXC      0.158000
     33 HAP1        0.2160    1.3430   -1.7630 h1        1 AXC      0.153500
     34 HAP2       -0.1600   -0.0710   -2.4150 h1        1 AXC      0.153500
     35 HAR         2.8240    2.0630   -2.4550 DU        1 AXC      0.262000
     36 HAY         4.3350   -2.7490   -3.6000 ha        1 AXC      0.139500
     37 HAX         6.5030   -2.0380   -4.2470 ha        1 AXC      0.139500
     38 HAW         7.0780    0.2600   -4.1440 ha        1 AXC      0.139500
     39 HAV         5.4840    1.8480   -3.3930 ha        1 AXC      0.139500
@<TRIPOS>BOND
     1    1    2 1   
     2    1   26 1   
     3    1   27 1   
     4    1   28 1   
     5    2    3 1   
     6    2    4 1   
     7    3    6 1   
     8    4    5 1   
     9    5    6 1   
    10    7    8 1   
    11    7   12 1   
    12    8   29 1   
    13    9   10 1   
    14    9   30 1   
    15   10   31 1   
    16   11   12 1   
    17   11   32 1   
    18   13   14 1   
    19   14   15 1   
    20   15   16 1   
    21   16   17 1   
    22   16   33 1   
    23   16   34 1   
    24   17   18 1   
    25   17   25 1   
    26   18   19 1   
    27   19   24 1   
    28   20   21 1   
    29   20   36 1   
    30   21   37 1   
    31   22   23 1   
    32   22   38 1   
    33   23   39 1   
@<TRIPOS>SUBSTRUCTURE
     1 AXC         1 TEMP              0 ****  ****    0 ROOT
