@<TRIPOS>MOLECULE
AXC
   39    43     1     0     0
SMALL
bcc


@<TRIPOS>ATOM
      1 CAN         0.2120   -0.1970   -0.4020 c3        1 AXC     -0.100400
      2 CAL         1.6860   -0.1300   -0.2410 cc        1 AXC      0.516300
      3 NAM         2.3100   -0.1590    1.0340 nc        1 AXC     -0.374300
      4 NAK         2.5790   -0.0330   -1.2800 nd        1 AXC     -0.544100
      5 NAI         3.7820    0.0020   -0.6830 na        1 AXC     -0.014800
      6 CAJ         3.6290   -0.0750    0.7490 cd        1 AXC      0.017700
      7 CAE         4.8180   -0.0540    1.5700 ca        1 AXC     -0.127300
      8 CAF         4.7610   -0.1240    2.9700 ca        1 AXC     -0.076000
      9 CAA         5.9350   -0.0990    3.7060 ca        1 AXC     -0.138000
     10 CAB         7.1750   -0.0030    3.0550 ca        1 AXC     -0.106000
     11 CAC         7.2540    0.0680    1.6750 ca        1 AXC     -0.175300
     12 CAD         6.0690    0.0440    0.8920 ca        1 AXC      0.417600
     13 NAG         6.1630    0.1180   -0.4990 nc        1 AXC     -0.723000
     14 CAH         5.0750    0.1000   -1.2460 cd        1 AXC      0.653800
     15 SAO         5.1440    0.2010   -2.9650 ss        1 AXC     -0.168400
     16 CAP         6.8830    0.2690   -3.3170 c3        1 AXC     -0.054600
     17 CAQ         6.9950    0.2200   -4.7970 cc        1 AXC      0.400800
     18 NAU         7.3530    1.2510   -5.5950 nd        1 AXC     -0.536100
     19 CAT         7.3460    0.7340   -6.9030 ca        1 AXC      0.059400
     20 CAY         7.6340    1.3370   -8.1370 ca        1 AXC     -0.063000
     21 CAX         7.5380    0.5640   -9.2830 ca        1 AXC     -0.154000
     22 CAW         7.1650   -0.7930   -9.2350 ca        1 AXC     -0.106000
     23 CAV         6.8740   -1.4300   -8.0400 ca        1 AXC     -0.137000
     24 CAS         6.9640   -0.6680   -6.8670 ca        1 AXC     -0.065200
     25 NAR         6.7610   -0.9760   -5.5220 na        1 AXC     -0.274300
     26 HAN1       -0.2620    0.6690    0.1230 hc        1 AXC      0.063700
     27 HAN2       -0.1720   -1.1450    0.0520 hc        1 AXC      0.063700
     28 HAN3       -0.0770   -0.1690   -1.4810 hc        1 AXC      0.063700
     29 HAF         3.7830   -0.1980    3.4700 ha        1 AXC      0.159000
     30 HAA         5.9000   -0.1530    4.8040 ha        1 AXC      0.142000
     31 HAB         8.0980    0.0170    3.6540 ha        1 AXC      0.140000
     32 HAC         8.2330    0.1450    1.1770 ha        1 AXC      0.152000
     33 HAP1        7.3370    1.2140   -2.9200 h1        1 AXC      0.109700
     34 HAP2        7.4290   -0.5890   -2.8500 h1        1 AXC      0.109700
     35 HAR         6.4220   -1.8240   -5.1550 hn        1 AXC      0.310700
     36 HAY         7.9260    2.3970   -8.1810 ha        1 AXC      0.150000
     37 HAX         7.7580    1.0180  -10.2610 ha        1 AXC      0.135000
     38 HAW         7.1040   -1.3600  -10.1770 ha        1 AXC      0.134000
     39 HAV         6.5840   -2.4880   -8.0110 ha        1 AXC      0.137000
@<TRIPOS>BOND
     1    1    2 1   
     2    1   26 1   
     3    1   27 1   
     4    1   28 1   
     5    2    3 1   
     6    2    4 2   
     7    3    6 2   
     8    4    5 1   
     9    5    6 1   
    10    5   14 1   
    11    6    7 1   
    12    7    8 ar  
    13    7   12 ar  
    14    8    9 ar  
    15    8   29 1   
    16    9   10 ar  
    17    9   30 1   
    18   10   11 ar  
    19   10   31 1   
    20   11   12 ar  
    21   11   32 1   
    22   12   13 1   
    23   13   14 2   
    24   14   15 1   
    25   15   16 1   
    26   16   17 1   
    27   16   33 1   
    28   16   34 1   
    29   17   18 2   
    30   17   25 1   
    31   18   19 1   
    32   19   20 ar  
    33   19   24 ar  
    34   20   21 ar  
    35   20   36 1   
    36   21   22 ar  
    37   21   37 1   
    38   22   23 ar  
    39   22   38 1   
    40   23   24 ar  
    41   23   39 1   
    42   24   25 1   
    43   25   35 1   
@<TRIPOS>SUBSTRUCTURE
     1 AXC         1 TEMP              0 ****  ****    0 ROOT
