@<TRIPOS>MOLECULE
AXD
   57    59     1     0     0
SMALL
bcc


@<TRIPOS>ATOM
      1 N1          0.4280   -1.5670    3.0300 n3        1 AXD     -0.818200
      2 C2         -0.3960   -1.1830    1.8760 c3        1 AXD      0.193200
      3 C3          0.3020   -0.2750    0.8400 c3        1 AXD     -0.094900
      4 C4          1.4360   -1.0030    0.1200 c3        1 AXD      0.175800
      5 N5          0.9630   -2.2000   -0.5570 nh        1 AXD     -0.721300
      6 C6          0.2730   -3.1190    0.3410 c3        1 AXD      0.175800
      7 C7         -0.8600   -2.4490    1.1150 c3        1 AXD     -0.094900
      8 C8          2.3270    1.4100    5.5270 c3        1 AXD      0.193800
      9 N9          2.4350   -0.0270    5.7360 n         1 AXD     -0.479800
     10 C10         3.3350   -0.3570    6.8340 c3        1 AXD      0.069700
     11 C11         3.9640    0.9670    7.3170 c3        1 AXD     -0.094400
     12 C12         3.4050    2.0720    6.4300 c3        1 AXD     -0.080400
     13 C13         2.6230   -1.1000    7.9970 c3        1 AXD      0.140800
     14 N14         3.4930   -1.6170    9.0180 n3        1 AXD     -0.903800
     15 C15         2.0250   -0.9870    4.8200 c         1 AXD      0.670100
     16 O16         2.3460   -2.1760    5.0000 o         1 AXD     -0.594100
     17 C17         1.2190   -0.5090    3.6060 c3        1 AXD      0.111800
     18 C18         1.9330   -2.8700   -1.3890 ca        1 AXD      0.544200
     19 C19         1.4370   -3.7120   -2.4230 ca        1 AXD     -0.206300
     20 C20         2.3380   -4.3460   -3.2810 ca        1 AXD     -0.091600
     21 C21         3.7060   -4.1240   -3.0980 ca        1 AXD     -0.228300
     22 C22         4.1130   -3.2790   -2.0560 ca        1 AXD      0.368200
     23 N23         3.2730   -2.6630   -1.2050 nb        1 AXD     -0.736000
     24 C26        -1.6580   -0.4440    2.3570 c3        1 AXD     -0.084100
     25 C27         1.8370   -5.2610   -4.3930 c         1 AXD      0.908200
     26 O28         2.6950   -5.7370   -5.1880 o         1 AXD     -0.822800
     27 O29         0.5980   -5.4920   -4.4520 o         1 AXD     -0.822800
     28 HN1         1.0050   -2.3590    2.8120 hn        1 AXD      0.388800
     29 H31         0.7110    0.6450    1.3280 hc        1 AXD      0.049450
     30 H32        -0.4660    0.0560    0.0930 hc        1 AXD      0.049450
     31 H41         1.8690   -0.3180   -0.6620 h1        1 AXD      0.042450
     32 H42         2.2530   -1.2240    0.8680 h1        1 AXD      0.042450
     33 H61         0.9860   -3.6030    1.0710 h1        1 AXD      0.042450
     34 H62        -0.1650   -3.9430   -0.2930 h1        1 AXD      0.042450
     35 H71        -1.6690   -2.1430    0.4020 hc        1 AXD      0.049450
     36 H72        -1.2940   -3.1950    1.8290 hc        1 AXD      0.049450
     37 H8          2.5550    1.6410    4.4390 h1        1 AXD      0.066700
     38 H10         4.1390   -1.0420    6.4270 h1        1 AXD      0.061700
     39 H111        5.0770    0.9150    7.2360 hc        1 AXD      0.050700
     40 H112        3.7050    1.1600    8.3880 hc        1 AXD      0.050700
     41 H121        2.9590    2.8940    7.0390 hc        1 AXD      0.056200
     42 H122        4.2050    2.5110    5.7860 hc        1 AXD      0.056200
     43 H131        2.0410   -1.9620    7.5600 h1        1 AXD      0.069700
     44 H132        1.8920   -0.3970    8.4870 h1        1 AXD      0.069700
     45 H141        4.1040   -0.9030    9.3670 hn        1 AXD      0.343300
     46 H142        4.0500   -2.3720    8.6670 hn        1 AXD      0.343300
     47 H171        1.9830   -0.0740    2.8910 h1        1 AXD      0.053200
     48 H172        0.5190    0.3200    3.9150 h1        1 AXD      0.053200
     49 H19         0.3590   -3.8780   -2.5710 ha        1 AXD      0.167000
     50 H21         4.4270   -4.6100   -3.7710 ha        1 AXD      0.160000
     51 H22         5.1830   -3.0770   -1.8770 h4        1 AXD     -0.007900
     52 H25        -1.0200    2.8370    6.2380 ha        1 AXD      0.164500
     53 H261       -2.2230   -1.0680    3.0890 hc        1 AXD      0.034033
     54 H262       -1.3900    0.5250    2.8400 hc        1 AXD      0.034033
     55 H263       -2.3180   -0.2320    1.4820 hc        1 AXD      0.034033
     56 C24         1.0140    1.9580    5.8170 c1        1 AXD     -0.157100
     57 C25        -0.0630    2.4240    6.0430 c1        1 AXD     -0.135500
@<TRIPOS>BOND
     1    1    2 1   
     2    1   17 1   
     3    1   28 1   
     4    2    3 1   
     5    2    7 1   
     6    2   24 1   
     7    3    4 1   
     8    3   29 1   
     9    3   30 1   
    10    4    5 1   
    11    4   31 1   
    12    4   32 1   
    13    5    6 1   
    14    5   18 1   
    15    6    7 1   
    16    6   33 1   
    17    6   34 1   
    18    7   35 1   
    19    7   36 1   
    20    8    9 1   
    21    8   12 1   
    22    8   37 1   
    23    8   56 1   
    24    9   10 1   
    25    9   15 1   
    26   10   11 1   
    27   10   13 1   
    28   10   38 1   
    29   11   12 1   
    30   11   39 1   
    31   11   40 1   
    32   12   41 1   
    33   12   42 1   
    34   13   14 1   
    35   13   43 1   
    36   13   44 1   
    37   14   45 1   
    38   14   46 1   
    39   15   16 2   
    40   15   17 1   
    41   17   47 1   
    42   17   48 1   
    43   18   19 ar  
    44   18   23 ar  
    45   19   20 ar  
    46   19   49 1   
    47   20   21 ar  
    48   20   25 1   
    49   21   22 ar  
    50   21   50 1   
    51   22   23 ar  
    52   22   51 1   
    53   24   53 1   
    54   24   54 1   
    55   24   55 1   
    56   25   26 1   
    57   25   27 1   
    58   52   57 1   
    59   56   57 3   
@<TRIPOS>SUBSTRUCTURE
     1 AXD         1 TEMP              0 ****  ****    0 ROOT
