@<TRIPOS>MOLECULE
AXD
   57    56     1     0     0
SMALL
bcc


@<TRIPOS>ATOM
      1 N1         -0.2150   -0.0240   -0.0180 n3        1 AXD     -0.295000
      2 C2         -1.7020   -0.0660   -0.0460 c3        1 AXD      0.029000
      3 C3         -2.2190   -0.0730    1.3540 c3        1 AXD     -0.168500
      4 C4         -1.9950    1.2420    2.0570 c3        1 AXD     -0.060500
      5 N5         -2.4900    2.3880    1.2810 n3        1 AXD     -0.215000
      6 C6         -1.9800    2.4070   -0.1210 c3        1 AXD     -0.060500
      7 C7         -2.2090    1.1110   -0.8310 c3        1 AXD     -0.168500
      8 C8          3.9080   -2.6200   -0.6080 c3        1 AXD      0.129000
      9 N9          2.6990   -2.2470   -0.9540 n         1 AXD     -0.327000
     10 C10         2.5000   -2.7310   -2.3980 c3        1 AXD      0.030000
     11 C11         3.8720   -3.1350   -2.9090 c3        1 AXD     -0.165000
     12 C12         4.7010   -2.6840   -2.0580 c3        1 AXD     -0.168000
     13 C13         1.6150   -3.8500   -2.4270 c3        1 AXD     -0.095000
     14 N14         1.6630   -4.4560   -3.7110 n3        1 AXD     -0.351000
     15 C15         1.7420   -1.5220   -0.1350 c2        1 AXD      0.300000
     16 O16         2.0380   -1.1970    1.0050 o         1 AXD     -0.347000
     17 C17         0.3200   -1.1950   -0.6980 c3        1 AXD     -0.077000
     18 C18        -2.1150    3.6440    1.9620 c2        1 AXD      0.029000
     19 C19        -3.1170    4.5890    2.3010 c2        1 AXD     -0.148000
     20 C20        -2.7840    5.7190    3.0190 c1        1 AXD     -0.070000
     21 C21        -1.4750    5.9290    3.4060 c1        1 AXD     -0.130500
     22 C22        -0.4820    4.9890    3.0680 c1        1 AXD     -0.130500
     23 N23        -0.8160    3.8550    2.3480 n1        1 AXD     -0.207000
     24 C24         3.8390   -3.9060    0.0930 c1        1 AXD     -0.160000
     25 C25         3.7860   -4.9560    0.6630 c1        1 AXD     -0.208000
     26 C26        -2.1490   -1.3400   -0.7320 c3        1 AXD     -0.207000
     27 C27        -3.8810    6.6680    3.4990 c2        1 AXD      0.357000
     28 O28        -4.4470    6.4660    4.6010 o         1 AXD     -0.559000
     29 O29        -4.2610    7.6350    2.7540 o         1 AXD     -0.559000
     30 HN1         0.0770    0.7340   -0.4430 hn        1 AXD      0.191000
     31 H31        -1.7700   -0.7720    1.8490 hc        1 AXD      0.086500
     32 H32        -3.1730   -0.2630    1.3370 hc        1 AXD      0.086500
     33 H41        -2.4600    1.2220    2.9240 h1        1 AXD      0.085000
     34 H42        -1.0550    1.3550    2.2110 h1        1 AXD      0.085000
     35 H61        -2.4320    3.1220   -0.6140 h1        1 AXD      0.085000
     36 H62        -1.0110    2.5940   -0.1050 h1        1 AXD      0.085000
     37 H71        -1.7450    1.1400   -1.7000 hc        1 AXD      0.086500
     38 H72        -3.1690    0.9990   -0.9870 hc        1 AXD      0.086500
     39 H8          4.3990   -2.0640    0.0490 h1        1 AXD      0.136000
     40 H10         2.1280   -1.9800   -2.9650 h1        1 AXD      0.088000
     41 H111        4.0380   -2.7350   -3.7920 hc        1 AXD      0.099500
     42 H112        3.9390   -4.1250   -2.9620 hc        1 AXD      0.099500
     43 H121        5.4850   -3.2930   -1.9900 hc        1 AXD      0.095500
     44 H122        5.0030   -1.7590   -2.3280 hc        1 AXD      0.095500
     45 H131        1.8940   -4.5160   -1.7310 h1        1 AXD      0.081000
     46 H132        0.6990   -3.5480   -2.2410 h1        1 AXD      0.081000
     47 H141        1.4860   -5.3450   -3.6350 hn        1 AXD      0.144000
     48 H142        1.0520   -4.0730   -4.2470 hn        1 AXD      0.144000
     49 H171       -0.2700   -1.9530   -0.5500 h1        1 AXD      0.086500
     50 H172        0.3850   -1.0150   -1.6550 h1        1 AXD      0.086500
     51 H19        -4.0450    4.3920    2.1170 ha        1 AXD      0.165000
     52 H21        -1.2410    6.7170    3.9060 ha        1 AXD      0.144500
     53 H22         0.4400    5.1600    3.2970 ha        1 AXD      0.144500
     54 H25         3.7440   -5.7990    1.1200 DU        1 AXD      0.218000
     55 H261       -1.3770   -1.8820   -0.9370 hc        1 AXD      0.072667
     56 H262       -2.7480   -1.8370   -0.1390 hc        1 AXD      0.072667
     57 H263       -2.6190   -1.1170   -1.5540 hc        1 AXD      0.072667
@<TRIPOS>BOND
     1    1    2 1   
     2    1   17 1   
     3    1   30 1   
     4    2    3 1   
     5    2    7 1   
     6    2   26 1   
     7    3    4 1   
     8    3   31 1   
     9    3   32 1   
    10    4    5 1   
    11    4   33 1   
    12    4   34 1   
    13    5    6 1   
    14    5   18 1   
    15    6    7 1   
    16    6   35 1   
    17    6   36 1   
    18    7   37 1   
    19    7   38 1   
    20    8    9 1   
    21    8   12 1   
    22    8   24 1   
    23    8   39 1   
    24    9   10 1   
    25    9   15 1   
    26   10   11 1   
    27   10   13 1   
    28   10   40 1   
    29   11   12 1   
    30   11   41 1   
    31   11   42 1   
    32   12   43 1   
    33   12   44 1   
    34   13   14 1   
    35   13   45 1   
    36   13   46 1   
    37   14   47 1   
    38   14   48 1   
    39   15   16 1   
    40   15   17 1   
    41   17   49 1   
    42   17   50 1   
    43   18   19 1   
    44   18   23 1   
    45   19   20 1   
    46   19   51 1   
    47   20   27 1   
    48   21   22 1   
    49   21   52 1   
    50   22   53 1   
    51   24   25 1   
    52   26   55 1   
    53   26   56 1   
    54   26   57 1   
    55   27   28 1   
    56   27   29 1   
@<TRIPOS>SUBSTRUCTURE
     1 AXD         1 TEMP              0 ****  ****    0 ROOT
