@<TRIPOS>MOLECULE
AXF
   79    80     1     0     0
SMALL
bcc


@<TRIPOS>ATOM
      1 C2          0.9960   -0.0990    1.0750 c3        1 AXF      0.007400
      2 C4          1.6810   -1.4640    0.8880 c3        1 AXF      0.140500
      3 S1         -0.0040    0.1420   -0.3990 ss        1 AXF     -0.439200
      4 N6          1.1400   -2.6160    1.5870 n3        1 AXF     -0.781200
      5 C8          0.7630   -2.3040    2.9560 c3        1 AXF      0.139800
      6 C11        -0.2130   -1.1380    3.0680 c3        1 AXF     -0.127400
      7 C14         0.3610    0.1070    2.4320 c3        1 AXF     -0.085400
      8 C17         1.6770   -1.7420   -0.6320 c         1 AXF      0.591100
      9 N18         2.6260   -0.8520   -1.4580 n4        1 AXF     -0.688800
     10 C20         2.0810   -0.5570   -2.8250 c3        1 AXF      0.067500
     11 C22         2.0430   -1.8350   -3.6760 c         1 AXF      0.531100
     12 N23         0.9180   -1.9490   -4.6460 n4        1 AXF     -0.676800
     13 C25         0.2550   -3.3130   -4.6740 c3        1 AXF      0.117500
     14 C27        -0.9780   -3.3300   -3.7720 c3        1 AXF     -0.063300
     15 S30        -1.9480   -1.8790   -4.0910 ss        1 AXF     -0.359200
     16 C31        -2.9690   -1.5610   -2.6480 c3        1 AXF      0.060900
     17 C34        -2.5450   -2.2380   -1.4170 c2        1 AXF     -0.170200
     18 C36        -2.0220   -1.6740   -0.3210 c2        1 AXF     -0.148200
     19 C38        -1.7300   -0.2510   -0.1050 c3        1 AXF      0.066900
     20 C41        -0.1040   -3.7510   -6.1350 c3        1 AXF      0.120100
     21 O43        -0.2990   -2.6190   -6.9610 oh        1 AXF     -0.613800
     22 C45         1.0370   -4.5720   -6.7420 c3        1 AXF     -0.086400
     23 C48         0.7580   -5.0120   -8.1800 c3        1 AXF     -0.129700
     24 C50         2.0550   -5.3690   -8.8780 c3        1 AXF     -0.130100
     25 C54        -0.2380   -6.1560   -8.1970 c         1 AXF      0.537100
     26 O55        -1.0160   -6.4420   -7.2980 o         1 AXF     -0.424100
     27 N56        -0.2870   -6.9940   -9.4450 n4        1 AXF     -0.670800
     28 C58        -1.4010   -8.0020   -9.4590 c3        1 AXF      0.106800
     29 C61        -1.4030   -8.8320  -10.7360 c3        1 AXF     -0.112400
     30 C64        -2.5530   -9.8240  -10.6780 c3        1 AXF     -0.074400
     31 C67        -2.5880  -10.6660  -11.9280 c3        1 AXF     -0.103100
     32 O71         2.8860   -2.7200   -3.6380 o         1 AXF     -0.387100
     33 C72         2.9130    0.4850   -3.5680 c3        1 AXF     -0.147100
     34 O76         1.1830   -2.6590   -1.2720 o         1 AXF     -0.485100
     35 H2          1.7640    0.7180    0.9500 h1        1 AXF      0.098700
     36 H4          2.7590   -1.3800    1.2420 h1        1 AXF      0.124700
     37 HN6         0.3530   -3.0010    1.0900 hn        1 AXF      0.372800
     38 H81         1.7020   -2.0740    3.5360 h1        1 AXF      0.100200
     39 H82         0.3080   -3.2370    3.3970 h1        1 AXF      0.100200
     40 H111       -0.4160   -0.9360    4.1550 hc        1 AXF      0.079200
     41 H112       -1.1950   -1.4050    2.5960 hc        1 AXF      0.079200
     42 H141        1.1530    0.5230    3.1190 hc        1 AXF      0.094200
     43 H142       -0.4340    0.8980    2.3510 hc        1 AXF      0.094200
     44 H18         3.5360   -1.3290   -1.5410 hn        1 AXF      0.480800
     45 H20         1.0270   -0.1540   -2.6450 hx        1 AXF      0.156700
     46 H23         0.1650   -1.2480   -4.4260 hn        1 AXF      0.491300
     47 H25         1.0020   -4.0620   -4.2640 hx        1 AXF      0.136700
     48 H271       -1.5680   -4.2600   -3.9800 h1        1 AXF      0.120700
     49 H272       -0.6730   -3.3750   -2.6930 h1        1 AXF      0.120700
     50 H311       -4.0080   -1.8910   -2.9230 h1        1 AXF      0.117200
     51 H312       -2.9730   -0.4430   -2.5670 h1        1 AXF      0.117200
     52 H34        -2.7550   -3.3270   -1.4000 ha        1 AXF      0.155000
     53 H36        -1.8170   -2.3220    0.5550 ha        1 AXF      0.149000
     54 H381       -2.0020    0.0560    0.9400 h1        1 AXF      0.120700
     55 H382       -2.2740    0.4290   -0.8120 h1        1 AXF      0.120700
     56 H41        -1.0350   -4.3860   -6.0810 h1        1 AXF      0.109700
     57 H43        -1.2360   -2.3690   -6.9210 ho        1 AXF      0.456000
     58 H451        1.9720   -3.9510   -6.7500 hc        1 AXF      0.084200
     59 H452        1.2170   -5.4720   -6.0960 hc        1 AXF      0.084200
     60 H48         0.2660   -4.1490   -8.7270 hc        1 AXF      0.130700
     61 H501        1.9080   -5.4980   -9.9790 hc        1 AXF      0.077033
     62 H502        2.7950   -4.5370   -8.7490 hc        1 AXF      0.077033
     63 H503        2.5080   -6.2960   -8.4500 hc        1 AXF      0.077033
     64 H56        -0.3870   -6.3730  -10.2590 hn        1 AXF      0.468800
     65 H581       -2.3730   -7.4390   -9.3520 hx        1 AXF      0.115200
     66 H582       -1.2740   -8.6670   -8.5570 hx        1 AXF      0.115200
     67 H611       -1.5280   -8.1750  -11.6370 hc        1 AXF      0.072200
     68 H612       -0.4380   -9.3930  -10.8460 hc        1 AXF      0.072200
     69 H641       -3.5230   -9.2710  -10.5680 hc        1 AXF      0.057200
     70 H642       -2.4360  -10.4860   -9.7800 hc        1 AXF      0.057200
     71 H671       -2.7300  -10.0300  -12.8350 hc        1 AXF      0.059033
     72 H672       -3.4390  -11.3900  -11.8710 hc        1 AXF      0.059033
     73 H673       -1.6410  -11.2470  -12.0460 hc        1 AXF      0.059033
     74 H721        2.9480    1.4480   -2.9940 hc        1 AXF      0.106033
     75 H722        3.9610    0.1340   -3.7450 hc        1 AXF      0.106033
     76 H723        2.4340    0.7030   -4.5560 hc        1 AXF      0.106033
     77 H182        2.7680    0.0450   -0.9730 hn        1 AXF      0.480800
     78 H232        1.2720   -1.7540   -5.6000 hn        1 AXF      0.491300
     79 H562        0.6110   -7.4890   -9.5400 hn        1 AXF      0.468800
@<TRIPOS>BOND
     1    1    2 1   
     2    1    3 1   
     3    1    7 1   
     4    1   35 1   
     5    2    4 1   
     6    2    8 1   
     7    2   36 1   
     8    3   19 1   
     9    4    5 1   
    10    4   37 1   
    11    5    6 1   
    12    5   38 1   
    13    5   39 1   
    14    6    7 1   
    15    6   40 1   
    16    6   41 1   
    17    7   42 1   
    18    7   43 1   
    19    8    9 1   
    20    8   34 2   
    21    9   10 1   
    22    9   44 1   
    23    9   77 1   
    24   10   11 1   
    25   10   33 1   
    26   10   45 1   
    27   11   12 1   
    28   11   32 2   
    29   12   13 1   
    30   12   46 1   
    31   12   78 1   
    32   13   14 1   
    33   13   20 1   
    34   13   47 1   
    35   14   15 1   
    36   14   48 1   
    37   14   49 1   
    38   15   16 1   
    39   16   17 1   
    40   16   50 1   
    41   16   51 1   
    42   17   18 2   
    43   17   52 1   
    44   18   19 1   
    45   18   53 1   
    46   19   54 1   
    47   19   55 1   
    48   20   21 1   
    49   20   22 1   
    50   20   56 1   
    51   21   57 1   
    52   22   23 1   
    53   22   58 1   
    54   22   59 1   
    55   23   24 1   
    56   23   25 1   
    57   23   60 1   
    58   24   61 1   
    59   24   62 1   
    60   24   63 1   
    61   25   26 2   
    62   25   27 1   
    63   27   28 1   
    64   27   64 1   
    65   27   79 1   
    66   28   29 1   
    67   28   65 1   
    68   28   66 1   
    69   29   30 1   
    70   29   67 1   
    71   29   68 1   
    72   30   31 1   
    73   30   69 1   
    74   30   70 1   
    75   31   71 1   
    76   31   72 1   
    77   31   73 1   
    78   33   74 1   
    79   33   75 1   
    80   33   76 1   
@<TRIPOS>SUBSTRUCTURE
     1 AXF         1 TEMP              0 ****  ****    0 ROOT
