@<TRIPOS>MOLECULE
AXF
   76    76     1     0     0
SMALL
bcc


@<TRIPOS>ATOM
      1 C2          2.9620    4.9990   -0.0850 c3        1 AXF     -0.219000
      2 C4          4.4780    4.9220   -0.0650 c3        1 AXF     -0.018000
      3 S1          2.3650    4.7250   -1.8430 ss        1 AXF      0.086000
      4 N6          4.9650    4.9560    1.2890 n3        1 AXF     -0.301000
      5 C8          4.3260    3.9740    2.1550 c3        1 AXF     -0.074000
      6 C11         2.8580    4.0490    2.1140 c3        1 AXF     -0.160000
      7 C14         2.3390    4.0150    0.7790 c3        1 AXF     -0.168000
      8 C17         4.5260    3.6020   -0.4340 c2        1 AXF      0.249000
      9 N18         3.6370    2.7840    0.4130 n         1 AXF     -0.350000
     10 C20         3.1100    1.7030   -0.3600 c3        1 AXF     -0.004000
     11 C22         1.8930    1.0810    0.3710 c2        1 AXF      0.272000
     12 N23         1.2610    0.0600   -0.5000 n         1 AXF     -0.365000
     13 C25        -0.1790    0.0740   -0.3010 c3        1 AXF     -0.003000
     14 C27        -0.7670    1.2840   -0.9620 c3        1 AXF     -0.298000
     15 S30        -0.2420    1.3380   -2.6850 ss        1 AXF      0.031000
     16 C31         0.9050    2.6580   -2.9070 c3        1 AXF     -0.229000
     17 C34         0.4130    3.5800   -4.0330 c2        1 AXF     -0.161000
     18 C36         0.5430    5.1250   -3.8860 c1        1 AXF     -0.137000
     19 C38         1.0260    5.7410   -2.5340 c2        1 AXF     -0.261000
     20 C41        -0.7800   -1.1680   -0.9040 c3        1 AXF      0.027000
     21 O43         0.0740   -1.6660   -1.8820 oh        1 AXF     -0.342000
     22 C45        -0.9800   -2.2320    0.1950 c3        1 AXF     -0.152000
     23 C48        -2.2630   -2.9990   -0.0720 c3        1 AXF     -0.116000
     24 C50        -2.0370   -3.9830   -1.1830 c3        1 AXF     -0.217000
     25 C54        -2.6850   -3.7450    1.1900 c2        1 AXF      0.295000
     26 O55        -1.9570   -3.7350    2.1820 o         1 AXF     -0.371000
     27 N56        -3.9650   -4.4650    1.2240 n         1 AXF     -0.372000
     28 C58        -4.2200   -5.4450    2.2650 c3        1 AXF     -0.035000
     29 C61        -5.4940   -6.2720    1.9010 c3        1 AXF     -0.185000
     30 C64        -5.6450   -7.4170    2.8730 c3        1 AXF     -0.156000
     31 C67        -6.8520   -8.2590    2.4830 c3        1 AXF     -0.211000
     32 O71         1.2080    1.7650    1.0980 o         1 AXF     -0.395000
     33 C72         4.1670    0.6600   -0.5430 c3        1 AXF     -0.219000
     34 O76         4.7030    3.3030   -1.5880 o         1 AXF     -0.352000
     35 H2          2.6870    5.8970    0.2070 h1        1 AXF      0.145000
     36 H4          4.9850    5.3930   -0.7530 h1        1 AXF      0.145000
     37 HN6         5.8740    4.8210    1.2900 hn        1 AXF      0.177000
     38 H81         4.6190    4.1230    3.0630 h1        1 AXF      0.072000
     39 H82         4.6020    3.0830    1.8770 h1        1 AXF      0.072000
     40 H111        2.4880    3.2910    2.6160 hc        1 AXF      0.092500
     41 H112        2.5720    4.8820    2.5420 hc        1 AXF      0.092500
     42 H141        1.3780    4.1860    0.8100 hc        1 AXF      0.102000
     43 H142        2.4870    3.1400    0.4100 hc        1 AXF      0.102000
     44 H18         3.1330    3.1730    1.0360 hn        1 AXF      0.230000
     45 H20         2.8310    2.0320   -1.2220 h1        1 AXF      0.142000
     46 H23         1.6080   -0.1100   -1.3350 hn        1 AXF      0.245000
     47 H25        -0.3740    0.0990    0.6560 h1        1 AXF      0.125000
     48 H271       -1.7390    1.2360   -0.9200 h1        1 AXF      0.129000
     49 H272       -0.4600    2.0880   -0.5030 h1        1 AXF      0.129000
     50 H311        1.7800    2.2930   -3.1430 h1        1 AXF      0.125000
     51 H312        0.9780    3.1630   -2.0850 h1        1 AXF      0.125000
     52 H34         0.1080    3.1920   -4.8850 ha        1 AXF      0.135000
     53 H36         0.2240    5.7200   -4.6140 ha        1 AXF      0.139000
     54 H381        1.3520    6.6470   -2.6880 h4        1 AXF      0.120000
     55 H382        0.2840    5.7670   -1.9070 h4        1 AXF      0.120000
     56 H41        -1.6550   -0.9460   -1.3110 h1        1 AXF      0.084000
     57 H43        -0.3980   -1.8680   -2.6150 ho        1 AXF      0.225000
     58 H451       -1.0370   -1.7930    1.0680 hc        1 AXF      0.112000
     59 H452       -0.2210   -2.8550    0.1900 hc        1 AXF      0.112000
     60 H48        -2.9720   -2.3690   -0.3310 hc        1 AXF      0.104000
     61 H501       -2.1240   -3.5270   -2.0460 hc        1 AXF      0.087667
     62 H502       -1.1440   -4.3610   -1.1050 hc        1 AXF      0.087667
     63 H503       -2.7010   -4.7000   -1.1250 hc        1 AXF      0.087667
     64 H56        -4.5860   -4.3220    0.5720 hn        1 AXF      0.216000
     65 H581       -3.4540   -6.0450    2.3420 h1        1 AXF      0.102000
     66 H582       -4.3630   -4.9820    3.1240 h1        1 AXF      0.102000
     67 H611       -6.2780   -5.6990    1.9510 hc        1 AXF      0.083000
     68 H612       -5.4070   -6.6230    0.9970 hc        1 AXF      0.083000
     69 H641       -4.8520   -7.9630    2.8520 hc        1 AXF      0.081500
     70 H642       -5.7710   -7.0650    3.7700 hc        1 AXF      0.081500
     71 H671       -6.8880   -8.3480    1.5110 hc        1 AXF      0.073667
     72 H672       -6.7760   -9.1480    2.8900 hc        1 AXF      0.073667
     73 H673       -7.6750   -7.8210    2.8040 hc        1 AXF      0.073667
     74 H721        5.0420    1.0930   -0.6270 hc        1 AXF      0.092667
     75 H722        3.9790    0.1450   -1.3530 hc        1 AXF      0.092667
     76 H723        4.1710    0.0660    0.2240 hc        1 AXF      0.092667
@<TRIPOS>BOND
     1    1    2 1   
     2    1    3 1   
     3    1    7 1   
     4    1   35 1   
     5    2    4 1   
     6    2    8 1   
     7    2   36 1   
     8    3   19 1   
     9    4    5 1   
    10    4   37 1   
    11    5    6 1   
    12    5   38 1   
    13    5   39 1   
    14    6    7 1   
    15    6   40 1   
    16    6   41 1   
    17    7   42 1   
    18    7   43 1   
    19    8    9 1   
    20    8   34 1   
    21    9   10 1   
    22    9   44 1   
    23   10   11 1   
    24   10   33 1   
    25   10   45 1   
    26   11   12 1   
    27   11   32 1   
    28   12   13 1   
    29   12   46 1   
    30   13   14 1   
    31   13   20 1   
    32   13   47 1   
    33   14   15 1   
    34   14   48 1   
    35   14   49 1   
    36   15   16 1   
    37   16   17 1   
    38   16   50 1   
    39   16   51 1   
    40   17   18 1   
    41   17   52 1   
    42   18   53 1   
    43   19   54 1   
    44   19   55 1   
    45   20   21 1   
    46   20   22 1   
    47   20   56 1   
    48   21   57 1   
    49   22   23 1   
    50   22   58 1   
    51   22   59 1   
    52   23   24 1   
    53   23   25 1   
    54   23   60 1   
    55   24   61 1   
    56   24   62 1   
    57   24   63 1   
    58   25   26 1   
    59   25   27 1   
    60   27   28 1   
    61   27   64 1   
    62   28   29 1   
    63   28   65 1   
    64   28   66 1   
    65   29   30 1   
    66   29   67 1   
    67   29   68 1   
    68   30   31 1   
    69   30   69 1   
    70   30   70 1   
    71   31   71 1   
    72   31   72 1   
    73   31   73 1   
    74   33   74 1   
    75   33   75 1   
    76   33   76 1   
@<TRIPOS>SUBSTRUCTURE
     1 AXF         1 TEMP              0 ****  ****    0 ROOT
