@<TRIPOS>MOLECULE
AXF
   79    80     1     0     0
SMALL
bcc


@<TRIPOS>ATOM
      1 C2          1.0330   -0.0540    1.0410 c3        1 AXF      0.007400
      2 C4          1.7380   -1.4100    0.8480 c3        1 AXF      0.140500
      3 S1          0.0030    0.1620   -0.4170 ss        1 AXF     -0.439200
      4 N6          1.2280   -2.5660    1.5620 n7        1 AXF     -0.781200
      5 C8          0.8700   -2.2530    2.9360 c3        1 AXF      0.139800
      6 C11        -0.1230   -1.1030    3.0600 c3        1 AXF     -0.127400
      7 C14         0.4190    0.1480    2.4070 c3        1 AXF     -0.085400
      8 C17         1.7110   -1.6950   -0.6700 c         1 AXF      0.591100
      9 N18         2.6300   -0.7940   -1.5180 ny        1 AXF     -0.688800
     10 C20         2.0560   -0.5150   -2.8760 c3        1 AXF      0.067500
     11 C22         2.0240   -1.7980   -3.7210 c         1 AXF      0.531100
     12 N23         0.8850   -1.9350   -4.6700 ny        1 AXF     -0.676800
     13 C25         0.2430   -3.3110   -4.6790 c3        1 AXF      0.117500
     14 C27        -0.9720   -3.3430   -3.7550 c3        1 AXF     -0.063300
     15 S30        -1.9720   -1.9100   -4.0640 ss        1 AXF     -0.359200
     16 C31        -2.9720   -1.6020   -2.6040 c3        1 AXF      0.060900
     17 C34        -2.5150   -2.2660   -1.3780 c2        1 AXF     -0.170200
     18 C36        -1.9830   -1.6880   -0.2930 c2        1 AXF     -0.148200
     19 C38        -1.7100   -0.2580   -0.0900 c3        1 AXF      0.066900
     20 C41        -0.1340   -3.7610   -6.1320 c3        1 AXF      0.120100
     21 O43        -0.3620   -2.6370   -6.9590 oh        1 AXF     -0.613800
     22 C45         1.0090   -4.5670   -6.7550 c3        1 AXF     -0.086400
     23 C48         0.7110   -5.0180   -8.1860 c3        1 AXF     -0.129700
     24 C50         2.0010   -5.3590   -8.9050 c3        1 AXF     -0.130100
     25 C54        -0.2660   -6.1790   -8.1790 c         1 AXF      0.537100
     26 O55        -1.0240   -6.4720   -7.2650 o         1 AXF     -0.424100
     27 N56        -0.3250   -7.0230   -9.4220 ny        1 AXF     -0.670800
     28 C58        -1.4230   -8.0480   -9.4120 c3        1 AXF      0.106800
     29 C61        -1.4350   -8.8840  -10.6850 c3        1 AXF     -0.112400
     30 C64        -2.5690   -9.8930  -10.6020 c3        1 AXF     -0.074400
     31 C67        -2.6130  -10.7430  -11.8480 c3        1 AXF     -0.103100
     32 O71         2.8820   -2.6690   -3.6920 o         1 AXF     -0.387100
     33 C72         2.8570    0.5370   -3.6390 c3        1 AXF     -0.147100
     34 O76         1.2210   -2.6240   -1.2970 o         1 AXF     -0.485100
     35 H2          1.7850    0.7740    0.8970 h1        1 AXF      0.098700
     36 H4          2.8200   -1.3050    1.1820 h1        1 AXF      0.124700
     37 HN6         0.4390   -2.9670    1.0810 hn        1 AXF      0.372800
     38 H81         0.4400   -3.1920    3.3890 h1        1 AXF      0.100200
     39 H82         1.8160   -2.0040    3.4980 h1        1 AXF      0.100200
     40 H111       -1.1090   -1.3890    2.6060 hc        1 AXF      0.079200
     41 H112       -0.3100   -0.8990    4.1490 hc        1 AXF      0.079200
     42 H141        1.2160    0.5810    3.0780 hc        1 AXF      0.094200
     43 H142       -0.3910    0.9250    2.3370 hc        1 AXF      0.094200
     44 H18         2.7660    0.1080   -1.0400 hn        1 AXF      0.480800
     45 H20         0.9990   -0.1290   -2.6790 hx        1 AXF      0.157700
     46 H23         1.2190   -1.7390   -5.6300 hn        1 AXF      0.491300
     47 H25         1.0110   -4.0450   -4.2800 hx        1 AXF      0.136700
     48 H271       -1.5500   -4.2840   -3.9480 h1        1 AXF      0.120700
     49 H272       -0.6470   -3.3780   -2.6820 h1        1 AXF      0.120700
     50 H311       -4.0100   -1.9510   -2.8590 h1        1 AXF      0.117200
     51 H312       -2.9940   -0.4840   -2.5290 h1        1 AXF      0.117200
     52 H34        -2.7070   -3.3580   -1.3520 ha        1 AXF      0.155000
     53 H36        -1.7510   -2.3280    0.5810 ha        1 AXF      0.149000
     54 H381       -1.9690    0.0490    0.9580 h1        1 AXF      0.120700
     55 H382       -2.2790    0.4080   -0.7900 h1        1 AXF      0.120700
     56 H41        -1.0540   -4.4110   -6.0580 h1        1 AXF      0.109700
     57 H43        -1.3020   -2.4020   -6.9040 ho        1 AXF      0.456000
     58 H451        1.9340   -3.9320   -6.7830 hc        1 AXF      0.084200
     59 H452        1.2150   -5.4600   -6.1080 hc        1 AXF      0.084200
     60 H48         0.1960   -4.1660   -8.7280 hc        1 AXF      0.130700
     61 H501        1.8370   -5.4960  -10.0020 hc        1 AXF      0.077033
     62 H502        2.4760   -6.2770   -8.4810 hc        1 AXF      0.077033
     63 H503        2.7300   -4.5140   -8.7940 hc        1 AXF      0.077033
     64 H56        -0.4480   -6.4080  -10.2370 hn        1 AXF      0.468800
     65 H581       -2.4010   -7.4990   -9.2910 hx        1 AXF      0.115200
     66 H582       -1.2700   -8.7060   -8.5090 hx        1 AXF      0.115200
     67 H611       -0.4630   -9.4320  -10.8090 hc        1 AXF      0.072200
     68 H612       -1.5850   -8.2340  -11.5870 hc        1 AXF      0.072200
     69 H641       -2.4260  -10.5490   -9.7030 hc        1 AXF      0.057200
     70 H642       -3.5450   -9.3540  -10.4780 hc        1 AXF      0.057200
     71 H671       -3.4510  -11.4790  -11.7720 hc        1 AXF      0.059033
     72 H672       -1.6590  -11.3100  -11.9790 hc        1 AXF      0.059033
     73 H673       -2.7800  -10.1130  -12.7550 hc        1 AXF      0.059033
     74 H721        2.8860    1.5030   -3.0700 hc        1 AXF      0.106033
     75 H722        3.9070    0.2020   -3.8330 hc        1 AXF      0.106033
     76 H723        2.3570    0.7420   -4.6190 hc        1 AXF      0.106033
     77 H182        3.5460   -1.2560   -1.6150 hn        1 AXF      0.480800
     78 H232        0.1240   -1.2460   -4.4400 hn        1 AXF      0.491300
     79 H562        0.5800   -7.5050   -9.5300 hn        1 AXF      0.468800
@<TRIPOS>BOND
     1    1    2 1   
     2    1    3 1   
     3    1    7 1   
     4    1   35 1   
     5    2    4 1   
     6    2    8 1   
     7    2   36 1   
     8    3   19 1   
     9    4    5 1   
    10    4   37 1   
    11    5    6 1   
    12    5   38 1   
    13    5   39 1   
    14    6    7 1   
    15    6   40 1   
    16    6   41 1   
    17    7   42 1   
    18    7   43 1   
    19    8    9 1   
    20    8   34 2   
    21    9   10 1   
    22    9   44 1   
    23    9   77 1   
    24   10   11 1   
    25   10   33 1   
    26   10   45 1   
    27   11   12 1   
    28   11   32 2   
    29   12   13 1   
    30   12   46 1   
    31   12   78 1   
    32   13   14 1   
    33   13   20 1   
    34   13   47 1   
    35   14   15 1   
    36   14   48 1   
    37   14   49 1   
    38   15   16 1   
    39   16   17 1   
    40   16   50 1   
    41   16   51 1   
    42   17   18 2   
    43   17   52 1   
    44   18   19 1   
    45   18   53 1   
    46   19   54 1   
    47   19   55 1   
    48   20   21 1   
    49   20   22 1   
    50   20   56 1   
    51   21   57 1   
    52   22   23 1   
    53   22   58 1   
    54   22   59 1   
    55   23   24 1   
    56   23   25 1   
    57   23   60 1   
    58   24   61 1   
    59   24   62 1   
    60   24   63 1   
    61   25   26 2   
    62   25   27 1   
    63   27   28 1   
    64   27   64 1   
    65   27   79 1   
    66   28   29 1   
    67   28   65 1   
    68   28   66 1   
    69   29   30 1   
    70   29   67 1   
    71   29   68 1   
    72   30   31 1   
    73   30   69 1   
    74   30   70 1   
    75   31   71 1   
    76   31   72 1   
    77   31   73 1   
    78   33   74 1   
    79   33   75 1   
    80   33   76 1   
@<TRIPOS>SUBSTRUCTURE
     1 AXF         1 TEMP              0 ****  ****    0 ROOT
