@<TRIPOS>MOLECULE
AXF
   79    80     1     0     0
SMALL
bcc


@<TRIPOS>ATOM
      1 C2          0.7520   -0.6370    1.4890 c3        1 AXF      0.019400
      2 C4          1.9870   -1.2580    0.8020 c3        1 AXF      0.230500
      3 S1         -0.0370    0.2600    0.1400 ss        1 AXF     -0.387200
      4 N6          2.4160   -2.5410    1.1810 n3        1 AXF     -0.874200
      5 C8          1.4940   -3.4890    1.7680 c3        1 AXF      0.186800
      6 C11         0.0390   -3.0340    1.7500 c3        1 AXF     -0.102400
      7 C14        -0.0830   -1.6200    2.2720 c3        1 AXF     -0.091400
      8 C17         1.5940   -1.3010   -0.7450 c         1 AXF      0.551100
      9 N18         2.2770   -0.1980   -1.6100 n4        1 AXF     -0.697800
     10 C20         1.6450   -0.0220   -2.9530 c3        1 AXF      0.073500
     11 C22         1.8750   -1.2600   -3.8310 c         1 AXF      0.536100
     12 N23         0.8330   -1.5440   -4.8600 n4        1 AXF     -0.677800
     13 C25         0.1940   -2.9100   -4.7120 c3        1 AXF      0.116500
     14 C27        -1.0430   -2.8330   -3.8190 c3        1 AXF     -0.078300
     15 S30        -2.0450   -1.4420   -4.2720 ss        1 AXF     -0.314200
     16 C31        -2.6590   -0.7090   -2.7620 c3        1 AXF      0.039900
     17 C34        -2.6560   -1.6020   -1.5960 c2        1 AXF     -0.175200
     18 C36        -2.2740   -1.2800   -0.3530 c2        1 AXF     -0.145200
     19 C38        -1.8140    0.0350    0.1170 c3        1 AXF      0.056900
     20 C41        -0.1440   -3.5360   -6.1070 c3        1 AXF      0.118100
     21 O43        -0.3930   -2.5210   -7.0610 oh        1 AXF     -0.612800
     22 C45         1.0360   -4.3670   -6.6190 c3        1 AXF     -0.087400
     23 C48         0.8000   -4.9520   -8.0110 c3        1 AXF     -0.129700
     24 C50         2.1200   -5.3400   -8.6460 c3        1 AXF     -0.130100
     25 C54        -0.1640   -6.1210   -7.9370 c         1 AXF      0.537100
     26 O55        -0.9400   -6.3540   -7.0210 o         1 AXF     -0.424100
     27 N56        -0.1810   -7.0590   -9.1130 n4        1 AXF     -0.671800
     28 C58        -1.2770   -8.0840   -9.0590 c3        1 AXF      0.106800
     29 C61        -1.2470   -9.0170  -10.2630 c3        1 AXF     -0.112400
     30 C64        -2.3810  -10.0200  -10.1400 c3        1 AXF     -0.074400
     31 C67        -2.3830  -10.9630  -11.3170 c3        1 AXF     -0.103100
     32 O71         2.8550   -1.9880   -3.7800 o         1 AXF     -0.390100
     33 C72         2.1820    1.1980   -3.6980 c3        1 AXF     -0.148100
     34 O76         1.0880   -2.1920   -1.4130 o         1 AXF     -0.519100
     35 H2          1.1090    0.1690    2.1920 h1        1 AXF      0.135700
     36 H4          2.8510   -0.5290    0.8920 h1        1 AXF      0.085700
     37 HN6         3.3490   -2.5960    1.5340 hn        1 AXF      0.450800
     38 H81         1.8000   -3.6960    2.8360 h1        1 AXF      0.077700
     39 H82         1.5930   -4.4520    1.1890 h1        1 AXF      0.077700
     40 H111       -0.3690   -3.1000    0.7070 hc        1 AXF      0.072200
     41 H112       -0.5590   -3.7300    2.3960 hc        1 AXF      0.072200
     42 H141       -1.1600   -1.3010    2.2730 hc        1 AXF      0.090200
     43 H142        0.2530   -1.5980    3.3490 hc        1 AXF      0.090200
     44 H18         2.2020    0.6990   -1.1090 hn        1 AXF      0.471300
     45 H20         0.5330    0.1080   -2.7530 hx        1 AXF      0.137700
     46 H23         0.0520   -0.8400   -4.8130 hn        1 AXF      0.487800
     47 H25         0.9540   -3.5840   -4.2060 hx        1 AXF      0.134700
     48 H271       -1.6340   -3.7780   -3.9400 h1        1 AXF      0.125200
     49 H272       -0.7430   -2.7810   -2.7390 h1        1 AXF      0.125200
     50 H311       -2.0830    0.2330   -2.5870 h1        1 AXF      0.106700
     51 H312       -3.7200   -0.4250   -3.0220 h1        1 AXF      0.106700
     52 H34        -3.0700   -2.6120   -1.7830 ha        1 AXF      0.160000
     53 H36        -2.3540   -2.0510    0.4410 ha        1 AXF      0.161000
     54 H381       -2.1480    0.8780   -0.5450 h1        1 AXF      0.120700
     55 H382       -2.2140    0.2400    1.1460 h1        1 AXF      0.120700
     56 H41        -1.0420   -4.2050   -5.9720 h1        1 AXF      0.107700
     57 H43        -1.3410   -2.3170   -7.0510 ho        1 AXF      0.454000
     58 H451        1.9500   -3.7170   -6.6730 hc        1 AXF      0.084200
     59 H452        1.2380   -5.1940   -5.8860 hc        1 AXF      0.084200
     60 H48         0.2980   -4.1600   -8.6490 hc        1 AXF      0.130700
     61 H501        2.0010   -5.5750   -9.7320 hc        1 AXF      0.077033
     62 H502        2.8370   -4.4820   -8.5820 hc        1 AXF      0.077033
     63 H503        2.5840   -6.2120   -8.1240 hc        1 AXF      0.077033
     64 H56         0.7270   -7.5440   -9.1540 hn        1 AXF      0.468800
     65 H581       -1.1530   -8.6700   -8.1030 hx        1 AXF      0.115200
     66 H582       -2.2600   -7.5320   -9.0130 hx        1 AXF      0.115200
     67 H611       -0.2700   -9.5680  -10.3130 hc        1 AXF      0.072200
     68 H612       -1.3670   -8.4380  -11.2170 hc        1 AXF      0.072200
     69 H641       -2.2680  -10.6040   -9.1880 hc        1 AXF      0.057200
     70 H642       -3.3620   -9.4770  -10.0900 hc        1 AXF      0.057200
     71 H671       -3.2230  -11.6940  -11.2120 hc        1 AXF      0.059033
     72 H672       -1.4250  -11.5350  -11.3720 hc        1 AXF      0.059033
     73 H673       -2.5210  -10.4070  -12.2750 hc        1 AXF      0.059033
     74 H721        1.6350    1.3150   -4.6670 hc        1 AXF      0.102700
     75 H722        3.2770    1.1060   -3.9120 hc        1 AXF      0.102700
     76 H723        2.0130    2.1320   -3.1010 hc        1 AXF      0.102700
     77 H182        3.2710   -0.4340   -1.7210 hn        1 AXF      0.471300
     78 H232        1.2590   -1.4960   -5.8010 hn        1 AXF      0.487800
     79 H562       -0.2780   -6.5090   -9.9760 hn        1 AXF      0.468800
@<TRIPOS>BOND
     1    1    2 1   
     2    1    3 1   
     3    1    7 1   
     4    1   35 1   
     5    2    4 1   
     6    2    8 1   
     7    2   36 1   
     8    3   19 1   
     9    4    5 1   
    10    4   37 1   
    11    5    6 1   
    12    5   38 1   
    13    5   39 1   
    14    6    7 1   
    15    6   40 1   
    16    6   41 1   
    17    7   42 1   
    18    7   43 1   
    19    8    9 1   
    20    8   34 2   
    21    9   10 1   
    22    9   44 1   
    23    9   77 1   
    24   10   11 1   
    25   10   33 1   
    26   10   45 1   
    27   11   12 1   
    28   11   32 2   
    29   12   13 1   
    30   12   46 1   
    31   12   78 1   
    32   13   14 1   
    33   13   20 1   
    34   13   47 1   
    35   14   15 1   
    36   14   48 1   
    37   14   49 1   
    38   15   16 1   
    39   16   17 1   
    40   16   50 1   
    41   16   51 1   
    42   17   18 2   
    43   17   52 1   
    44   18   19 1   
    45   18   53 1   
    46   19   54 1   
    47   19   55 1   
    48   20   21 1   
    49   20   22 1   
    50   20   56 1   
    51   21   57 1   
    52   22   23 1   
    53   22   58 1   
    54   22   59 1   
    55   23   24 1   
    56   23   25 1   
    57   23   60 1   
    58   24   61 1   
    59   24   62 1   
    60   24   63 1   
    61   25   26 2   
    62   25   27 1   
    63   27   28 1   
    64   27   64 1   
    65   27   79 1   
    66   28   29 1   
    67   28   65 1   
    68   28   66 1   
    69   29   30 1   
    70   29   67 1   
    71   29   68 1   
    72   30   31 1   
    73   30   69 1   
    74   30   70 1   
    75   31   71 1   
    76   31   72 1   
    77   31   73 1   
    78   33   74 1   
    79   33   75 1   
    80   33   76 1   
@<TRIPOS>SUBSTRUCTURE
     1 AXF         1 TEMP              0 ****  ****    0 ROOT
