@<TRIPOS>MOLECULE
AXF
   76    77     1     0     0
SMALL
bcc


@<TRIPOS>ATOM
      1 C2          5.6690    0.9990   -0.7560 c3        1 AXF      0.018400
      2 C4          5.5010   -0.4600   -1.2240 c3        1 AXF      0.128500
      3 S1          4.3670    1.5450    0.3410 ss        1 AXF     -0.293200
      4 N6          5.7990   -1.4480   -0.2000 n3        1 AXF     -0.822200
      5 C8          7.0510   -1.2350    0.4980 c3        1 AXF      0.169800
      6 C11         7.2110    0.1850    1.0350 c3        1 AXF     -0.083400
      7 C14         7.0080    1.1930   -0.0750 c3        1 AXF     -0.069400
      8 C17         4.0830   -0.5820   -1.8340 c         1 AXF      0.667100
      9 N18         3.1890   -1.5040   -1.3470 n         1 AXF     -0.538900
     10 C20         1.8270   -1.5720   -1.8260 c3        1 AXF      0.044700
     11 C22         0.8590   -1.5860   -0.6150 c         1 AXF      0.643100
     12 N23         0.1300   -0.4510   -0.3600 n         1 AXF     -0.541900
     13 C25        -0.8310   -0.4000    0.7190 c3        1 AXF      0.078700
     14 C27        -1.0380    1.0360    1.2100 c3        1 AXF     -0.027300
     15 S30        -1.4610    2.1580   -0.0960 ss        1 AXF     -0.302200
     16 C31        -0.2100    3.4100   -0.0090 c3        1 AXF      0.020900
     17 C34         1.0530    3.0030   -0.6490 c2        1 AXF     -0.172200
     18 C36         2.2440    3.0600   -0.0420 c2        1 AXF     -0.142200
     19 C38         3.5030    2.6910   -0.7130 c3        1 AXF      0.010900
     20 C41        -2.2120   -1.0360    0.3740 c3        1 AXF      0.117100
     21 O43        -2.0900   -2.1360   -0.5100 oh        1 AXF     -0.604800
     22 C45        -2.9140   -1.4700    1.6600 c3        1 AXF     -0.107400
     23 C48        -4.3200   -1.9840    1.3810 c3        1 AXF     -0.128700
     24 C50        -4.8430   -2.7880    2.5530 c3        1 AXF     -0.090100
     25 C54        -5.2540   -0.7940    1.1490 c         1 AXF      0.657100
     26 O55        -5.5370   -0.0080    2.0760 o         1 AXF     -0.618100
     27 N56        -5.7420   -0.6060   -0.1260 n         1 AXF     -0.568900
     28 C58        -6.6840    0.4260   -0.4590 c3        1 AXF      0.086000
     29 C61        -8.0440   -0.0930   -0.9310 c3        1 AXF     -0.103400
     30 C64        -8.9410    1.0690   -1.2990 c3        1 AXF     -0.078400
     31 C67       -10.2910    0.5920   -1.7690 c3        1 AXF     -0.093100
     32 O71         0.7900   -2.5920    0.1240 o         1 AXF     -0.634100
     33 C72         1.5330   -2.8280   -2.6470 c3        1 AXF     -0.106100
     34 O76         3.8030    0.1460   -2.8130 o         1 AXF     -0.641100
     35 H2          5.6250    1.6350   -1.6820 h1        1 AXF      0.089700
     36 H4          6.2000   -0.5850   -2.1150 h1        1 AXF      0.048700
     37 HN6         5.7920   -2.3650   -0.6080 hn        1 AXF      0.369800
     38 H81         7.9410   -1.4650   -0.1600 h1        1 AXF      0.033700
     39 H82         7.0660   -1.9600    1.3610 h1        1 AXF      0.033700
     40 H111        8.2370    0.2920    1.4700 hc        1 AXF      0.059200
     41 H112        6.4660    0.3710    1.8530 hc        1 AXF      0.059200
     42 H141        7.8240    1.0820   -0.8380 hc        1 AXF      0.053700
     43 H142        7.0710    2.2330    0.3400 hc        1 AXF      0.053700
     44 H18         3.3790   -1.9920   -0.5000 hn        1 AXF      0.340500
     45 H20         1.6370   -0.6700   -2.4840 h1        1 AXF      0.090700
     46 H23         0.0840    0.2830   -1.0330 hn        1 AXF      0.331500
     47 H25        -0.3930   -1.0030    1.5750 h1        1 AXF      0.083700
     48 H271       -1.8820    1.0480    1.9430 h1        1 AXF      0.085700
     49 H272       -0.1170    1.3880    1.7350 h1        1 AXF      0.085700
     50 H311       -0.6580    4.2740   -0.5700 h1        1 AXF      0.082700
     51 H312       -0.0530    3.7310    1.0500 h1        1 AXF      0.082700
     52 H34         0.9600    2.6540   -1.6920 ha        1 AXF      0.137000
     53 H36         2.3450    3.4070    1.0010 ha        1 AXF      0.133000
     54 H381        3.3250    2.2240   -1.7160 h1        1 AXF      0.079700
     55 H382        4.1330    3.6040   -0.8660 h1        1 AXF      0.079700
     56 H41        -2.8420   -0.2940   -0.1950 h1        1 AXF      0.087700
     57 H43        -1.4860   -2.7740   -0.1010 ho        1 AXF      0.420000
     58 H451       -2.9690   -0.6150    2.3820 hc        1 AXF      0.063200
     59 H452       -2.3180   -2.2900    2.1420 hc        1 AXF      0.063200
     60 H48        -4.2750   -2.6490    0.4730 hc        1 AXF      0.072700
     61 H501       -4.9150   -2.1430    3.4630 hc        1 AXF      0.046367
     62 H502       -5.8590   -3.1910    2.3240 hc        1 AXF      0.046367
     63 H503       -4.1590   -3.6440    2.7680 hc        1 AXF      0.046367
     64 H56        -5.5390   -1.2780   -0.8260 hn        1 AXF      0.311500
     65 H581       -6.2370    1.0580   -1.2810 h1        1 AXF      0.061200
     66 H582       -6.8350    1.0860    0.4440 h1        1 AXF      0.061200
     67 H611       -8.5260   -0.6990   -0.1200 hc        1 AXF      0.043700
     68 H612       -7.9150   -0.7650   -1.8200 hc        1 AXF      0.043700
     69 H641       -8.4550    1.6780   -2.1070 hc        1 AXF      0.041700
     70 H642       -9.0680    1.7400   -0.4090 hc        1 AXF      0.041700
     71 H671      -10.8030    0.0040   -0.9690 hc        1 AXF      0.033700
     72 H672      -10.9380    1.4630   -2.0350 hc        1 AXF      0.033700
     73 H673      -10.1890   -0.0590   -2.6710 hc        1 AXF      0.033700
     74 H721        1.6710   -3.7480   -2.0290 hc        1 AXF      0.054033
     75 H722        0.4730   -2.7890   -2.9970 hc        1 AXF      0.054033
     76 H723        2.2070   -2.8770   -3.5350 hc        1 AXF      0.054033
@<TRIPOS>BOND
     1    1    2 1   
     2    1    3 1   
     3    1    7 1   
     4    1   35 1   
     5    2    4 1   
     6    2    8 1   
     7    2   36 1   
     8    3   19 1   
     9    4    5 1   
    10    4   37 1   
    11    5    6 1   
    12    5   38 1   
    13    5   39 1   
    14    6    7 1   
    15    6   40 1   
    16    6   41 1   
    17    7   42 1   
    18    7   43 1   
    19    8    9 1   
    20    8   34 2   
    21    9   10 1   
    22    9   44 1   
    23   10   11 1   
    24   10   33 1   
    25   10   45 1   
    26   11   12 1   
    27   11   32 2   
    28   12   13 1   
    29   12   46 1   
    30   13   14 1   
    31   13   20 1   
    32   13   47 1   
    33   14   15 1   
    34   14   48 1   
    35   14   49 1   
    36   15   16 1   
    37   16   17 1   
    38   16   50 1   
    39   16   51 1   
    40   17   18 2   
    41   17   52 1   
    42   18   19 1   
    43   18   53 1   
    44   19   54 1   
    45   19   55 1   
    46   20   21 1   
    47   20   22 1   
    48   20   56 1   
    49   21   57 1   
    50   22   23 1   
    51   22   58 1   
    52   22   59 1   
    53   23   24 1   
    54   23   25 1   
    55   23   60 1   
    56   24   61 1   
    57   24   62 1   
    58   24   63 1   
    59   25   26 2   
    60   25   27 1   
    61   27   28 1   
    62   27   64 1   
    63   28   29 1   
    64   28   65 1   
    65   28   66 1   
    66   29   30 1   
    67   29   67 1   
    68   29   68 1   
    69   30   31 1   
    70   30   69 1   
    71   30   70 1   
    72   31   71 1   
    73   31   72 1   
    74   31   73 1   
    75   33   74 1   
    76   33   75 1   
    77   33   76 1   
@<TRIPOS>SUBSTRUCTURE
     1 AXF         1 TEMP              0 ****  ****    0 ROOT
