@<TRIPOS>MOLECULE
AXI
   46    49     1     0     0
SMALL
bcc


@<TRIPOS>ATOM
      1 O81         6.8030    0.3880   -1.8160 o         1 AXI     -0.601100
      2 C80         6.0970    0.2190   -0.8010 c         1 AXI      0.668700
      3 N82         6.1840   -0.9350   -0.0480 n         1 AXI     -0.564900
      4 C88         6.9720   -2.0550   -0.4530 c3        1 AXI      0.077300
      5 C23         5.1860    1.2980   -0.3080 ca        1 AXI     -0.129600
      6 C22         5.7300    2.5850   -0.2280 ca        1 AXI     -0.071000
      7 C21         4.9540    3.6550    0.2100 ca        1 AXI     -0.144000
      8 C20         3.6230    3.4400    0.5650 ca        1 AXI     -0.099000
      9 C18         3.8420    1.0770    0.0380 ca        1 AXI      0.008900
     10 C19         3.0740    2.1640    0.4760 ca        1 AXI     -0.145000
     11 S24         3.2310   -0.5060   -0.0820 ss        1 AXI     -0.118800
     12 C07         1.5410   -0.4260    0.1380 ca        1 AXI     -0.045100
     13 C08         0.7230    0.3700   -0.7230 ca        1 AXI     -0.115000
     14 C09        -0.6450    0.3360   -0.6550 ca        1 AXI     -0.083000
     15 C12         0.9890   -1.2550    1.0860 ca        1 AXI     -0.031000
     16 C11        -0.4270   -1.3310    1.1770 ca        1 AXI     -0.098000
     17 N15        -1.2370   -2.0790    2.0090 nc        1 AXI     -0.250400
     18 N14        -2.4790   -1.7700    1.6870 na        1 AXI      0.066800
     19 C13        -2.5940   -0.8290    0.6550 cc        1 AXI     -0.091100
     20 C10        -1.2550   -0.5130    0.2900 ca        1 AXI     -0.092000
     21 C16        -3.8140   -0.3100    0.1010 ce        1 AXI     -0.055000
     22 C17        -5.0510   -0.6580    0.4960 cf        1 AXI     -0.242800
     23 C02        -6.2860   -0.1200   -0.0780 ca        1 AXI      0.455100
     24 N03        -6.2330    0.8150   -1.0660 nb        1 AXI     -0.666000
     25 C04        -7.3950    1.2730   -1.5550 ca        1 AXI      0.402200
     26 C05        -8.6600    0.8450   -1.1100 ca        1 AXI     -0.244300
     27 C06        -8.7100   -0.1130   -0.0990 ca        1 AXI     -0.091000
     28 C01        -7.5160   -0.6060    0.4280 ca        1 AXI     -0.237300
     29 H82         5.5410   -1.0720    0.6980 hn        1 AXI      0.317500
     30 H881        7.6900   -1.7520   -1.2610 h1        1 AXI      0.044367
     31 H882        7.5510   -2.4400    0.4290 h1        1 AXI      0.044367
     32 H883        6.3200   -2.8840   -0.8420 h1        1 AXI      0.044367
     33 H22         6.7790    2.7410   -0.5310 ha        1 AXI      0.154000
     34 H21         5.3890    4.6630    0.2710 ha        1 AXI      0.139000
     35 H20         3.0010    4.2780    0.9140 ha        1 AXI      0.136000
     36 H19         2.0190    2.0080    0.7550 ha        1 AXI      0.145000
     37 H08         1.2260    1.0150   -1.4600 ha        1 AXI      0.147000
     38 H12         1.6130   -1.8580    1.7630 ha        1 AXI      0.157000
     39 H09        -1.2710    0.9480   -1.3210 ha        1 AXI      0.143000
     40 H14        -3.2380   -2.2000    2.1680 hn        1 AXI      0.325700
     41 H16        -3.6500    0.4280   -0.7080 ha        1 AXI      0.168000
     42 H17        -5.2180   -1.3930    1.3010 ha        1 AXI      0.117000
     43 H01        -7.5260   -1.3610    1.2250 ha        1 AXI      0.141000
     44 H04        -7.3060    2.0310   -2.3550 h4        1 AXI      0.024100
     45 H05        -9.5760    1.2580   -1.5520 ha        1 AXI      0.146000
     46 H06        -9.6760   -0.4780    0.2810 ha        1 AXI      0.140000
@<TRIPOS>BOND
     1    1    2 2   
     2    2    3 1   
     3    2    5 1   
     4    3    4 1   
     5    3   29 1   
     6    4   30 1   
     7    4   31 1   
     8    4   32 1   
     9    5    6 ar  
    10    5    9 ar  
    11    6    7 ar  
    12    6   33 1   
    13    7    8 ar  
    14    7   34 1   
    15    8   10 ar  
    16    8   35 1   
    17    9   10 ar  
    18    9   11 1   
    19   10   36 1   
    20   11   12 1   
    21   12   13 ar  
    22   12   15 ar  
    23   13   14 ar  
    24   13   37 1   
    25   14   20 ar  
    26   14   39 1   
    27   15   16 ar  
    28   15   38 1   
    29   16   17 2   
    30   16   20 ar  
    31   17   18 1   
    32   18   19 1   
    33   18   40 1   
    34   19   20 2   
    35   19   21 1   
    36   21   22 2   
    37   21   41 1   
    38   22   23 1   
    39   22   42 1   
    40   23   24 ar  
    41   23   28 ar  
    42   24   25 ar  
    43   25   26 ar  
    44   25   44 1   
    45   26   27 ar  
    46   26   45 1   
    47   27   28 ar  
    48   27   46 1   
    49   28   43 1   
@<TRIPOS>SUBSTRUCTURE
     1 AXI         1 TEMP              0 ****  ****    0 ROOT
