@<TRIPOS>MOLECULE
AXI
   47    50     1     0     0
SMALL
bcc


@<TRIPOS>ATOM
      1 O81         0.4360    1.1540   -0.3020 o         1 AXI     -0.446100
      2 C80         1.3950    0.3880   -0.3320 c         1 AXI      0.550700
      3 N82         2.2570    0.4160    0.9340 ny        1 AXI     -0.669800
      4 C88         1.8060    1.4150    1.9250 c3        1 AXI      0.085100
      5 C23         1.8180   -0.5110   -1.3830 ca        1 AXI     -0.231600
      6 C22         2.9230   -1.3870   -1.2300 ca        1 AXI     -0.091000
      7 C21         3.3100   -2.2240   -2.2510 ca        1 AXI     -0.137000
      8 C20         2.5990   -2.2170   -3.4700 ca        1 AXI     -0.037000
      9 C18         1.0900   -0.5040   -2.6030 ca        1 AXI      0.043900
     10 C19         1.5200   -1.3790   -3.6320 ca        1 AXI     -0.158000
     11 S24        -0.2210    0.5050   -2.7850 ss        1 AXI      0.091200
     12 C07        -0.8060    0.2940   -4.3620 ca        1 AXI     -0.149100
     13 C08        -1.7310   -0.7600   -4.6280 ca        1 AXI     -0.120000
     14 C09        -2.3560   -0.8830   -5.8440 ca        1 AXI     -0.069000
     15 C12        -0.4910    1.2320   -5.3240 ca        1 AXI      0.022000
     16 C11        -1.1170    1.1360   -6.5900 ca        1 AXI     -0.123000
     17 N15        -1.0010    1.9320   -7.7180 nc        1 AXI     -0.243400
     18 N14        -1.8030    1.4110   -8.6190 na        1 AXI      0.112800
     19 C13        -2.4890    0.2710   -8.1990 cc        1 AXI     -0.076100
     20 C10        -2.0670    0.0560   -6.8510 ca        1 AXI     -0.095000
     21 C16        -3.4610   -0.4990   -8.9240 ce        1 AXI     -0.079000
     22 C17        -3.6530   -0.6940  -10.2360 cf        1 AXI     -0.212800
     23 C02        -2.9240   -0.2030  -11.4060 ca        1 AXI      0.453100
     24 N03        -2.2590    0.9800  -11.3860 nb        1 AXI     -0.716000
     25 C04        -1.6410    1.3800  -12.5090 ca        1 AXI      0.407200
     26 C05        -1.6400    0.6420  -13.7070 ca        1 AXI     -0.231300
     27 C06        -2.3200   -0.5770  -13.7270 ca        1 AXI     -0.082000
     28 C01        -2.9730   -1.0070  -12.5730 ca        1 AXI     -0.226300
     29 H82         2.2340   -0.5200    1.3520 hn        1 AXI      0.453800
     30 H881        0.7480    1.1890    2.2290 hx        1 AXI      0.109367
     31 H882        1.8350    2.4390    1.4640 hx        1 AXI      0.109367
     32 H883        2.4810    1.3760    2.8210 hx        1 AXI      0.109367
     33 H22         3.4960   -1.4280   -0.2920 ha        1 AXI      0.112000
     34 H21         4.1690   -2.9030   -2.1270 ha        1 AXI      0.160000
     35 H20         2.9150   -2.8880   -4.2860 ha        1 AXI      0.164000
     36 H19         0.9610   -1.3820   -4.5870 ha        1 AXI      0.175000
     37 H08        -1.9490   -1.4770   -3.8210 ha        1 AXI      0.140000
     38 H12         0.2220    2.0490   -5.1270 ha        1 AXI      0.156000
     39 H09        -3.0740   -1.6930   -6.0400 ha        1 AXI      0.147000
     40 H14        -1.8720    1.8210   -9.5400 hn        1 AXI      0.370700
     41 H16        -4.1430   -1.0340   -8.2280 ha        1 AXI      0.142000
     42 H17        -4.4910   -1.3630  -10.5230 ha        1 AXI      0.141000
     43 H01        -3.5210   -1.9600  -12.5620 ha        1 AXI      0.151000
     44 H04        -1.1180    2.3520  -12.4450 h4        1 AXI      0.027100
     45 H05        -1.1190    1.0220  -14.5950 ha        1 AXI      0.156000
     46 H06        -2.3450   -1.1890  -14.6410 ha        1 AXI      0.151000
     47 H822        3.2220    0.6190    0.6540 hn        1 AXI      0.453800
@<TRIPOS>BOND
     1    1    2 2   
     2    2    3 1   
     3    2    5 1   
     4    3    4 1   
     5    3   29 1   
     6    3   47 1   
     7    4   30 1   
     8    4   31 1   
     9    4   32 1   
    10    5    6 ar  
    11    5    9 ar  
    12    6    7 ar  
    13    6   33 1   
    14    7    8 ar  
    15    7   34 1   
    16    8   10 ar  
    17    8   35 1   
    18    9   10 ar  
    19    9   11 1   
    20   10   36 1   
    21   11   12 1   
    22   12   13 ar  
    23   12   15 ar  
    24   13   14 ar  
    25   13   37 1   
    26   14   20 ar  
    27   14   39 1   
    28   15   16 ar  
    29   15   38 1   
    30   16   17 2   
    31   16   20 ar  
    32   17   18 1   
    33   18   19 1   
    34   18   40 1   
    35   19   20 2   
    36   19   21 1   
    37   21   22 2   
    38   21   41 1   
    39   22   23 1   
    40   22   42 1   
    41   23   24 ar  
    42   23   28 ar  
    43   24   25 ar  
    44   25   26 ar  
    45   25   44 1   
    46   26   27 ar  
    47   26   45 1   
    48   27   28 ar  
    49   27   46 1   
    50   28   43 1   
@<TRIPOS>SUBSTRUCTURE
     1 AXI         1 TEMP              0 ****  ****    0 ROOT
