@<TRIPOS>MOLECULE
AXI
   47    50     1     0     0
SMALL
bcc


@<TRIPOS>ATOM
      1 O81         0.2530    1.0350   -0.2520 o         1 AXI     -0.446100
      2 C80         1.3050    0.4040   -0.3040 c         1 AXI      0.550700
      3 N82         2.1530    0.4970    0.9680 n4        1 AXI     -0.669800
      4 C88         1.5720    1.3870    1.9940 c3        1 AXI      0.085100
      5 C23         1.8460   -0.3890   -1.3860 ca        1 AXI     -0.231600
      6 C22         3.0560   -1.1170   -1.2590 ca        1 AXI     -0.091000
      7 C21         3.5530   -1.8550   -2.3090 ca        1 AXI     -0.137000
      8 C20         2.8500   -1.8930   -3.5320 ca        1 AXI     -0.037000
      9 C18         1.1260   -0.4300   -2.6100 ca        1 AXI      0.043900
     10 C19         1.6690   -1.2000   -3.6700 ca        1 AXI     -0.158000
     11 S24        -0.3070    0.4030   -2.7620 ss        1 AXI      0.091200
     12 C07        -0.8560    0.1790   -4.3510 ca        1 AXI     -0.149100
     13 C08        -1.6330   -0.9770   -4.6640 ca        1 AXI     -0.120000
     14 C09        -2.2330   -1.1330   -5.8880 ca        1 AXI     -0.069000
     15 C12        -0.6650    1.1860   -5.2740 ca        1 AXI      0.022000
     16 C11        -1.2700    1.0590   -6.5470 ca        1 AXI     -0.123000
     17 N15        -1.2570    1.9060   -7.6430 nc        1 AXI     -0.243400
     18 N14        -1.9820    1.3200   -8.5690 na        1 AXI      0.112800
     19 C13        -2.5130    0.0840   -8.1980 cc        1 AXI     -0.076100
     20 C10        -2.0690   -0.1260   -6.8570 ca        1 AXI     -0.095000
     21 C16        -3.3730   -0.7780   -8.9590 ce        1 AXI     -0.079000
     22 C17        -3.5360   -0.9440  -10.2790 cf        1 AXI     -0.212800
     23 C02        -2.8770   -0.3160  -11.4240 ca        1 AXI      0.453100
     24 N03        -2.3740    0.9430  -11.3530 nb        1 AXI     -0.716000
     25 C04        -1.8130    1.4660  -12.4560 ca        1 AXI      0.407200
     26 C05        -1.7150    0.7830  -13.6820 ca        1 AXI     -0.231300
     27 C06        -2.2280   -0.5120  -13.7550 ca        1 AXI     -0.082000
     28 C01        -2.8200   -1.0710  -12.6230 ca        1 AXI     -0.226300
     29 H82         2.2530   -0.4500    1.3500 hn        1 AXI      0.453800
     30 H881        0.5520    1.0130    2.2800 hx        1 AXI      0.109367
     31 H882        1.4660    2.4240    1.5720 hx        1 AXI      0.109367
     32 H883        2.2450    1.4030    2.8920 hx        1 AXI      0.109367
     33 H22         3.6280   -1.1180   -0.3190 ha        1 AXI      0.112000
     34 H21         4.4940   -2.4180   -2.2040 ha        1 AXI      0.160000
     35 H20         3.2530   -2.4840   -4.3710 ha        1 AXI      0.164000
     36 H19         1.1180   -1.2390   -4.6270 ha        1 AXI      0.175000
     37 H08        -1.7570   -1.7470   -3.8870 ha        1 AXI      0.140000
     38 H12        -0.0670    2.0820   -5.0400 ha        1 AXI      0.156000
     39 H09        -2.8380   -2.0230   -6.1200 ha        1 AXI      0.147000
     40 H14        -2.1020    1.7530   -9.4740 hn        1 AXI      0.370700
     41 H16        -3.9790   -1.4270   -8.2900 ha        1 AXI      0.142000
     42 H17        -4.2770   -1.7060  -10.5980 ha        1 AXI      0.141000
     43 H01        -3.2370   -2.0870  -12.6530 ha        1 AXI      0.151000
     44 H04        -1.4230    2.4950  -12.3510 h4        1 AXI      0.027100
     45 H05        -1.2480    1.2640  -14.5520 ha        1 AXI      0.156000
     46 H06        -2.1720   -1.0850  -14.6930 ha        1 AXI      0.151000
     47 H822        3.0840    0.8360    0.7030 hn        1 AXI      0.453800
@<TRIPOS>BOND
     1    1    2 2   
     2    2    3 1   
     3    2    5 1   
     4    3    4 1   
     5    3   29 1   
     6    3   47 1   
     7    4   30 1   
     8    4   31 1   
     9    4   32 1   
    10    5    6 ar  
    11    5    9 ar  
    12    6    7 ar  
    13    6   33 1   
    14    7    8 ar  
    15    7   34 1   
    16    8   10 ar  
    17    8   35 1   
    18    9   10 ar  
    19    9   11 1   
    20   10   36 1   
    21   11   12 1   
    22   12   13 ar  
    23   12   15 ar  
    24   13   14 ar  
    25   13   37 1   
    26   14   20 ar  
    27   14   39 1   
    28   15   16 ar  
    29   15   38 1   
    30   16   17 2   
    31   16   20 ar  
    32   17   18 1   
    33   18   19 1   
    34   18   40 1   
    35   19   20 2   
    36   19   21 1   
    37   21   22 2   
    38   21   41 1   
    39   22   23 1   
    40   22   42 1   
    41   23   24 ar  
    42   23   28 ar  
    43   24   25 ar  
    44   25   26 ar  
    45   25   44 1   
    46   26   27 ar  
    47   26   45 1   
    48   27   28 ar  
    49   27   46 1   
    50   28   43 1   
@<TRIPOS>SUBSTRUCTURE
     1 AXI         1 TEMP              0 ****  ****    0 ROOT
