@<TRIPOS>MOLECULE
AXI
   47    50     1     0     0
SMALL
bcc


@<TRIPOS>ATOM
      1 O81         0.3910    1.1490   -0.2950 o         1 AXI     -0.446100
      2 C80         1.3420    0.3720   -0.3150 c         1 AXI      0.550700
      3 N82         2.1870    0.3870    0.9620 n4        1 AXI     -0.669800
      4 C88         1.7320    1.3850    1.9520 c3        1 AXI      0.085100
      5 C23         1.7680   -0.5290   -1.3630 ca        1 AXI     -0.231600
      6 C22         2.8640   -1.4150   -1.2000 ca        1 AXI     -0.091000
      7 C21         3.2540   -2.2540   -2.2180 ca        1 AXI     -0.137000
      8 C20         2.5560   -2.2380   -3.4440 ca        1 AXI     -0.037000
      9 C18         1.0540   -0.5130   -2.5900 ca        1 AXI      0.043900
     10 C19         1.4860   -1.3900   -3.6170 ca        1 AXI     -0.158000
     11 S24        -0.2460    0.5090   -2.7850 ss        1 AXI      0.092200
     12 C07        -0.8180    0.3040   -4.3680 ca        1 AXI     -0.149100
     13 C08        -1.7520   -0.7390   -4.6430 ca        1 AXI     -0.120000
     14 C09        -2.3660   -0.8560   -5.8640 ca        1 AXI     -0.069000
     15 C12        -0.4820    1.2370   -5.3270 ca        1 AXI      0.022000
     16 C11        -1.0960    1.1480   -6.5990 ca        1 AXI     -0.123000
     17 N15        -0.9590    1.9410   -7.7270 nc        1 AXI     -0.243400
     18 N14        -1.7580    1.4300   -8.6360 na        1 AXI      0.112800
     19 C13        -2.4620    0.2980   -8.2210 cc        1 AXI     -0.076100
     20 C10        -2.0570    0.0800   -6.8700 ca        1 AXI     -0.095000
     21 C16        -3.4370   -0.4600   -8.9560 ce        1 AXI     -0.079000
     22 C17        -3.6140   -0.6570  -10.2690 cf        1 AXI     -0.212800
     23 C02        -2.8620   -0.1820  -11.4310 ca        1 AXI      0.453100
     24 N03        -2.1830    0.9930  -11.4070 nb        1 AXI     -0.716000
     25 C04        -1.5430    1.3800  -12.5230 ca        1 AXI      0.407200
     26 C05        -1.5340    0.6350  -13.7170 ca        1 AXI     -0.231300
     27 C06        -2.2280   -0.5750  -13.7410 ca        1 AXI     -0.082000
     28 C01        -2.9040   -0.9910  -12.5940 ca        1 AXI     -0.226300
     29 H82         2.1490   -0.5510    1.3760 hn        1 AXI      0.453800
     30 H881        1.7760    2.4110    1.4960 hx        1 AXI      0.109367
     31 H882        2.3940    1.3350    2.8570 hx        1 AXI      0.109367
     32 H883        0.6670    1.1680    2.2400 hx        1 AXI      0.109367
     33 H22         3.4270   -1.4610   -0.2560 ha        1 AXI      0.112000
     34 H21         4.1060   -2.9390   -2.0860 ha        1 AXI      0.160000
     35 H20         2.8740   -2.9110   -4.2580 ha        1 AXI      0.164000
     36 H19         0.9370   -1.3870   -4.5770 ha        1 AXI      0.175000
     37 H08        -1.9870   -1.4530   -3.8380 ha        1 AXI      0.140000
     38 H12         0.2390    2.0460   -5.1240 ha        1 AXI      0.156000
     39 H09        -3.0930   -1.6570   -6.0670 ha        1 AXI      0.147000
     40 H14        -1.8120    1.8390   -9.5570 hn        1 AXI      0.370700
     41 H16        -4.1360   -0.9820   -8.2670 ha        1 AXI      0.142000
     42 H17        -4.4580   -1.3140  -10.5660 ha        1 AXI      0.141000
     43 H01        -3.4630   -1.9370  -12.5870 ha        1 AXI      0.151000
     44 H04        -1.0100    2.3460  -12.4570 h4        1 AXI      0.027100
     45 H05        -0.9950    1.0040  -14.6000 ha        1 AXI      0.156000
     46 H06        -2.2470   -1.1920  -14.6520 ha        1 AXI      0.151000
     47 H822        3.1580    0.5820    0.6960 hn        1 AXI      0.453800
@<TRIPOS>BOND
     1    1    2 2   
     2    2    3 1   
     3    2    5 1   
     4    3    4 1   
     5    3   29 1   
     6    3   47 1   
     7    4   30 1   
     8    4   31 1   
     9    4   32 1   
    10    5    6 ar  
    11    5    9 ar  
    12    6    7 ar  
    13    6   33 1   
    14    7    8 ar  
    15    7   34 1   
    16    8   10 ar  
    17    8   35 1   
    18    9   10 ar  
    19    9   11 1   
    20   10   36 1   
    21   11   12 1   
    22   12   13 ar  
    23   12   15 ar  
    24   13   14 ar  
    25   13   37 1   
    26   14   20 ar  
    27   14   39 1   
    28   15   16 ar  
    29   15   38 1   
    30   16   17 2   
    31   16   20 ar  
    32   17   18 1   
    33   18   19 1   
    34   18   40 1   
    35   19   20 2   
    36   19   21 1   
    37   21   22 2   
    38   21   41 1   
    39   22   23 1   
    40   22   42 1   
    41   23   24 ar  
    42   23   28 ar  
    43   24   25 ar  
    44   25   26 ar  
    45   25   44 1   
    46   26   27 ar  
    47   26   45 1   
    48   27   28 ar  
    49   27   46 1   
    50   28   43 1   
@<TRIPOS>SUBSTRUCTURE
     1 AXI         1 TEMP              0 ****  ****    0 ROOT
