@<TRIPOS>MOLECULE
AXI
   46    38     1     0     0
SMALL
bcc


@<TRIPOS>ATOM
      1 O81        -1.6080    4.6810    2.8740 o         1 AXI     -0.365000
      2 C80        -0.5340    5.0280    2.4240 c1        1 AXI      0.338000
      3 N82         0.4800    5.4990    3.2960 n2        1 AXI     -0.371000
      4 C88         0.1300    6.0800    4.5470 c3        1 AXI     -0.079000
      5 C23        -0.3010    5.0180    0.9280 c2        1 AXI     -0.107000
      6 C22        -0.1610    6.2140    0.2420 c1        1 AXI     -0.072000
      7 C21        -0.0350    6.2100   -1.1390 c1        1 AXI     -0.115000
      8 C20        -0.0490    5.0110   -1.8330 c1        1 AXI     -0.115000
      9 C18        -0.3150    3.8180    0.2340 c2        1 AXI     -0.220000
     10 C19        -0.1890    3.8150   -1.1470 c1        1 AXI     -0.144000
     11 S24        -0.4570    2.2850    1.1160 ss        1 AXI      0.335000
     12 C07        -0.0440    0.9420    0.0350 c2        1 AXI     -0.280000
     13 C08         1.0100    0.3920   -0.6750 c2        1 AXI     -0.121000
     14 C09         0.9490   -0.9270   -1.0950 c1        1 AXI     -0.084000
     15 C12        -1.1590    0.1740    0.3250 c1        1 AXI     -0.024000
     16 C11        -1.2210   -1.1680   -0.1020 c1        1 AXI     -0.102000
     17 N15        -2.1850   -2.1290    0.0350 n1        1 AXI     -0.078000
     18 N14        -1.7380   -3.2740   -0.5850 n2        1 AXI     -0.057000
     19 C13        -0.5110   -3.0200   -1.0990 c1        1 AXI     -0.071000
     20 C10        -0.1850   -1.7080   -0.8000 c1        1 AXI     -0.102000
     21 C16        -0.2860   -3.4540   -2.5310 c1        1 AXI     -0.115000
     22 C17         0.1780   -4.6920   -2.7960 c1        1 AXI     -0.115000
     23 C02         0.4750   -5.6490   -1.6600 c1        1 AXI      0.026000
     24 N03         1.3710   -5.3010   -0.6930 n2        1 AXI     -0.178000
     25 C04         1.7110   -6.1950    0.2770 c1        1 AXI     -0.059000
     26 C05         1.1470   -7.4600    0.2820 c1        1 AXI     -0.115000
     27 C06         0.2490   -7.8110   -0.6850 c1        1 AXI     -0.115000
     28 C01        -0.0910   -6.9150   -1.6560 c1        1 AXI     -0.169000
     29 H82         1.3580    5.4140    3.0620 hn        1 AXI      0.234000
     30 H881       -0.8040    6.3810    4.5170 h1        1 AXI      0.083000
     31 H882        0.2360    5.4140    5.2590 h1        1 AXI      0.083000
     32 H883        0.7150    6.8470    4.7260 h1        1 AXI      0.083000
     33 H22        -0.1510    7.0590    0.7300 ha        1 AXI      0.155000
     34 H21         0.0630    7.0520   -1.6220 ha        1 AXI      0.140167
     35 H20         0.0390    5.0080   -2.8050 ha        1 AXI      0.140167
     36 H19        -0.1990    2.9690   -1.6360 ha        1 AXI      0.146000
     37 H08         1.7940    0.9350   -0.8830 ha        1 AXI      0.140000
     38 H12        -1.8900    0.5530    0.8490 ha        1 AXI      0.160000
     39 H09         1.6920   -1.3150   -1.5950 ha        1 AXI      0.135000
     40 H14        -2.1940   -4.0600   -0.6530 DU        1 AXI      0.306000
     41 H16        -0.4770   -2.8380   -3.2630 ha        1 AXI      0.140167
     42 H17         0.3230   -4.9710   -3.7200 ha        1 AXI      0.140167
     43 H01        -0.7330   -7.1650   -2.3480 ha        1 AXI      0.147000
     44 H04         2.3530   -5.9440    0.9680 ha        1 AXI      0.162000
     45 H05         1.3910   -8.1010    0.9770 ha        1 AXI      0.140167
     46 H06        -0.1490   -8.7020   -0.6810 ha        1 AXI      0.140167
@<TRIPOS>BOND
     1    1    2 1   
     2    2    5 1   
     3    3    4 1   
     4    3   29 1   
     5    4   30 1   
     6    4   31 1   
     7    4   32 1   
     8    5    6 1   
     9    5    9 1   
    10    6   33 1   
    11    7    8 1   
    12    7   34 1   
    13    8   35 1   
    14    9   10 1   
    15    9   11 1   
    16   10   36 1   
    17   11   12 1   
    18   12   13 1   
    19   12   15 1   
    20   13   14 1   
    21   13   37 1   
    22   14   39 1   
    23   15   38 1   
    24   16   20 1   
    25   17   18 1   
    26   18   19 1   
    27   19   20 1   
    28   21   22 1   
    29   21   41 1   
    30   22   42 1   
    31   23   24 1   
    32   23   28 1   
    33   24   25 1   
    34   25   44 1   
    35   26   27 1   
    36   26   45 1   
    37   27   46 1   
    38   28   43 1   
@<TRIPOS>SUBSTRUCTURE
     1 AXI         1 TEMP              0 ****  ****    0 ROOT
