@<TRIPOS>MOLECULE
AXL
   45    43     1     0     0
SMALL
bcc


@<TRIPOS>ATOM
      1 C1         -1.7000   -1.0870    0.4630 c1        1 AXL      0.198000
      2 O1         -2.4320   -0.1810    0.8150 o         1 AXL     -0.290000
      3 C2         -0.2110   -0.8860    0.4450 c2        1 AXL     -0.042000
      4 C3          0.3200   -0.8410    1.8910 c3        1 AXL     -0.115000
      5 S4         -0.7100   -0.5390    2.7630 ss        1 AXL     -0.145000
      6 C5         -0.3430   -1.3750    4.1700 c3        1 AXL     -0.105000
      7 C51        -1.5560   -2.1420    4.6490 c3        1 AXL     -0.201000
      8 C52         0.1180   -0.4110    5.2400 c3        1 AXL     -0.201000
      9 C6          0.9070   -2.4490    3.7780 c3        1 AXL     -0.119000
     10 C61         2.0860   -2.0280    4.3750 c2        1 AXL      0.368000
     11 O62         2.4080   -2.4660    5.5110 o         1 AXL     -0.573000
     12 O63         2.8400   -1.2150    3.7770 o         1 AXL     -0.573000
     13 N7          0.9150   -2.3930    2.3480 n3        1 AXL     -0.223000
     14 N8          0.0910    0.3280   -0.2040 n         1 AXL     -0.328000
     15 C9         -0.0630    0.4380   -1.6100 c2        1 AXL      0.262000
     16 O91         0.0730   -0.5430   -2.3140 o         1 AXL     -0.388000
     17 C10        -0.4280    1.7670   -2.2280 c3        1 AXL      0.003000
     18 N11        -1.8440    1.9100   -2.2450 n3        1 AXL     -0.317000
     19 C12         0.1000    1.8270   -3.6420 c2        1 AXL     -0.163000
     20 C13         0.9360    2.8640   -4.0260 c2        1 AXL     -0.092000
     21 C14         1.3840    2.9460   -5.3350 c1        1 AXL     -0.184000
     22 C15         0.9960    1.9900   -6.2610 c1        1 AXL      0.128000
     23 C16         0.1600    0.9530   -5.8770 c1        1 AXL     -0.165000
     24 C17        -0.2870    0.8710   -4.5680 c1        1 AXL     -0.110000
     25 O18         1.4760    2.0540   -7.5820 oh        1 AXL     -0.285000
     26 HC1        -2.0790   -1.9520    0.2120 ha        1 AXL      0.089000
     27 HC2         0.2120   -1.6260   -0.0340 h4        1 AXL      0.149000
     28 HC3         1.0300   -0.1740    1.9670 h2        1 AXL      0.186000
     29 H511       -1.3840   -2.4980    5.5460 hc        1 AXL      0.081833
     30 H512       -2.3310   -1.5430    4.6780 hc        1 AXL      0.081833
     31 H513       -1.7380   -2.8830    4.0340 hc        1 AXL      0.081833
     32 H521       -0.6080    0.2100    5.4560 hc        1 AXL      0.081833
     33 H522        0.3690   -0.9110    6.0440 hc        1 AXL      0.081833
     34 H523        0.8930    0.0940    4.9140 hc        1 AXL      0.081833
     35 HC6         0.8440   -3.3700    4.1000 h1        1 AXL      0.108000
     36 HN7         0.3640   -3.0410    2.0150 hn        1 AXL      0.123000
     37 HN8         0.3580    1.0510    0.2830 hn        1 AXL      0.231000
     38 H10        -0.0340    2.4910   -1.7020 h1        1 AXL      0.116000
     39 H111       -2.1700    1.8180   -1.3940 hn        1 AXL      0.150500
     40 H112       -2.0640    2.7380   -2.5680 hn        1 AXL      0.150500
     41 H13         1.1990    3.5450   -3.3770 ha        1 AXL      0.123000
     42 H14         1.9720    3.6760   -5.6050 ha        1 AXL      0.138000
     43 H16        -0.1130    0.2790   -6.5290 ha        1 AXL      0.187000
     44 H17        -0.8840    0.1460   -4.3000 ha        1 AXL      0.134000
     45 H18O        0.9300    2.5580   -8.0710 ho        1 AXL      0.282000
@<TRIPOS>BOND
     1    1    2 1   
     2    1   26 1   
     3    3    4 1   
     4    3   14 1   
     5    3   27 1   
     6    4    5 1   
     7    4   13 1   
     8    4   28 1   
     9    5    6 1   
    10    6    7 1   
    11    6    8 1   
    12    6    9 1   
    13    7   29 1   
    14    7   30 1   
    15    7   31 1   
    16    8   32 1   
    17    8   33 1   
    18    8   34 1   
    19    9   10 1   
    20    9   13 1   
    21    9   35 1   
    22   10   11 1   
    23   10   12 1   
    24   13   36 1   
    25   14   15 1   
    26   14   37 1   
    27   15   16 1   
    28   15   17 1   
    29   17   18 1   
    30   17   19 1   
    31   17   38 1   
    32   18   39 1   
    33   18   40 1   
    34   19   20 1   
    35   19   24 1   
    36   20   21 1   
    37   20   41 1   
    38   21   42 1   
    39   22   23 1   
    40   22   25 1   
    41   23   43 1   
    42   24   44 1   
    43   25   45 1   
@<TRIPOS>SUBSTRUCTURE
     1 AXL         1 TEMP              0 ****  ****    0 ROOT
