@<TRIPOS>MOLECULE
AXL
   47    48     1     0     0
SMALL
bcc


@<TRIPOS>ATOM
      1 C1          0.2090   -1.3710   -0.5520 c         1 AXL      0.588900
      2 O1         -0.1170   -1.3670   -1.7340 o         1 AXL     -0.486100
      3 C2          1.6840   -1.2290   -0.1460 c3        1 AXL      0.004500
      4 C3          1.8340   -0.3350    1.0810 c3        1 AXL      0.211600
      5 S4          0.7600    1.1310    0.9070 ss        1 AXL     -0.469200
      6 C5          0.4300    1.2590    2.7540 c3        1 AXL      0.172100
      7 C51        -1.0050    0.8750    2.9870 c3        1 AXL     -0.103100
      8 C52         0.7170    2.6640    3.2020 c3        1 AXL     -0.103100
      9 C6          1.4270    0.2250    3.3140 c3        1 AXL      0.000500
     10 C61         2.8050    0.9310    3.5830 c         1 AXL      0.906600
     11 O62         3.0580    1.2930    4.7430 o         1 AXL     -0.820800
     12 O63         3.5910    1.1130    2.5840 o         1 AXL     -0.820800
     13 N7          1.4990   -0.9130    2.3770 n3        1 AXL     -0.767200
     14 N8          2.5580   -0.7200   -1.2800 n4        1 AXL     -0.664800
     15 C9          2.7460    0.7760   -1.3390 c         1 AXL      0.520100
     16 O91         2.0090    1.3850   -2.0990 o         1 AXL     -0.381100
     17 C10         3.9120    1.4060   -0.5420 c3        1 AXL      0.166800
     18 N11         3.3940    2.5090    0.3250 n4        1 AXL     -0.886600
     19 C12         4.9520    1.8740   -1.5090 ca        1 AXL     -0.270300
     20 C13         6.2800    1.4520   -1.3250 ca        1 AXL     -0.055500
     21 C14         7.2790    1.8870   -2.1820 ca        1 AXL     -0.182000
     22 C15         6.9500    2.7670   -3.2360 ca        1 AXL      0.199100
     23 C16         5.6240    3.2010   -3.4190 ca        1 AXL     -0.182000
     24 C17         4.6350    2.7540   -2.5530 ca        1 AXL     -0.055500
     25 O18         7.9790    3.1530   -4.0400 oh        1 AXL     -0.459100
     26 HC1        -0.4720   -1.5040    0.3150 h4        1 AXL      0.105200
     27 HC2         2.0550   -2.2770    0.0900 hx        1 AXL      0.136700
     28 HC3         2.9120    0.0060    1.1360 h2        1 AXL      0.104700
     29 H511       -1.2000   -0.1780    2.6690 hc        1 AXL      0.066200
     30 H512       -1.6940    1.5540    2.4270 hc        1 AXL      0.066200
     31 H513       -1.2370    0.9620    4.0800 hc        1 AXL      0.066200
     32 H521        1.7010    3.0220    2.8100 hc        1 AXL      0.066200
     33 H522       -0.0890    3.3620    2.8710 hc        1 AXL      0.066200
     34 H523        0.7790    2.6840    4.3230 hc        1 AXL      0.066200
     35 HC6         1.0420   -0.1780    4.2950 h1        1 AXL      0.129700
     36 HN7         2.2170   -1.5510    2.6760 hn        1 AXL      0.390800
     37 HN8         3.4780   -1.1650   -1.2120 hn        1 AXL      0.475800
     38 H10         4.3780    0.6450    0.1680 hx        1 AXL      0.153700
     39 H111        2.3890    2.2890    0.6410 hn        1 AXL      0.488467
     40 H112        3.4470    3.4050   -0.1560 hn        1 AXL      0.488467
     41 H13         6.5430    0.7820   -0.4900 ha        1 AXL      0.152000
     42 H14         8.3260    1.5670   -2.0510 ha        1 AXL      0.175500
     43 H16         5.3730    3.8910   -4.2400 ha        1 AXL      0.175500
     44 H17         3.5950    3.0890   -2.7040 ha        1 AXL      0.152000
     45 H18O        7.6450    3.7680   -4.7140 ho        1 AXL      0.447000
     46 H82         2.0950   -1.0150   -2.1610 hn        1 AXL      0.475800
     47 H113        3.9570    2.5260    1.2080 hn        1 AXL      0.488467
@<TRIPOS>BOND
     1    1    2 2   
     2    1    3 1   
     3    1   26 1   
     4    3    4 1   
     5    3   14 1   
     6    3   27 1   
     7    4    5 1   
     8    4   13 1   
     9    4   28 1   
    10    5    6 1   
    11    6    7 1   
    12    6    8 1   
    13    6    9 1   
    14    7   29 1   
    15    7   30 1   
    16    7   31 1   
    17    8   32 1   
    18    8   33 1   
    19    8   34 1   
    20    9   10 1   
    21    9   13 1   
    22    9   35 1   
    23   10   11 1   
    24   10   12 1   
    25   13   36 1   
    26   14   15 1   
    27   14   37 1   
    28   14   46 1   
    29   15   16 2   
    30   15   17 1   
    31   17   18 1   
    32   17   19 1   
    33   17   38 1   
    34   18   39 1   
    35   18   40 1   
    36   18   47 1   
    37   19   20 ar  
    38   19   24 ar  
    39   20   21 ar  
    40   20   41 1   
    41   21   22 ar  
    42   21   42 1   
    43   22   23 ar  
    44   22   25 1   
    45   23   24 ar  
    46   23   43 1   
    47   24   44 1   
    48   25   45 1   
@<TRIPOS>SUBSTRUCTURE
     1 AXL         1 TEMP              0 ****  ****    0 ROOT
