@<TRIPOS>MOLECULE
AXL
   47    48     1     0     0
SMALL
bcc


@<TRIPOS>ATOM
      1 C1          0.1410   -1.3430   -0.4810 c         1 AXL      0.588900
      2 O1         -0.1860   -1.3530   -1.6620 o         1 AXL     -0.487100
      3 C2          1.6190   -1.2330   -0.0780 c3        1 AXL      0.004500
      4 C3          1.7940   -0.3190    1.1320 c3        1 AXL      0.211600
      5 S4          0.7590    1.1710    0.9300 ss        1 AXL     -0.469200
      6 C5          0.4330    1.3420    2.7750 c3        1 AXL      0.172100
      7 C51        -1.0110    1.0000    3.0150 c3        1 AXL     -0.103100
      8 C52         0.7570    2.7470    3.1960 c3        1 AXL     -0.103100
      9 C6          1.4030    0.2930    3.3540 c3        1 AXL      0.000500
     10 C61         2.7990    0.9680    3.6090 c         1 AXL      0.906600
     11 O62         3.0620    1.3450    4.7620 o         1 AXL     -0.820800
     12 O63         3.5900    1.1100    2.6070 o         1 AXL     -0.820800
     13 N7          1.4440   -0.8640    2.4380 n3        1 AXL     -0.767200
     14 N8          2.5060   -0.7670   -1.2210 n4        1 AXL     -0.664800
     15 C9          2.7330    0.7210   -1.3090 c         1 AXL      0.520100
     16 O91         2.0120    1.3350   -2.0800 o         1 AXL     -0.381100
     17 C10         3.9160    1.3350   -0.5240 c3        1 AXL      0.166800
     18 N11         3.4280    2.4670    0.3220 n4        1 AXL     -0.886600
     19 C12         4.9670    1.7580   -1.5000 ca        1 AXL     -0.270300
     20 C13         6.2840    1.3040   -1.3090 ca        1 AXL     -0.055500
     21 C14         7.2930    1.6960   -2.1740 ca        1 AXL     -0.182000
     22 C15         6.9870    2.5650   -3.2440 ca        1 AXL      0.199100
     23 C16         5.6720    3.0300   -3.4340 ca        1 AXL     -0.182000
     24 C17         4.6730    2.6260   -2.5600 ca        1 AXL     -0.055500
     25 O18         8.0250    2.9080   -4.0550 oh        1 AXL     -0.459100
     26 HC1        -0.5430   -1.4410    0.3890 h4        1 AXL      0.105200
     27 HC2         1.9630   -2.2850    0.1780 hx        1 AXL      0.136700
     28 HC3         2.8810   -0.0060    1.1800 h2        1 AXL      0.104700
     29 H511       -1.2340   -0.0520    2.7160 hc        1 AXL      0.066200
     30 H512       -1.6820    1.6870    2.4420 hc        1 AXL      0.066200
     31 H513       -1.2400    1.1130    4.1060 hc        1 AXL      0.066200
     32 H521        1.7500    3.0720    2.7970 hc        1 AXL      0.066200
     33 H522       -0.0300    3.4600    2.8520 hc        1 AXL      0.066200
     34 H523        0.8210    2.7870    4.3160 hc        1 AXL      0.066200
     35 HC6         1.0080   -0.0810    4.3430 h1        1 AXL      0.129700
     36 HN7         2.1460   -1.5140    2.7490 hn        1 AXL      0.390800
     37 HN8         2.0350   -1.0680   -2.0970 hn        1 AXL      0.475800
     38 H10         4.3630    0.5760    0.1990 hx        1 AXL      0.153700
     39 H111        3.9920    2.4860    1.2040 hn        1 AXL      0.488467
     40 H112        2.4170    2.2800    0.6420 hn        1 AXL      0.488467
     41 H13         6.5290    0.6420   -0.4610 ha        1 AXL      0.152000
     42 H14         8.3310    1.3510   -2.0380 ha        1 AXL      0.175500
     43 H16         5.4390    3.7110   -4.2680 ha        1 AXL      0.175500
     44 H17         3.6420    2.9850   -2.7180 ha        1 AXL      0.152000
     45 H18O        7.7070    3.5190   -4.7410 ho        1 AXL      0.447000
     46 H82         3.4140   -1.2350   -1.1460 hn        1 AXL      0.475800
     47 H113        3.5040    3.3520   -0.1760 hn        1 AXL      0.488467
@<TRIPOS>BOND
     1    1    2 2   
     2    1    3 1   
     3    1   26 1   
     4    3    4 1   
     5    3   14 1   
     6    3   27 1   
     7    4    5 1   
     8    4   13 1   
     9    4   28 1   
    10    5    6 1   
    11    6    7 1   
    12    6    8 1   
    13    6    9 1   
    14    7   29 1   
    15    7   30 1   
    16    7   31 1   
    17    8   32 1   
    18    8   33 1   
    19    8   34 1   
    20    9   10 1   
    21    9   13 1   
    22    9   35 1   
    23   10   11 1   
    24   10   12 1   
    25   13   36 1   
    26   14   15 1   
    27   14   37 1   
    28   14   46 1   
    29   15   16 2   
    30   15   17 1   
    31   17   18 1   
    32   17   19 1   
    33   17   38 1   
    34   18   39 1   
    35   18   40 1   
    36   18   47 1   
    37   19   20 ar  
    38   19   24 ar  
    39   20   21 ar  
    40   20   41 1   
    41   21   22 ar  
    42   21   42 1   
    43   22   23 ar  
    44   22   25 1   
    45   23   24 ar  
    46   23   43 1   
    47   24   44 1   
    48   25   45 1   
@<TRIPOS>SUBSTRUCTURE
     1 AXL         1 TEMP              0 ****  ****    0 ROOT
