@<TRIPOS>MOLECULE
AXL
   47    48     1     0     0
SMALL
bcc


@<TRIPOS>ATOM
      1 C1         -0.1090    0.1840   -0.4060 c         1 AXL      0.631900
      2 O1         -0.1540    1.0180   -1.3220 o         1 AXL     -0.607100
      3 C2          1.1460   -0.6840   -0.2110 c3        1 AXL     -0.004500
      4 C3          1.9280   -0.1120    0.9860 c3        1 AXL      0.214600
      5 S4          1.0630    1.4160    1.4580 ss        1 AXL     -0.523200
      6 C5          1.3990    1.1650    3.3050 c3        1 AXL      0.207100
      7 C51         0.0830    0.8750    3.9700 c3        1 AXL     -0.106100
      8 C52         2.0420    2.4170    3.8250 c3        1 AXL     -0.106100
      9 C6          2.3430   -0.0520    3.2870 c3        1 AXL     -0.013500
     10 C61         3.8470    0.4220    3.2060 c         1 AXL      0.908600
     11 O62         4.4090    0.7340    4.2720 o         1 AXL     -0.808300
     12 O63         4.3830    0.4510    2.0500 o         1 AXL     -0.808300
     13 N7          1.9700   -0.9490    2.1750 n7        1 AXL     -0.766200
     14 N8          2.0420   -0.7270   -1.4320 ny        1 AXL     -0.654800
     15 C9          2.0650    0.5490   -2.2150 c         1 AXL      0.545100
     16 O91         1.7020    0.4900   -3.3830 o         1 AXL     -0.427100
     17 C10         2.6120    1.8040   -1.5180 c3        1 AXL      0.142800
     18 N11         1.9140    3.0110   -2.0910 nz        1 AXL     -0.838600
     19 C12         4.0860    1.8620   -1.7020 ca        1 AXL     -0.312300
     20 C13         4.9170    1.8880   -0.5700 ca        1 AXL     -0.052500
     21 C14         6.2970    1.9440   -0.7270 ca        1 AXL     -0.182000
     22 C15         6.8510    1.9850   -2.0170 ca        1 AXL      0.204100
     23 C16         6.0160    1.9590   -3.1620 ca        1 AXL     -0.182000
     24 C17         4.6470    1.8940   -2.9940 ca        1 AXL     -0.052500
     25 O18         8.1880    2.0450   -2.2560 oh        1 AXL     -0.462100
     26 HC1        -0.9500   -0.0540    0.2780 h4        1 AXL      0.107200
     27 HC2         0.8230   -1.7540   -0.0180 hx        1 AXL      0.151700
     28 HC3         2.9890    0.1850    0.6910 h2        1 AXL      0.133700
     29 H511       -0.6400    1.7100    3.8040 hc        1 AXL      0.066367
     30 H512       -0.3650   -0.0740    3.5900 hc        1 AXL      0.066367
     31 H513        0.2480    0.7700    5.0740 hc        1 AXL      0.066367
     32 H521        2.4950    2.2030    4.8300 hc        1 AXL      0.066367
     33 H522        1.2930    3.2390    3.9250 hc        1 AXL      0.066367
     34 H523        2.8750    2.7510    3.1570 hc        1 AXL      0.066367
     35 HC6         2.2120   -0.6350    4.2420 h1        1 AXL      0.120700
     36 HN7         2.6930   -1.6460    2.0770 hn        1 AXL      0.384800
     37 HN8         3.0060   -0.9350   -1.1200 hn        1 AXL      0.481800
     38 H10         2.3430    1.8140   -0.3970 hx        1 AXL      0.188700
     39 H111        0.8980    2.9280   -1.9370 hn        1 AXL      0.476133
     40 H112        2.1030    3.0910   -3.0960 hn        1 AXL      0.476133
     41 H13         4.5080    1.8330    0.4650 ha        1 AXL      0.176500
     42 H14         6.9440    1.9430    0.1680 ha        1 AXL      0.184500
     43 H16         6.4750    1.9880   -4.1630 ha        1 AXL      0.184500
     44 H17         3.9960    1.8520   -3.8820 ha        1 AXL      0.176500
     45 H18O        8.6650    2.0460   -1.4070 ho        1 AXL      0.453000
     46 H82         1.7220   -1.4810   -2.0570 hn        1 AXL      0.481800
     47 H113        2.2760    3.8460   -1.6130 hn        1 AXL      0.476133
@<TRIPOS>BOND
     1    1    2 2   
     2    1    3 1   
     3    1   26 1   
     4    3    4 1   
     5    3   14 1   
     6    3   27 1   
     7    4    5 1   
     8    4   13 1   
     9    4   28 1   
    10    5    6 1   
    11    6    7 1   
    12    6    8 1   
    13    6    9 1   
    14    7   29 1   
    15    7   30 1   
    16    7   31 1   
    17    8   32 1   
    18    8   33 1   
    19    8   34 1   
    20    9   10 1   
    21    9   13 1   
    22    9   35 1   
    23   10   11 1   
    24   10   12 1   
    25   13   36 1   
    26   14   15 1   
    27   14   37 1   
    28   14   46 1   
    29   15   16 2   
    30   15   17 1   
    31   17   18 1   
    32   17   19 1   
    33   17   38 1   
    34   18   39 1   
    35   18   40 1   
    36   18   47 1   
    37   19   20 ar  
    38   19   24 ar  
    39   20   21 ar  
    40   20   41 1   
    41   21   22 ar  
    42   21   42 1   
    43   22   23 ar  
    44   22   25 1   
    45   23   24 ar  
    46   23   43 1   
    47   24   44 1   
    48   25   45 1   
@<TRIPOS>SUBSTRUCTURE
     1 AXL         1 TEMP              0 ****  ****    0 ROOT
