@<TRIPOS>MOLECULE
AXL
   45    46     1     0     0
SMALL
bcc


@<TRIPOS>ATOM
      1 C1         -1.3950   -2.9700   -0.7420 c         1 AXL      0.579900
      2 O1         -1.1280   -3.8030   -1.6050 o         1 AXL     -0.529100
      3 C2         -0.3790   -2.1200    0.0130 c3        1 AXL     -0.015300
      4 C3         -0.9120   -0.6660    0.0840 c3        1 AXL      0.264600
      5 S4         -1.7000   -0.2540   -1.5390 ss        1 AXL     -0.509200
      6 C5         -2.9370    0.8360   -0.7640 c3        1 AXL      0.077100
      7 C51        -4.3010    0.2460   -1.0350 c3        1 AXL     -0.083100
      8 C52        -2.8250    2.2210   -1.3470 c3        1 AXL     -0.083100
      9 C6         -2.6220    0.8140    0.7620 c3        1 AXL      0.028500
     10 C61        -1.8890    2.1350    1.1940 c         1 AXL      0.948600
     11 O62        -2.6030    2.9840    1.7860 o         1 AXL     -0.838300
     12 O63        -0.6640    2.2890    0.9250 o         1 AXL     -0.838300
     13 N7         -1.8780   -0.3930    1.1200 n3        1 AXL     -0.744200
     14 N8          0.9550   -2.1660   -0.5430 n         1 AXL     -0.518900
     15 C9          2.0500   -2.4680    0.2500 c         1 AXL      0.618100
     16 O91         1.9680   -3.2200    1.2420 o         1 AXL     -0.627100
     17 C10         3.4080   -1.8200   -0.1640 c3        1 AXL      0.157800
     18 N11         4.5290   -2.2360    0.6510 n3        1 AXL     -0.884800
     19 C12         3.1500   -0.3360   -0.1400 ca        1 AXL     -0.170300
     20 C13         3.4160    0.4670   -1.2490 ca        1 AXL     -0.101000
     21 C14         2.9420    1.7770   -1.3000 ca        1 AXL     -0.174500
     22 C15         2.1790    2.2730   -0.2300 ca        1 AXL      0.173100
     23 C16         1.9940    1.5020    0.9340 ca        1 AXL     -0.174500
     24 C17         2.4920    0.2100    0.9740 ca        1 AXL     -0.101000
     25 O18         1.6360    3.5230   -0.3540 oh        1 AXL     -0.531100
     26 HC1        -2.4410   -2.8020   -0.3980 h4        1 AXL     -0.003800
     27 HC2        -0.3310   -2.5530    1.0640 h1        1 AXL      0.109700
     28 HC3        -0.0760    0.0850    0.2310 h2        1 AXL      0.146700
     29 H511       -4.3940   -0.7640   -0.5690 hc        1 AXL      0.042533
     30 H512       -5.0940    0.9090   -0.6080 hc        1 AXL      0.042533
     31 H513       -4.4770    0.1480   -2.1330 hc        1 AXL      0.042533
     32 H521       -3.1590    2.2280   -2.4120 hc        1 AXL      0.042533
     33 H522       -3.4600    2.9290   -0.7570 hc        1 AXL      0.042533
     34 H523       -1.7650    2.5790   -1.2910 hc        1 AXL      0.042533
     35 HC6        -3.5960    0.8040    1.3310 h1        1 AXL      0.068700
     36 HN7        -2.5160   -1.1660    1.2170 hn        1 AXL      0.327800
     37 HN8         1.1110   -1.5360   -1.3010 hn        1 AXL      0.317500
     38 H10         3.6390   -2.1550   -1.2200 h1        1 AXL      0.076700
     39 H111        4.5610   -1.7000    1.4980 hn        1 AXL      0.355300
     40 H112        4.4280   -3.2050    0.8950 hn        1 AXL      0.355300
     41 H13         3.9760    0.0570   -2.1030 ha        1 AXL      0.128500
     42 H14         3.1210    2.4090   -2.1790 ha        1 AXL      0.162500
     43 H16         1.3760    1.9020    1.7560 ha        1 AXL      0.162500
     44 H17         2.3240   -0.4130    1.8670 ha        1 AXL      0.128500
     45 H18O        0.8280    3.5490    0.2030 ho        1 AXL      0.483000
@<TRIPOS>BOND
     1    1    2 2   
     2    1    3 1   
     3    1   26 1   
     4    3    4 1   
     5    3   14 1   
     6    3   27 1   
     7    4    5 1   
     8    4   13 1   
     9    4   28 1   
    10    5    6 1   
    11    6    7 1   
    12    6    8 1   
    13    6    9 1   
    14    7   29 1   
    15    7   30 1   
    16    7   31 1   
    17    8   32 1   
    18    8   33 1   
    19    8   34 1   
    20    9   10 1   
    21    9   13 1   
    22    9   35 1   
    23   10   11 1   
    24   10   12 1   
    25   13   36 1   
    26   14   15 1   
    27   14   37 1   
    28   15   16 2   
    29   15   17 1   
    30   17   18 1   
    31   17   19 1   
    32   17   38 1   
    33   18   39 1   
    34   18   40 1   
    35   19   20 ar  
    36   19   24 ar  
    37   20   21 ar  
    38   20   41 1   
    39   21   22 ar  
    40   21   42 1   
    41   22   23 ar  
    42   22   25 1   
    43   23   24 ar  
    44   23   43 1   
    45   24   44 1   
    46   25   45 1   
@<TRIPOS>SUBSTRUCTURE
     1 AXL         1 TEMP              0 ****  ****    0 ROOT
