@<TRIPOS>MOLECULE
AXM
   35    37     1     0     0
SMALL
bcc


@<TRIPOS>ATOM
      1 O28         1.8120   -1.7400    0.5880 o         1 AXM     -0.397100
      2 C27         1.7440   -0.6910   -0.0220 c         1 AXM      0.561100
      3 N29         1.0440    0.4440    0.7650 n4        1 AXM     -0.475300
      4 O30         0.9870    0.2510    2.1000 oh        1 AXM     -0.358300
      5 C26         2.2360   -0.3180   -1.3840 c3        1 AXM     -0.154400
      6 C5          1.1270   -0.1380   -2.4230 c3        1 AXM     -0.062000
      7 C4          0.6060    1.3020   -2.4350 c3        1 AXM     -0.067733
      8 C3         -0.4590    1.4610   -3.5180 c3        1 AXM     -0.061367
      9 C9          1.7360   -0.4420   -3.8040 c3        1 AXM     -0.067733
     10 C1          0.6760   -0.2770   -4.8870 c3        1 AXM     -0.061367
     11 C8         -0.4750   -1.2410   -4.6240 c3        1 AXM     -0.077067
     12 C2          0.1560    1.1560   -4.8790 c3        1 AXM     -0.077067
     13 C6         -0.0330   -1.1070   -2.1780 c3        1 AXM     -0.067733
     14 C7         -1.0910   -0.9350   -3.2630 c3        1 AXM     -0.061367
     15 C10        -1.6100    0.4980   -3.2480 c3        1 AXM     -0.077067
     16 H1          0.0800    0.5670    0.3940 hn        1 AXM      0.483300
     17 H2          0.9260   -0.7190    2.2870 ho        1 AXM      0.486000
     18 H3          2.9120   -1.1670   -1.7020 hc        1 AXM      0.120700
     19 H4          2.8650    0.6130   -1.3280 hc        1 AXM      0.120700
     20 H5          0.1550    1.5710   -1.4450 hc        1 AXM      0.038700
     21 H6          1.4510    2.0110   -2.6350 hc        1 AXM      0.038700
     22 H7         -0.8390    2.5180   -3.5050 hc        1 AXM      0.074700
     23 H8          2.5910    0.2560   -3.9970 hc        1 AXM      0.038700
     24 H9          2.1270   -1.4920   -3.8200 hc        1 AXM      0.038700
     25 H10         1.1370   -0.5040   -5.8860 hc        1 AXM      0.074700
     26 H11        -0.1040   -2.2980   -4.6480 hc        1 AXM      0.058867
     27 H12        -1.2520   -1.1310   -5.4230 hc        1 AXM      0.058867
     28 H13        -0.6180    1.2840   -5.6790 hc        1 AXM      0.058867
     29 H14         0.9920    1.8700   -5.0910 hc        1 AXM      0.058867
     30 H15        -0.4960   -0.9090   -1.1760 hc        1 AXM      0.038700
     31 H16         0.3460   -2.1620   -2.1830 hc        1 AXM      0.038700
     32 H17        -1.9380   -1.6460   -3.0640 hc        1 AXM      0.074700
     33 H18        -2.0800    0.7280   -2.2580 hc        1 AXM      0.058867
     34 H19        -2.3970    0.6230   -4.0360 hc        1 AXM      0.058867
     35 H292        1.5630    1.3340    0.6300 hn        1 AXM      0.483300
@<TRIPOS>BOND
     1    1    2 2   
     2    2    3 1   
     3    2    5 1   
     4    3    4 1   
     5    3   16 1   
     6    3   35 1   
     7    4   17 1   
     8    5    6 1   
     9    5   18 1   
    10    5   19 1   
    11    6    7 1   
    12    6    9 1   
    13    6   13 1   
    14    7    8 1   
    15    7   20 1   
    16    7   21 1   
    17    8   12 1   
    18    8   15 1   
    19    8   22 1   
    20    9   10 1   
    21    9   23 1   
    22    9   24 1   
    23   10   11 1   
    24   10   12 1   
    25   10   25 1   
    26   11   14 1   
    27   11   26 1   
    28   11   27 1   
    29   12   28 1   
    30   12   29 1   
    31   13   14 1   
    32   13   30 1   
    33   13   31 1   
    34   14   15 1   
    35   14   32 1   
    36   15   33 1   
    37   15   34 1   
@<TRIPOS>SUBSTRUCTURE
     1 AXM         1 TEMP              0 ****  ****    0 ROOT
