@<TRIPOS>MOLECULE
AXM
   34    36     1     0     0
SMALL
bcc


@<TRIPOS>ATOM
      1 O28         2.8340   -0.1990    1.4370 o         1 AXM     -0.563100
      2 C27         2.4330    0.4040    0.4290 c         1 AXM      0.593100
      3 N29         3.1860    0.3380   -0.7870 n         1 AXM     -0.354400
      4 O30         3.9680   -0.7390   -0.9030 oh        1 AXM     -0.441100
      5 C26         1.2600    1.3580    0.4600 c3        1 AXM     -0.150400
      6 C5         -0.0750    0.6550    0.2340 c3        1 AXM     -0.044000
      7 C4         -0.3840   -0.3010    1.3910 c3        1 AXM     -0.069733
      8 C3         -1.7390   -0.9640    1.1710 c3        1 AXM     -0.060367
      9 C9         -1.1770    1.7220    0.1700 c3        1 AXM     -0.069733
     10 C1         -2.5340    1.0600   -0.0420 c3        1 AXM     -0.060367
     11 C8         -2.5180    0.2830   -1.3540 c3        1 AXM     -0.071067
     12 C2         -2.8240    0.1070    1.1120 c3        1 AXM     -0.071067
     13 C6         -0.0750   -0.1340   -1.0790 c3        1 AXM     -0.069733
     14 C7         -1.4350   -0.7890   -1.2950 c3        1 AXM     -0.060367
     15 C10        -1.7240   -1.7430   -0.1400 c3        1 AXM     -0.071067
     16 H1          2.5900    0.3710   -1.6090 hn        1 AXM      0.296500
     17 H2          4.6960   -0.6100   -0.2640 ho        1 AXM      0.435000
     18 H3          1.2490    1.8440    1.4730 hc        1 AXM      0.073700
     19 H4          1.3880    2.1670   -0.3060 hc        1 AXM      0.073700
     20 H5          0.4210   -1.0780    1.4600 hc        1 AXM      0.045200
     21 H6         -0.3930    0.2680    2.3560 hc        1 AXM      0.045200
     22 H7         -1.9500   -1.6660    2.0220 hc        1 AXM      0.051700
     23 H8         -1.1860    2.3080    1.1250 hc        1 AXM      0.045200
     24 H9         -0.9670    2.4320   -0.6700 hc        1 AXM      0.045200
     25 H10        -3.3290    1.8520   -0.0840 hc        1 AXM      0.051700
     26 H11        -3.5170   -0.1960   -1.5240 hc        1 AXM      0.042700
     27 H12        -2.3190    0.9790   -2.2080 hc        1 AXM      0.042700
     28 H13        -3.8250   -0.3730    0.9650 hc        1 AXM      0.042700
     29 H14        -2.8510    0.6750    2.0770 hc        1 AXM      0.042700
     30 H15         0.1570    0.5530   -1.9320 hc        1 AXM      0.045200
     31 H16         0.7110   -0.9310   -1.0420 hc        1 AXM      0.045200
     32 H17        -1.4210   -1.3610   -2.2600 hc        1 AXM      0.051700
     33 H18        -0.9380   -2.5400   -0.0990 hc        1 AXM      0.042700
     34 H19        -2.7140   -2.2410   -0.2980 hc        1 AXM      0.042700
@<TRIPOS>BOND
     1    1    2 2   
     2    2    3 1   
     3    2    5 1   
     4    3    4 1   
     5    3   16 1   
     6    4   17 1   
     7    5    6 1   
     8    5   18 1   
     9    5   19 1   
    10    6    7 1   
    11    6    9 1   
    12    6   13 1   
    13    7    8 1   
    14    7   20 1   
    15    7   21 1   
    16    8   12 1   
    17    8   15 1   
    18    8   22 1   
    19    9   10 1   
    20    9   23 1   
    21    9   24 1   
    22   10   11 1   
    23   10   12 1   
    24   10   25 1   
    25   11   14 1   
    26   11   26 1   
    27   11   27 1   
    28   12   28 1   
    29   12   29 1   
    30   13   14 1   
    31   13   30 1   
    32   13   31 1   
    33   14   15 1   
    34   14   32 1   
    35   15   33 1   
    36   15   34 1   
@<TRIPOS>SUBSTRUCTURE
     1 AXM         1 TEMP              0 ****  ****    0 ROOT
