@<TRIPOS>MOLECULE
AXM
   35    37     1     0     0
SMALL
bcc


@<TRIPOS>ATOM
      1 O28        -0.2170   -0.2750    0.4790 o         1 AXM     -0.376100
      2 C27         0.9400   -0.1590    0.1460 c         1 AXM      0.613100
      3 N29         1.8980   -0.2750    1.4180 ny        1 AXM     -0.499300
      4 O30         2.8190    0.7050    1.3220 oh        1 AXM     -0.360300
      5 C26         1.6750    0.0720   -1.1260 c3        1 AXM     -0.131400
      6 C5          0.7770    0.0260   -2.3650 c3        1 AXM     -0.051000
      7 C4         -0.2810    1.1320   -2.3240 c3        1 AXM     -0.072733
      8 C3         -1.1150    1.0920   -3.6010 c3        1 AXM     -0.058700
      9 C9          1.6840    0.2520   -3.5860 c3        1 AXM     -0.072733
     10 C1          0.8460    0.2160   -4.8590 c3        1 AXM     -0.058700
     11 C8          0.1630   -1.1410   -4.9830 c3        1 AXM     -0.076400
     12 C2         -0.2090    1.3160   -4.8060 c3        1 AXM     -0.076400
     13 C6          0.0920   -1.3360   -2.5010 c3        1 AXM     -0.072733
     14 C7         -0.7430   -1.3650   -3.7770 c3        1 AXM     -0.058700
     15 C10        -1.7980   -0.2660   -3.7200 c3        1 AXM     -0.076400
     16 H1          1.3280   -0.1820    2.2770 hn        1 AXM      0.455800
     17 H2          3.3500    0.7380    2.1500 ho        1 AXM      0.471000
     18 H3          2.1650    1.0870   -1.0540 hc        1 AXM      0.114700
     19 H4          2.4890   -0.6980   -1.2300 hc        1 AXM      0.114700
     20 H5         -0.9500    0.9870   -1.4360 hc        1 AXM      0.045533
     21 H6          0.2180    2.1310   -2.2310 hc        1 AXM      0.045533
     22 H7         -1.8910    1.9020   -3.5570 hc        1 AXM      0.069700
     23 H8          2.4690   -0.5470   -3.6280 hc        1 AXM      0.045533
     24 H9          2.1960    1.2440   -3.4980 hc        1 AXM      0.045533
     25 H10         1.5190    0.3820   -5.7440 hc        1 AXM      0.069700
     26 H11        -0.4440   -1.1750   -5.9240 hc        1 AXM      0.055867
     27 H12         0.9320   -1.9530   -5.0400 hc        1 AXM      0.055867
     28 H13        -0.8190    1.3000   -5.7460 hc        1 AXM      0.055867
     29 H14         0.2850    2.3180   -4.7340 hc        1 AXM      0.055867
     30 H15         0.8640   -2.1470   -2.5380 hc        1 AXM      0.045533
     31 H16        -0.5720   -1.5180   -1.6170 hc        1 AXM      0.045533
     32 H17        -1.2450   -2.3660   -3.8640 hc        1 AXM      0.069700
     33 H18        -2.4230   -0.2940   -4.6500 hc        1 AXM      0.055867
     34 H19        -2.4770   -0.4310   -2.8450 hc        1 AXM      0.055867
     35 H292        2.3520   -1.2020    1.4110 hn        1 AXM      0.455800
@<TRIPOS>BOND
     1    1    2 2   
     2    2    3 1   
     3    2    5 1   
     4    3    4 1   
     5    3   16 1   
     6    3   35 1   
     7    4   17 1   
     8    5    6 1   
     9    5   18 1   
    10    5   19 1   
    11    6    7 1   
    12    6    9 1   
    13    6   13 1   
    14    7    8 1   
    15    7   20 1   
    16    7   21 1   
    17    8   12 1   
    18    8   15 1   
    19    8   22 1   
    20    9   10 1   
    21    9   23 1   
    22    9   24 1   
    23   10   11 1   
    24   10   12 1   
    25   10   25 1   
    26   11   14 1   
    27   11   26 1   
    28   11   27 1   
    29   12   28 1   
    30   12   29 1   
    31   13   14 1   
    32   13   30 1   
    33   13   31 1   
    34   14   15 1   
    35   14   32 1   
    36   15   33 1   
    37   15   34 1   
@<TRIPOS>SUBSTRUCTURE
     1 AXM         1 TEMP              0 ****  ****    0 ROOT
