@<TRIPOS>MOLECULE
AXM
   35    37     1     0     0
SMALL
bcc


@<TRIPOS>ATOM
      1 O28        -0.1980   -0.2250    0.4870 o         1 AXM     -0.376100
      2 C27         0.9570   -0.1310    0.1450 c         1 AXM      0.613100
      3 N29         1.9230   -0.2430    1.4110 n4        1 AXM     -0.499300
      4 O30         2.8570    0.7220    1.2950 oh        1 AXM     -0.360300
      5 C26         1.6860    0.0720   -1.1360 c3        1 AXM     -0.131400
      6 C5          0.7790    0.0230   -2.3680 c3        1 AXM     -0.051000
      7 C4         -0.2620    1.1450   -2.3340 c3        1 AXM     -0.072733
      8 C3         -1.1060    1.1010   -3.6040 c3        1 AXM     -0.058700
      9 C9          1.6800    0.2180   -3.5980 c3        1 AXM     -0.072733
     10 C1          0.8320    0.1780   -4.8650 c3        1 AXM     -0.058700
     11 C8          0.1280   -1.1700   -4.9650 c3        1 AXM     -0.076400
     12 C2         -0.2050    1.2950   -4.8190 c3        1 AXM     -0.076400
     13 C6          0.0720   -1.3300   -2.4810 c3        1 AXM     -0.072733
     14 C7         -0.7730   -1.3640   -3.7500 c3        1 AXM     -0.058700
     15 C10        -1.8110   -0.2480   -3.7000 c3        1 AXM     -0.076400
     16 H1          1.3600   -0.1300    2.2730 hn        1 AXM      0.455800
     17 H2          3.3940    0.7580    2.1190 ho        1 AXM      0.471000
     18 H3          2.4880   -0.7120   -1.2350 hc        1 AXM      0.114700
     19 H4          2.1930    1.0800   -1.0810 hc        1 AXM      0.114700
     20 H5          0.2530    2.1370   -2.2580 hc        1 AXM      0.045533
     21 H6         -0.9270    1.0220   -1.4400 hc        1 AXM      0.045533
     22 H7         -1.8690    1.9230   -3.5650 hc        1 AXM      0.069700
     23 H8          2.4520   -0.5930   -3.6350 hc        1 AXM      0.045533
     24 H9          2.2080    1.2040   -3.5270 hc        1 AXM      0.045533
     25 H10         1.5010    0.3220   -5.7560 hc        1 AXM      0.069700
     26 H11         0.8840   -1.9940   -5.0170 hc        1 AXM      0.055867
     27 H12        -0.4870   -1.2070   -5.9010 hc        1 AXM      0.055867
     28 H13         0.3050    2.2900   -4.7630 hc        1 AXM      0.055867
     29 H14        -0.8230    1.2760   -5.7540 hc        1 AXM      0.055867
     30 H15         0.8310   -2.1540   -2.5120 hc        1 AXM      0.045533
     31 H16        -0.5880   -1.4910   -1.5890 hc        1 AXM      0.045533
     32 H17        -1.2910   -2.3580   -3.8200 hc        1 AXM      0.069700
     33 H18        -2.4850   -0.3910   -2.8180 hc        1 AXM      0.055867
     34 H19        -2.4430   -0.2790   -4.6250 hc        1 AXM      0.055867
     35 H292        2.3640   -1.1770    1.4130 hn        1 AXM      0.455800
@<TRIPOS>BOND
     1    1    2 2   
     2    2    3 1   
     3    2    5 1   
     4    3    4 1   
     5    3   16 1   
     6    3   35 1   
     7    4   17 1   
     8    5    6 1   
     9    5   18 1   
    10    5   19 1   
    11    6    7 1   
    12    6    9 1   
    13    6   13 1   
    14    7    8 1   
    15    7   20 1   
    16    7   21 1   
    17    8   12 1   
    18    8   15 1   
    19    8   22 1   
    20    9   10 1   
    21    9   23 1   
    22    9   24 1   
    23   10   11 1   
    24   10   12 1   
    25   10   25 1   
    26   11   14 1   
    27   11   26 1   
    28   11   27 1   
    29   12   28 1   
    30   12   29 1   
    31   13   14 1   
    32   13   30 1   
    33   13   31 1   
    34   14   15 1   
    35   14   32 1   
    36   15   33 1   
    37   15   34 1   
@<TRIPOS>SUBSTRUCTURE
     1 AXM         1 TEMP              0 ****  ****    0 ROOT
