@<TRIPOS>MOLECULE
AXO
    9     8     1     0     0
SMALL
bcc


@<TRIPOS>ATOM
      1 C1          0.1270   -0.2070    0.1920 c2        1 AXO      0.354200
      2 C2          1.5990    0.0020    0.1560 c3        1 AXO     -0.137400
      3 N          -0.5840    0.0410    1.2550 n2        1 AXO     -0.448200
      4 O1         -1.8750   -0.1910    1.1390 oh        1 AXO     -0.362500
      5 H1         -0.3160   -0.5880   -0.7510 h4        1 AXO     -0.003200
      6 H3          2.0140    0.3850    1.1200 hc        1 AXO      0.053033
      7 H4          2.0970   -0.9710   -0.0840 hc        1 AXO      0.053033
      8 H5          1.8410    0.7370   -0.6520 hc        1 AXO      0.053033
      9 H7         -2.2470    0.0440    2.0120 ho        1 AXO      0.437000
@<TRIPOS>BOND
     1    1    2 1   
     2    1    3 2   
     3    1    5 1   
     4    2    6 1   
     5    2    7 1   
     6    2    8 1   
     7    3    4 1   
     8    4    9 1   
@<TRIPOS>SUBSTRUCTURE
     1 AXO         1 TEMP              0 ****  ****    0 ROOT
