@<TRIPOS>MOLECULE
AXO
    9     8     1     0     0
SMALL
bcc


@<TRIPOS>ATOM
      1 C1          0.2250   -0.4370    0.4630 c2        1 AXO      0.354200
      2 C2          1.5720    0.0670    0.0800 c3        1 AXO     -0.137400
      3 N          -0.7180    0.3540    0.8870 n2        1 AXO     -0.448200
      4 O1         -1.8570   -0.2350    1.1890 oh        1 AXO     -0.362500
      5 H1          0.0880   -1.5340    0.3580 h4        1 AXO     -0.003200
      6 H3          2.3410   -0.4330    0.7200 hc        1 AXO      0.053033
      7 H4          1.7670   -0.1990   -0.9890 hc        1 AXO      0.053033
      8 H5          1.6770    1.1730    0.1960 hc        1 AXO      0.053033
      9 H7         -2.4390    0.4940    1.4840 ho        1 AXO      0.437000
@<TRIPOS>BOND
     1    1    2 1   
     2    1    3 2   
     3    1    5 1   
     4    2    6 1   
     5    2    7 1   
     6    2    8 1   
     7    3    4 1   
     8    4    9 1   
@<TRIPOS>SUBSTRUCTURE
     1 AXO         1 TEMP              0 ****  ****    0 ROOT
