@<TRIPOS>MOLECULE
AXP
   39    37     1     0     0
SMALL
bcc


@<TRIPOS>ATOM
      1 P1         -3.9100    0.6380    0.2760 p3        1 AXP      2.593000
      2 C2         -2.1400    0.7520    0.2510 c2        1 AXP     -0.573000
      3 C3         -1.5560    0.7850    1.6680 c3        1 AXP     -0.167000
      4 C4         -0.0700    0.7730    1.6840 c3        1 AXP      0.015000
      5 C5          0.4970   -0.3340    0.8970 c3        1 AXP     -0.006000
      6 C6         -0.0490   -0.4040   -0.4870 c3        1 AXP     -0.014000
      7 C7          0.4600    0.7910   -1.2740 c3        1 AXP      0.016000
      8 C8          1.2800    0.3100   -2.4470 c3        1 AXP     -0.037000
      9 C9          1.7680    1.5070   -3.2480 c3        1 AXP     -0.062000
     10 C10         1.2310   -2.2670    2.3830 c1        1 AXP      0.291000
     11 C11         0.9340   -3.5970    3.0770 c2        1 AXP     -0.235000
     12 N5          0.2010   -1.6150    1.5930 n3        1 AXP     -0.370000
     13 O1P        -4.4830    1.8380    1.0000 o         1 AXP     -1.238667
     14 O2P        -4.3230   -0.6260    0.9930 o         1 AXP     -1.238667
     15 O3P        -4.4340    0.6080   -1.1430 o         1 AXP     -1.238667
     16 O4          0.4160    2.0370    1.1340 oh        1 AXP     -0.372000
     17 O6         -1.5120   -0.4030   -0.5230 os        1 AXP     -0.234000
     18 O7         -0.6330    1.5440   -1.7430 oh        1 AXP     -0.365000
     19 O8          2.3820   -0.4210   -1.9800 oh        1 AXP     -0.317000
     20 O9          2.8230    1.1040   -4.1060 oh        1 AXP     -0.359000
     21 O10         2.3360   -1.7670    2.4740 o         1 AXP     -0.504000
     22 H2         -2.0100    1.6050   -0.2100 h4        1 AXP      0.055000
     23 H31        -1.8680    1.5930    2.1180 hc        1 AXP      0.100500
     24 H32        -1.8820    0.0040    2.1610 hc        1 AXP      0.100500
     25 H4          0.2350    0.6920    2.6060 h1        1 AXP      0.088000
     26 H5          1.4690   -0.2200    0.8470 h1        1 AXP      0.101000
     27 H6          0.2730   -1.2170   -0.9090 h1        1 AXP      0.106000
     28 H7          1.0170    1.3500   -0.6950 h1        1 AXP      0.118000
     29 H8          0.7270   -0.2620   -3.0190 h1        1 AXP      0.090000
     30 H91         1.0270    1.8660   -3.7860 h1        1 AXP      0.100000
     31 H92         2.0920    2.2010   -2.6340 h1        1 AXP      0.100000
     32 H111        0.2220   -3.4680    3.7380 ha        1 AXP      0.092000
     33 H112        1.7490   -3.9200    3.5310 ha        1 AXP      0.092000
     34 H113        0.6470   -4.2590    2.4090 ha        1 AXP      0.092000
     35 HN5        -0.6370   -1.9770    1.5450 hn        1 AXP      0.347000
     36 HO4         0.7830    2.5230    1.7860 ho        1 AXP      0.210000
     37 HO7        -0.6900    1.4650   -2.6260 ho        1 AXP      0.240000
     38 HO8         2.6710   -0.9610   -2.6190 ho        1 AXP      0.187000
     39 HO9         2.9590    1.7310   -4.7240 ho        1 AXP      0.195000
@<TRIPOS>BOND
     1    1   13 1   
     2    1   14 1   
     3    1   15 1   
     4    2    3 1   
     5    2   17 1   
     6    2   22 1   
     7    3    4 1   
     8    3   23 1   
     9    3   24 1   
    10    4    5 1   
    11    4   16 1   
    12    4   25 1   
    13    5    6 1   
    14    5   12 1   
    15    5   26 1   
    16    6    7 1   
    17    6   17 1   
    18    6   27 1   
    19    7    8 1   
    20    7   18 1   
    21    7   28 1   
    22    8    9 1   
    23    8   19 1   
    24    8   29 1   
    25    9   20 1   
    26    9   30 1   
    27    9   31 1   
    28   10   12 1   
    29   10   21 1   
    30   11   32 1   
    31   11   33 1   
    32   11   34 1   
    33   12   35 1   
    34   16   36 1   
    35   18   37 1   
    36   19   38 1   
    37   20   39 1   
@<TRIPOS>SUBSTRUCTURE
     1 AXP         1 TEMP              0 ****  ****    0 ROOT
