@<TRIPOS>MOLECULE
AXP
   39    39     1     0     0
SMALL
bcc


@<TRIPOS>ATOM
      1 P1          0.5470    0.5050   -2.9570 p5        1 AXP      1.219700
      2 C2         -0.3300   -0.2440   -1.4420 c3        1 AXP     -0.051100
      3 C3          0.5510   -1.3910   -1.0480 c3        1 AXP     -0.089400
      4 C4          0.9240   -1.4940    0.4250 c3        1 AXP      0.104100
      5 C5          1.0510   -0.0800    1.0500 c3        1 AXP      0.069700
      6 C6         -0.2290    0.7430    0.7680 c3        1 AXP      0.092100
      7 C7         -1.5440    0.2220    1.3730 c3        1 AXP      0.098100
      8 C8         -1.6140    0.3530    2.9050 c3        1 AXP      0.149100
      9 C9         -3.0270   -0.0150    3.3890 c3        1 AXP      0.099400
     10 C11         4.4930    0.8320   -0.2720 c3        1 AXP     -0.183100
     11 N5          2.1670    0.6330    0.4520 n         1 AXP     -0.540900
     12 O1P         0.6480   -0.7080   -3.8380 o         1 AXP     -0.923833
     13 O2P         1.8760    0.9170   -2.3410 o         1 AXP     -0.923833
     14 O3P        -0.3450    1.6070   -3.4350 o         1 AXP     -0.923833
     15 O4          0.0270   -2.2930    1.1970 oh        1 AXP     -0.649800
     16 O6         -0.3920    0.9060   -0.6320 os        1 AXP     -0.363600
     17 O7         -2.6320    0.9740    0.8440 oh        1 AXP     -0.647800
     18 O8         -0.6750   -0.4730    3.5670 oh        1 AXP     -0.615800
     19 O9         -3.2610    0.6730    4.6110 oh        1 AXP     -0.602800
     20 O10         3.8430   -0.3560    1.7230 o         1 AXP     -0.713100
     21 H2         -1.3680   -0.5780   -1.6580 h1        1 AXP      0.015700
     22 H31         1.5120   -1.3090   -1.6390 hc        1 AXP      0.062700
     23 H32         0.0680   -2.3600   -1.3580 hc        1 AXP      0.062700
     24 H4          1.9180   -2.0210    0.5370 h1        1 AXP      0.051700
     25 H5          1.2160   -0.1780    2.1590 h1        1 AXP      0.064700
     26 H6         -0.0870    1.7990    1.1440 h1        1 AXP      0.063700
     27 H7         -1.7140   -0.8530    1.0880 h1        1 AXP      0.035700
     28 H8         -1.3710    1.4040    3.2250 h1        1 AXP      0.079700
     29 H91        -3.7910    0.2920    2.6260 h1        1 AXP      0.030700
     30 H92        -3.0950   -1.1210    3.5690 h1        1 AXP      0.030700
     31 H111        5.4090    0.1980   -0.2270 hc        1 AXP      0.062700
     32 H112        4.0700    0.8310   -1.3160 hc        1 AXP      0.062700
     33 H113        4.7580    1.8790    0.0080 hc        1 AXP      0.062700
     34 HN5         1.9630    0.9470   -0.5260 hn        1 AXP      0.411500
     35 HO4        -0.7260   -2.5060    0.6330 ho        1 AXP      0.397000
     36 HO7        -2.3830    1.2440   -0.0570 ho        1 AXP      0.453000
     37 HO8        -0.4700   -1.2220    2.9860 ho        1 AXP      0.429000
     38 HO9        -4.1990    0.5650    4.8000 ho        1 AXP      0.373000
     39 C10         3.4720    0.2940    0.7100 c         1 AXP      0.649100
@<TRIPOS>BOND
     1    1    2 1   
     2    1   12 1   
     3    1   13 1   
     4    1   14 1   
     5    2    3 1   
     6    2   16 1   
     7    2   21 1   
     8    3    4 1   
     9    3   22 1   
    10    3   23 1   
    11    4    5 1   
    12    4   15 1   
    13    4   24 1   
    14    5    6 1   
    15    5   11 1   
    16    5   25 1   
    17    6    7 1   
    18    6   16 1   
    19    6   26 1   
    20    7    8 1   
    21    7   17 1   
    22    7   27 1   
    23    8    9 1   
    24    8   18 1   
    25    8   28 1   
    26    9   19 1   
    27    9   29 1   
    28    9   30 1   
    29   10   31 1   
    30   10   32 1   
    31   10   33 1   
    32   10   39 1   
    33   11   34 1   
    34   11   39 1   
    35   15   35 1   
    36   17   36 1   
    37   18   37 1   
    38   19   38 1   
    39   20   39 2   
@<TRIPOS>SUBSTRUCTURE
     1 AXP         1 TEMP              0 ****  ****    0 ROOT
