@<TRIPOS>MOLECULE
AXR
   23    23     1     0     0
SMALL
bcc


@<TRIPOS>ATOM
      1 O5         -2.5930    1.1310   -1.5850 oh        1 AXR     -0.593800
      2 C5         -1.1820    1.1310   -1.5850 c3        1 AXR      0.130400
      3 C4         -0.7240    1.1310   -0.2890 c3        1 AXR      0.104100
      4 O4         -1.0880   -0.2310    0.4210 os        1 AXR     -0.449600
      5 C3          0.8110    1.2170   -0.2650 c3        1 AXR      0.124100
      6 O3          1.2410    2.5360    0.2420 oh        1 AXR     -0.583800
      7 C2          1.1950    0.2600    0.5640 c3        1 AXR      0.083100
      8 O2          2.4490   -0.3020    0.1270 oh        1 AXR     -0.591800
      9 C1          0.0350   -0.8680    0.5170 c3        1 AXR      0.300900
     10 O1          0.0570   -1.6300    1.6920 os        1 AXR     -0.436600
     11 C6         -0.4050   -2.9520    1.5230 c3        1 AXR      0.123700
     12 HO5        -2.8890    1.2850   -2.4080 ho        1 AXR      0.412000
     13 H5         -0.8570    0.3340   -2.0460 h1        1 AXR      0.054200
     14 H5A        -0.8570    1.9280   -2.0460 h1        1 AXR      0.054200
     15 H4         -1.1100    1.8800    0.2040 h1        1 AXR      0.094700
     16 H3          1.1740    1.0600   -1.1580 h1        1 AXR      0.070700
     17 HO3         1.7860    2.9160   -0.3470 ho        1 AXR      0.412000
     18 H2          1.2820    0.6140    1.4700 h1        1 AXR      0.084700
     19 HO2         3.0490   -0.2250    0.7760 ho        1 AXR      0.413000
     20 H1          0.1600   -1.4450   -0.2600 h2        1 AXR      0.073700
     21 H6          0.2140   -3.4420    0.9500 h1        1 AXR      0.040033
     22 H6A        -0.4590   -3.3900    2.3940 h1        1 AXR      0.040033
     23 H6B        -1.2890   -2.9370    1.1100 h1        1 AXR      0.040033
@<TRIPOS>BOND
     1    1    2 1   
     2    1   12 1   
     3    2    3 1   
     4    2   13 1   
     5    2   14 1   
     6    3    4 1   
     7    3    5 1   
     8    3   15 1   
     9    4    9 1   
    10    5    6 1   
    11    5    7 1   
    12    5   16 1   
    13    6   17 1   
    14    7    8 1   
    15    7    9 1   
    16    7   18 1   
    17    8   19 1   
    18    9   10 1   
    19    9   20 1   
    20   10   11 1   
    21   11   21 1   
    22   11   22 1   
    23   11   23 1   
@<TRIPOS>SUBSTRUCTURE
     1 AXR         1 TEMP              0 ****  ****    0 ROOT
