@<TRIPOS>MOLECULE
AXR
   23    23     1     0     0
SMALL
bcc


@<TRIPOS>ATOM
      1 O5         -2.6990   -1.9960   -0.4310 oh        1 AXR     -0.593800
      2 C5         -2.3580   -0.6430   -0.6460 c3        1 AXR      0.130400
      3 C4         -1.1220   -0.2470    0.1600 c3        1 AXR      0.104100
      4 O4         -0.0220   -1.0350   -0.3270 os        1 AXR     -0.449600
      5 C3         -0.7560    1.2370   -0.0290 c3        1 AXR      0.124100
      6 O3         -1.1030    1.9210    1.1580 oh        1 AXR     -0.583800
      7 C2          0.7730    1.2460   -0.2610 c3        1 AXR      0.083100
      8 O2          1.0310    2.0230   -1.4110 oh        1 AXR     -0.591800
      9 C1          1.1440   -0.2380   -0.4850 c3        1 AXR      0.300900
     10 O1          2.0180   -0.6200    0.5570 os        1 AXR     -0.436600
     11 C6          2.4610   -1.9670    0.4750 c3        1 AXR      0.123700
     12 HO5        -1.9170   -2.5220   -0.6430 ho        1 AXR      0.412000
     13 H5         -2.1820   -0.4580   -1.7390 h1        1 AXR      0.054200
     14 H5A        -3.2460   -0.0550   -0.2910 h1        1 AXR      0.054200
     15 H4         -1.2600   -0.4920    1.2490 h1        1 AXR      0.094700
     16 H3         -1.2850    1.6870   -0.9130 h1        1 AXR      0.070700
     17 HO3        -0.9220    2.8560    1.0010 ho        1 AXR      0.412000
     18 H2          1.3150    1.6570    0.6330 h1        1 AXR      0.084700
     19 HO2         1.9900    2.0700   -1.5090 ho        1 AXR      0.413000
     20 H1          1.5720   -0.4590   -1.4990 h2        1 AXR      0.073700
     21 H6          3.1140   -2.0950    1.3740 h1        1 AXR      0.040033
     22 H6A         1.5930   -2.6690    0.5120 h1        1 AXR      0.040033
     23 H6B         3.0450   -2.1250   -0.4650 h1        1 AXR      0.040033
@<TRIPOS>BOND
     1    1    2 1   
     2    1   12 1   
     3    2    3 1   
     4    2   13 1   
     5    2   14 1   
     6    3    4 1   
     7    3    5 1   
     8    3   15 1   
     9    4    9 1   
    10    5    6 1   
    11    5    7 1   
    12    5   16 1   
    13    6   17 1   
    14    7    8 1   
    15    7    9 1   
    16    7   18 1   
    17    8   19 1   
    18    9   10 1   
    19    9   20 1   
    20   10   11 1   
    21   11   21 1   
    22   11   22 1   
    23   11   23 1   
@<TRIPOS>SUBSTRUCTURE
     1 AXR         1 TEMP              0 ****  ****    0 ROOT
