@<TRIPOS>MOLECULE
AXW
   54    56     1     0     0
SMALL
bcc


@<TRIPOS>ATOM
      1 F22        -1.3320    0.5750   -2.5630 f         1 AXW     -0.141900
      2 C22        -0.3790    0.7390   -1.6130 ca        1 AXW      0.142900
      3 C23        -0.6410    1.5300   -0.4810 ca        1 AXW     -0.150000
      4 C24         0.3460    1.6820    0.4890 ca        1 AXW     -0.062000
      5 C25         1.5850    1.0540    0.3440 ca        1 AXW     -0.130000
      6 C26         1.8470    0.2700   -0.7770 ca        1 AXW     -0.072000
      7 C21         0.8750    0.1050   -1.7670 ca        1 AXW     -0.209300
      8 C13         1.1700   -0.6720   -3.0030 c3        1 AXW      0.179100
      9 N12         0.4000   -1.9510   -3.0530 n4        1 AXW     -0.784000
     10 C11         0.6230   -2.6800   -4.3280 c3        1 AXW      0.073800
     11 C10         0.1880   -4.1620   -4.3010 c3        1 AXW      0.115400
     12 O09        -0.4620   -4.5100   -3.0980 os        1 AXW     -0.427600
     13 C4'        -1.8950   -4.5140   -3.1100 c3        1 AXW      0.120100
     14 C5'        -2.5110   -3.2440   -3.7410 c3        1 AXW      0.100800
     15 N1'        -2.4330   -2.2160   -2.7040 n3        1 AXW     -0.863200
     16 C2'        -2.5380   -2.8920   -1.4040 c3        1 AXW      0.145800
     17 C3'        -2.3410   -4.4110   -1.6280 c3        1 AXW     -0.060700
     18 C08        -1.3570   -5.0440   -0.6700 c3        1 AXW     -0.109700
     19 C06        -1.8860   -5.2390    0.7250 ca        1 AXW      0.434600
     20 N01        -2.7280   -4.3170    1.2420 nb        1 AXW     -0.757000
     21 C02        -3.1520   -4.4960    2.5340 ca        1 AXW      0.646200
     22 N02        -3.9380   -3.5050    3.1320 nh        1 AXW     -0.930500
     23 C03        -2.7510   -5.6280    3.3110 ca        1 AXW     -0.295300
     24 C05        -1.4450   -6.3720    1.4320 ca        1 AXW     -0.292300
     25 C04        -1.8900   -6.5650    2.7480 ca        1 AXW      0.007700
     26 C07        -1.4400   -7.7440    3.5220 c3        1 AXW     -0.066800
     27 H1         -1.6200    2.0240   -0.3770 ha        1 AXW      0.170000
     28 H2          0.1450    2.3040    1.3770 ha        1 AXW      0.164000
     29 H3          2.3600    1.1810    1.1170 ha        1 AXW      0.163000
     30 H4          2.8310   -0.2130   -0.8880 ha        1 AXW      0.147000
     31 H5          0.8780   -0.0680   -3.9120 hx        1 AXW      0.101700
     32 H6          2.2700   -0.9160   -3.0670 hx        1 AXW      0.101700
     33 H7         -0.6360   -1.7590   -2.9300 hn        1 AXW      0.479300
     34 H9          0.0650   -2.1290   -5.1370 hx        1 AXW      0.094200
     35 H10         1.7220   -2.6390   -4.5760 hx        1 AXW      0.094200
     36 H11        -0.4370   -4.3810   -5.2050 h1        1 AXW      0.084200
     37 H12         1.1070   -4.8130   -4.3170 h1        1 AXW      0.084200
     38 H13        -2.2420   -5.4490   -3.6170 h1        1 AXW      0.084700
     39 H14        -3.5670   -3.4780   -4.0530 h1        1 AXW      0.058700
     40 H15        -1.9590   -2.8940   -4.6520 h1        1 AXW      0.058700
     41 H16        -3.1300   -1.5070   -2.8210 hn        1 AXW      0.393800
     42 H18        -1.7330   -2.4790   -0.7370 h1        1 AXW      0.068200
     43 H19        -3.5270   -2.7050   -0.9050 h1        1 AXW      0.068200
     44 H20        -3.3330   -4.9290   -1.5360 hc        1 AXW      0.087700
     45 H21        -1.0540   -6.0440   -1.0840 hc        1 AXW      0.059200
     46 H22        -0.4270   -4.4150   -0.6090 hc        1 AXW      0.059200
     47 H23        -4.3890   -2.8620    2.5220 hn        1 AXW      0.409800
     48 H24        -4.5040   -3.8290    3.8840 hn        1 AXW      0.409800
     49 H25        -3.1120   -5.7520    4.3410 ha        1 AXW      0.151000
     50 H26        -0.7680   -7.0970    0.9630 ha        1 AXW      0.145000
     51 H27        -2.1180   -7.9440    4.3880 hc        1 AXW      0.056700
     52 H28        -1.4130   -8.6550    2.8740 hc        1 AXW      0.056700
     53 H29        -0.4080   -7.5650    3.9170 hc        1 AXW      0.056700
     54 H122        0.6740   -2.5590   -2.2710 hn        1 AXW      0.479300
@<TRIPOS>BOND
     1    1    2 1   
     2    2    3 ar  
     3    2    7 ar  
     4    3    4 ar  
     5    3   27 1   
     6    4    5 ar  
     7    4   28 1   
     8    5    6 ar  
     9    5   29 1   
    10    6    7 ar  
    11    6   30 1   
    12    7    8 1   
    13    8    9 1   
    14    8   31 1   
    15    8   32 1   
    16    9   10 1   
    17    9   33 1   
    18    9   54 1   
    19   10   11 1   
    20   10   34 1   
    21   10   35 1   
    22   11   12 1   
    23   11   36 1   
    24   11   37 1   
    25   12   13 1   
    26   13   14 1   
    27   13   17 1   
    28   13   38 1   
    29   14   15 1   
    30   14   39 1   
    31   14   40 1   
    32   15   16 1   
    33   15   41 1   
    34   16   17 1   
    35   16   42 1   
    36   16   43 1   
    37   17   18 1   
    38   17   44 1   
    39   18   19 1   
    40   18   45 1   
    41   18   46 1   
    42   19   20 ar  
    43   19   24 ar  
    44   20   21 ar  
    45   21   22 1   
    46   21   23 ar  
    47   22   47 1   
    48   22   48 1   
    49   23   25 ar  
    50   23   49 1   
    51   24   25 ar  
    52   24   50 1   
    53   25   26 1   
    54   26   51 1   
    55   26   52 1   
    56   26   53 1   
@<TRIPOS>SUBSTRUCTURE
     1 AXW         1 TEMP              0 ****  ****    0 ROOT
