@<TRIPOS>MOLECULE
AXW
   53    55     1     0     0
SMALL
bcc


@<TRIPOS>ATOM
      1 F22        -1.8400   -1.0820   -0.1330 f         1 AXW     -0.146900
      2 C22        -3.1330   -1.2900    0.2210 ca        1 AXW      0.123900
      3 C23        -3.5140   -2.5490    0.7210 ca        1 AXW     -0.163000
      4 C24        -4.8380   -2.7710    1.0850 ca        1 AXW     -0.106000
      5 C25        -5.7830   -1.7540    0.9560 ca        1 AXW     -0.142000
      6 C26        -5.4060   -0.5060    0.4620 ca        1 AXW     -0.095000
      7 C21        -4.0850   -0.2570    0.0830 ca        1 AXW     -0.108300
      8 C13        -3.6980    1.0770   -0.4820 c3        1 AXW      0.211100
      9 N12        -2.7300    1.7820    0.3380 n3        1 AXW     -0.818200
     10 C11        -2.2570    3.0050   -0.2800 c3        1 AXW      0.162800
     11 C10        -0.9740    3.5410    0.3650 c3        1 AXW      0.121400
     12 O09         0.0600    2.6180    0.0290 os        1 AXW     -0.422600
     13 C4'         1.2800    2.8680    0.7170 c3        1 AXW      0.113100
     14 C5'         2.0210    4.0900    0.1110 c3        1 AXW      0.113800
     15 N1'         3.3800    3.7030   -0.2440 n3        1 AXW     -0.790200
     16 C2'         3.4330    2.2430   -0.2670 c3        1 AXW      0.148800
     17 C3'         2.2320    1.6650    0.5180 c3        1 AXW     -0.070700
     18 C08         1.5740    0.4980   -0.1840 c3        1 AXW     -0.116700
     19 C06         2.3220   -0.8040   -0.0930 ca        1 AXW      0.453600
     20 N01         3.6660   -0.8020    0.0290 nb        1 AXW     -0.734000
     21 C02         4.3050   -2.0140    0.0890 ca        1 AXW      0.627200
     22 N02         5.6920   -2.0380    0.3260 nh        1 AXW     -0.921500
     23 C03         3.5990   -3.2480   -0.0080 ca        1 AXW     -0.304300
     24 C05         1.5570   -1.9880   -0.1800 ca        1 AXW     -0.293300
     25 C04         2.2110   -3.2230   -0.1390 ca        1 AXW     -0.007300
     26 C07         1.4400   -4.4850   -0.2210 c3        1 AXW     -0.059800
     27 H1         -2.7600   -3.3420    0.8220 ha        1 AXW      0.147000
     28 H2         -5.1370   -3.7550    1.4770 ha        1 AXW      0.137000
     29 H3         -6.8280   -1.9330    1.2480 ha        1 AXW      0.137000
     30 H4         -6.1540    0.2960    0.3710 ha        1 AXW      0.140000
     31 H5         -3.3200    0.9010   -1.5360 h1        1 AXW      0.040700
     32 H6         -4.6110    1.7340   -0.5610 h1        1 AXW      0.040700
     33 H7         -1.9520    1.1830    0.5580 hn        1 AXW      0.375800
     34 H9         -2.0650    2.8840   -1.3870 h1        1 AXW      0.040700
     35 H10        -3.0610    3.7840   -0.1520 h1        1 AXW      0.040700
     36 H11        -0.7300    4.5480   -0.0650 h1        1 AXW      0.038200
     37 H12        -1.0770    3.6260    1.4790 h1        1 AXW      0.038200
     38 H13         1.0700    3.0290    1.8080 h1        1 AXW      0.041700
     39 H14         1.4970    4.4060   -0.8340 h1        1 AXW      0.053200
     40 H15         2.0090    4.9540    0.8250 h1        1 AXW      0.053200
     41 H16         4.0260    4.0600    0.4360 hn        1 AXW      0.343800
     42 H18         3.3770    1.9210   -1.3420 h1        1 AXW      0.060700
     43 H19         4.4000    1.8650    0.1580 h1        1 AXW      0.060700
     44 H20         2.5800    1.3330    1.5330 hc        1 AXW      0.062700
     45 H21         0.5480    0.3400    0.2550 hc        1 AXW      0.070700
     46 H22         1.4290    0.7450   -1.2710 hc        1 AXW      0.070700
     47 H23         6.1660   -1.1720    0.1900 hn        1 AXW      0.396800
     48 H24         6.1490   -2.8110   -0.1050 hn        1 AXW      0.396800
     49 H25         4.1360   -4.2050    0.0320 ha        1 AXW      0.140000
     50 H26         0.4640   -1.9310   -0.2800 ha        1 AXW      0.151000
     51 H27         1.1150   -4.7950    0.8050 hc        1 AXW      0.048033
     52 H28         0.5290   -4.3550   -0.8540 hc        1 AXW      0.048033
     53 H29         2.0610   -5.3080   -0.6540 hc        1 AXW      0.048033
@<TRIPOS>BOND
     1    1    2 1   
     2    2    3 ar  
     3    2    7 ar  
     4    3    4 ar  
     5    3   27 1   
     6    4    5 ar  
     7    4   28 1   
     8    5    6 ar  
     9    5   29 1   
    10    6    7 ar  
    11    6   30 1   
    12    7    8 1   
    13    8    9 1   
    14    8   31 1   
    15    8   32 1   
    16    9   10 1   
    17    9   33 1   
    18   10   11 1   
    19   10   34 1   
    20   10   35 1   
    21   11   12 1   
    22   11   36 1   
    23   11   37 1   
    24   12   13 1   
    25   13   14 1   
    26   13   17 1   
    27   13   38 1   
    28   14   15 1   
    29   14   39 1   
    30   14   40 1   
    31   15   16 1   
    32   15   41 1   
    33   16   17 1   
    34   16   42 1   
    35   16   43 1   
    36   17   18 1   
    37   17   44 1   
    38   18   19 1   
    39   18   45 1   
    40   18   46 1   
    41   19   20 ar  
    42   19   24 ar  
    43   20   21 ar  
    44   21   22 1   
    45   21   23 ar  
    46   22   47 1   
    47   22   48 1   
    48   23   25 ar  
    49   23   49 1   
    50   24   25 ar  
    51   24   50 1   
    52   25   26 1   
    53   26   51 1   
    54   26   52 1   
    55   26   53 1   
@<TRIPOS>SUBSTRUCTURE
     1 AXW         1 TEMP              0 ****  ****    0 ROOT
