@<TRIPOS>MOLECULE
AXW
   55    57     1     0     0
SMALL
bcc


@<TRIPOS>ATOM
      1 F22         0.5440    0.7360   -1.5670 f         1 AXW     -0.155900
      2 C22         1.7800    1.1450   -1.9550 ca        1 AXW      0.125900
      3 C23         2.4080    2.2140   -1.2970 ca        1 AXW     -0.139000
      4 C24         3.6820    2.6090   -1.7020 ca        1 AXW     -0.054000
      5 C25         4.3320    1.9470   -2.7450 ca        1 AXW     -0.122000
      6 C26         3.7090    0.8860   -3.4000 ca        1 AXW     -0.065000
      7 C21         2.4270    0.4770   -3.0200 ca        1 AXW     -0.225300
      8 C13         1.7170   -0.5850   -3.7840 c3        1 AXW      0.182100
      9 N12         1.3660   -1.7540   -2.9090 n4        1 AXW     -0.764000
     10 C11         0.5800   -2.7890   -3.6340 c3        1 AXW      0.065800
     11 C10         0.0280   -3.8670   -2.6880 c3        1 AXW      0.104400
     12 O09        -0.6530   -3.2740   -1.5980 os        1 AXW     -0.438600
     13 C4'        -2.0470   -3.0130   -1.8060 c3        1 AXW      0.101100
     14 C5'        -2.3100   -1.5420   -1.3770 c3        1 AXW      0.141800
     15 N1'        -3.0230   -1.5330   -0.1120 n3        1 AXW     -0.781200
     16 C2'        -3.5690   -2.8640    0.1130 c3        1 AXW      0.148800
     17 C3'        -2.9320   -3.8730   -0.8760 c3        1 AXW     -0.102700
     18 C08        -2.1670   -4.9730   -0.1690 c3        1 AXW     -0.122700
     19 C06        -3.0580   -5.8320    0.6890 ca        1 AXW      0.456600
     20 N01        -3.9490   -6.6520    0.0940 nb        1 AXW     -0.671000
     21 C02        -4.7220   -7.4210    0.9130 ca        1 AXW      0.453200
     22 N02        -5.6970   -8.3120    0.2410 n4        1 AXW     -0.818300
     23 C03        -4.6550   -7.4210    2.3170 ca        1 AXW     -0.206300
     24 C05        -2.9180   -5.7620    2.0990 ca        1 AXW     -0.201300
     25 C04        -3.7170   -6.5590    2.9200 ca        1 AXW      0.011700
     26 C07        -3.5930   -6.5230    4.3930 c3        1 AXW     -0.085800
     27 H1          1.8870    2.7330   -0.4760 ha        1 AXW      0.178000
     28 H2          4.1770    3.4540   -1.1920 ha        1 AXW      0.174000
     29 H3          5.3390    2.2680   -3.0580 ha        1 AXW      0.173000
     30 H4          4.2260    0.3800   -4.2320 ha        1 AXW      0.153000
     31 H5          0.7500   -0.1750   -4.2010 hx        1 AXW      0.111700
     32 H6          2.3500   -0.9680   -4.6360 hx        1 AXW      0.111700
     33 H7          2.2240   -2.1700   -2.5320 hn        1 AXW      0.460800
     34 H9         -0.2760   -2.2710   -4.1550 hx        1 AXW      0.111700
     35 H10         1.2400   -3.2710   -4.4100 hx        1 AXW      0.111700
     36 H11        -0.6270   -4.5550   -3.2840 h1        1 AXW      0.090700
     37 H12         0.8630   -4.4560   -2.2160 h1        1 AXW      0.090700
     38 H13        -2.3250   -3.1740   -2.8790 h1        1 AXW      0.065700
     39 H14        -1.3470   -0.9660   -1.3180 h1        1 AXW      0.064200
     40 H15        -2.9720   -1.0550   -2.1450 h1        1 AXW      0.064200
     41 H16        -2.4200   -1.2570    0.6410 hn        1 AXW      0.368800
     42 H18        -3.4160   -3.1970    1.1750 h1        1 AXW      0.060200
     43 H19        -4.6770   -2.8050   -0.0760 h1        1 AXW      0.060200
     44 H20        -3.7450   -4.3320   -1.5000 hc        1 AXW      0.079700
     45 H21        -1.3670   -4.5210    0.4780 hc        1 AXW      0.075700
     46 H22        -1.6500   -5.6120   -0.9360 hc        1 AXW      0.075700
     47 H23        -6.3820   -7.7500   -0.2800 hn        1 AXW      0.474133
     48 H24        -5.2100   -8.9350   -0.4160 hn        1 AXW      0.474133
     49 H25        -5.2960   -8.0570    2.9470 ha        1 AXW      0.176000
     50 H26        -2.1770   -5.0760    2.5410 ha        1 AXW      0.179000
     51 H27        -3.0310   -7.4250    4.7500 hc        1 AXW      0.081367
     52 H28        -3.0400   -5.6110    4.7310 hc        1 AXW      0.081367
     53 H29        -4.6010   -6.5260    4.8790 hc        1 AXW      0.081367
     54 H122        0.8030   -1.4200   -2.1080 hn        1 AXW      0.460800
     55 H023       -6.1830   -8.8740    0.9480 hn        1 AXW      0.474133
@<TRIPOS>BOND
     1    1    2 1   
     2    2    3 ar  
     3    2    7 ar  
     4    3    4 ar  
     5    3   27 1   
     6    4    5 ar  
     7    4   28 1   
     8    5    6 ar  
     9    5   29 1   
    10    6    7 ar  
    11    6   30 1   
    12    7    8 1   
    13    8    9 1   
    14    8   31 1   
    15    8   32 1   
    16    9   10 1   
    17    9   33 1   
    18    9   54 1   
    19   10   11 1   
    20   10   34 1   
    21   10   35 1   
    22   11   12 1   
    23   11   36 1   
    24   11   37 1   
    25   12   13 1   
    26   13   14 1   
    27   13   17 1   
    28   13   38 1   
    29   14   15 1   
    30   14   39 1   
    31   14   40 1   
    32   15   16 1   
    33   15   41 1   
    34   16   17 1   
    35   16   42 1   
    36   16   43 1   
    37   17   18 1   
    38   17   44 1   
    39   18   19 1   
    40   18   45 1   
    41   18   46 1   
    42   19   20 ar  
    43   19   24 ar  
    44   20   21 ar  
    45   21   22 1   
    46   21   23 ar  
    47   22   47 1   
    48   22   48 1   
    49   22   55 1   
    50   23   25 ar  
    51   23   49 1   
    52   24   25 ar  
    53   24   50 1   
    54   25   26 1   
    55   26   51 1   
    56   26   52 1   
    57   26   53 1   
@<TRIPOS>SUBSTRUCTURE
     1 AXW         1 TEMP              0 ****  ****    0 ROOT
