@<TRIPOS>MOLECULE
AXW
   54    56     1     0     0
SMALL
bcc


@<TRIPOS>ATOM
      1 F22        -0.7050   -0.0090   -0.6130 f         1 AXW     -0.140900
      2 C22         0.5520    0.4020   -0.3140 ca        1 AXW      0.137900
      3 C23         0.8620    0.8450    0.9820 ca        1 AXW     -0.142000
      4 C24         2.1630    1.2540    1.2680 ca        1 AXW     -0.059000
      5 C25         3.1510    1.2220    0.2820 ca        1 AXW     -0.129000
      6 C26         2.8450    0.7810   -1.0040 ca        1 AXW     -0.069000
      7 C21         1.5470    0.3710   -1.3190 ca        1 AXW     -0.224300
      8 C13         1.1920   -0.0250   -2.7100 c3        1 AXW      0.180100
      9 N12         0.7550   -1.4570   -2.7780 ny        1 AXW     -0.763000
     10 C11         0.3730   -1.8660   -4.1600 c3        1 AXW      0.101800
     11 C10        -0.1030   -3.3230   -4.2240 c3        1 AXW      0.107400
     12 O09        -1.0520   -3.4830   -3.1800 os        1 AXW     -0.462600
     13 C4'        -1.8290   -4.6860   -3.2770 c3        1 AXW      0.114100
     14 C5'        -3.0450   -4.4650   -4.2130 c3        1 AXW      0.125800
     15 N1'        -4.2350   -4.2540   -3.4040 n7        1 AXW     -0.783200
     16 C2'        -3.9540   -4.7280   -2.0520 c3        1 AXW      0.141800
     17 C3'        -2.4350   -4.9820   -1.8870 c3        1 AXW     -0.084700
     18 C08        -1.8120   -4.1540   -0.7820 c3        1 AXW     -0.110700
     19 C06        -2.2850   -4.5840    0.5820 ca        1 AXW      0.435600
     20 N01        -3.0840   -3.7410    1.2720 nb        1 AXW     -0.741000
     21 C02        -3.4810   -4.1260    2.5270 ca        1 AXW      0.647200
     22 N02        -4.2160   -3.2280    3.3090 nv        1 AXW     -0.930500
     23 C03        -3.1000   -5.3860    3.0860 ca        1 AXW     -0.296300
     24 C05        -1.8600   -5.8310    1.0730 ca        1 AXW     -0.299300
     25 C04        -2.2820   -6.2360    2.3470 ca        1 AXW      0.006700
     26 C07        -1.8520   -7.5400    2.9010 c3        1 AXW     -0.065800
     27 H1          0.0760    0.8660    1.7530 ha        1 AXW      0.178000
     28 H2          2.4100    1.6070    2.2840 ha        1 AXW      0.167000
     29 H3          4.1760    1.5500    0.5190 ha        1 AXW      0.165000
     30 H4          3.6300    0.7700   -1.7780 ha        1 AXW      0.149000
     31 H5          0.3320    0.6070   -3.0820 hx        1 AXW      0.109200
     32 H6          2.0700    0.1050   -3.4060 hx        1 AXW      0.109200
     33 H7          1.5050   -2.0650   -2.4340 hn        1 AXW      0.464800
     34 H9          1.2620   -1.7350   -4.8380 hx        1 AXW      0.108700
     35 H10        -0.4590   -1.1840   -4.4990 hx        1 AXW      0.108700
     36 H11         0.7490   -4.0390   -4.0710 h1        1 AXW      0.071200
     37 H12        -0.5670   -3.5020   -5.2310 h1        1 AXW      0.071200
     38 H13        -1.1770   -5.5250   -3.6320 h1        1 AXW      0.063700
     39 H14        -3.2080   -5.3970   -4.8230 h1        1 AXW      0.060700
     40 H15        -2.8580   -3.6100   -4.9140 h1        1 AXW      0.060700
     41 H16        -4.4840   -3.2820   -3.3910 hn        1 AXW      0.356800
     42 H18        -4.3230   -4.0040   -1.2770 h1        1 AXW      0.071700
     43 H19        -4.5090   -5.6970   -1.9160 h1        1 AXW      0.071700
     44 H20        -2.2710   -6.0710   -1.6630 hc        1 AXW      0.077700
     45 H21        -0.6970   -4.2840   -0.8150 hc        1 AXW      0.047200
     46 H22        -2.0300   -3.0680   -0.9630 hc        1 AXW      0.047200
     47 H23        -4.7860   -3.6580    4.0020 hn        1 AXW      0.412300
     48 H24        -4.6450   -2.4670    2.8320 hn        1 AXW      0.412300
     49 H25        -3.4430   -5.6780    4.0880 ha        1 AXW      0.151000
     50 H26        -1.2130   -6.4780    0.4670 ha        1 AXW      0.138000
     51 H27        -2.5940   -7.9270    3.6420 hc        1 AXW      0.055700
     52 H28        -0.8670   -7.4240    3.4200 hc        1 AXW      0.055700
     53 H29        -1.7320   -8.2990    2.0880 hc        1 AXW      0.055700
     54 H122       -0.0640   -1.5970   -2.1590 hn        1 AXW      0.464800
@<TRIPOS>BOND
     1    1    2 1   
     2    2    3 ar  
     3    2    7 ar  
     4    3    4 ar  
     5    3   27 1   
     6    4    5 ar  
     7    4   28 1   
     8    5    6 ar  
     9    5   29 1   
    10    6    7 ar  
    11    6   30 1   
    12    7    8 1   
    13    8    9 1   
    14    8   31 1   
    15    8   32 1   
    16    9   10 1   
    17    9   33 1   
    18    9   54 1   
    19   10   11 1   
    20   10   34 1   
    21   10   35 1   
    22   11   12 1   
    23   11   36 1   
    24   11   37 1   
    25   12   13 1   
    26   13   14 1   
    27   13   17 1   
    28   13   38 1   
    29   14   15 1   
    30   14   39 1   
    31   14   40 1   
    32   15   16 1   
    33   15   41 1   
    34   16   17 1   
    35   16   42 1   
    36   16   43 1   
    37   17   18 1   
    38   17   44 1   
    39   18   19 1   
    40   18   45 1   
    41   18   46 1   
    42   19   20 ar  
    43   19   24 ar  
    44   20   21 ar  
    45   21   22 1   
    46   21   23 ar  
    47   22   47 1   
    48   22   48 1   
    49   23   25 ar  
    50   23   49 1   
    51   24   25 ar  
    52   24   50 1   
    53   25   26 1   
    54   26   51 1   
    55   26   52 1   
    56   26   53 1   
@<TRIPOS>SUBSTRUCTURE
     1 AXW         1 TEMP              0 ****  ****    0 ROOT
