@<TRIPOS>MOLECULE
AXW
   53    48     1     0     0
SMALL
bcc


@<TRIPOS>ATOM
      1 F22         2.8350   -1.2410   -3.0310 f         1 AXW     -0.098000
      2 C22         2.5880   -1.1830   -4.3380 c1        1 AXW      0.115000
      3 C23         2.9440   -2.2420   -5.1600 c1        1 AXW     -0.131750
      4 C24         2.7250   -2.1660   -6.5110 c1        1 AXW     -0.131750
      5 C25         2.1460   -1.0300   -7.0580 c1        1 AXW     -0.131750
      6 C26         1.7910    0.0230   -6.2440 c1        1 AXW     -0.131750
      7 C21         2.0130   -0.0530   -4.8800 c1        1 AXW     -0.110000
      8 C13         1.5610    1.0790   -3.9690 c3        1 AXW     -0.041000
      9 N12         2.5420    1.2810   -2.9320 n3        1 AXW     -0.302000
     10 C11         1.9050    1.7590   -1.7690 c3        1 AXW     -0.068000
     11 C10         2.2770    0.8540   -0.5620 c3        1 AXW     -0.026000
     12 O09         1.2020    0.8760    0.4020 os        1 AXW     -0.280000
     13 C4'         1.3530   -0.0710    1.4600 c3        1 AXW      0.005000
     14 C5'         0.7930   -1.5540    0.9800 c3        1 AXW     -0.127000
     15 N1'         0.4970   -2.2100    2.0780 n3        1 AXW     -0.265000
     16 C2'         0.1440   -1.0830    3.1470 c3        1 AXW     -0.095000
     17 C3'         0.6160    0.2820    2.5020 c3        1 AXW     -0.119000
     18 C08        -0.6310    1.1280    2.0350 c3        1 AXW     -0.098000
     19 C06        -1.8700    0.7610    2.9200 c1        1 AXW      0.028000
     20 N01        -1.8410    1.0110    4.2580 n1        1 AXW     -0.206000
     21 C02        -2.9550    0.8360    5.0080 c1        1 AXW      0.107000
     22 N02        -2.9340    1.1720    6.3970 n3        1 AXW     -0.320000
     23 C03        -4.1410    0.3960    4.4080 c1        1 AXW     -0.237000
     24 C05        -3.0470    0.3230    2.3180 c1        1 AXW     -0.226000
     25 C04        -4.1730    0.1450    3.0700 c1        1 AXW      0.001000
     26 C07        -5.5080   -0.2670    2.3860 c2        1 AXW     -0.186000
     27 H1          3.3490   -3.0390   -4.7770 ha        1 AXW      0.137750
     28 H2          2.9750   -2.9070   -7.0840 ha        1 AXW      0.137750
     29 H3          1.9890   -0.9770   -8.0280 ha        1 AXW      0.137750
     30 H4          1.3940    0.8030   -6.6210 ha        1 AXW      0.137750
     31 H5          0.6930    0.8440   -3.5560 h1        1 AXW      0.091500
     32 H6          1.4600    1.9150   -4.5020 h1        1 AXW      0.091500
     33 H7          3.1530    1.8840   -3.2080 hn        1 AXW      0.157000
     34 H9          2.1960    2.6770   -1.5930 h1        1 AXW      0.079000
     35 H10         0.9480    1.7440   -1.8960 h1        1 AXW      0.079000
     36 H11         2.4210   -0.0920   -0.8830 h1        1 AXW      0.079500
     37 H12         3.1120    1.1920   -0.1360 h1        1 AXW      0.079500
     38 H13         2.2800   -0.1350    1.7180 h1        1 AXW      0.080000
     39 H14         1.4890   -2.0300    0.4810 h1        1 AXW      0.101000
     40 H15        -0.0060   -1.4490    0.4260 h1        1 AXW      0.101000
     41 H16         1.2210   -2.6710    2.3560 hn        1 AXW      0.140000
     42 H18         0.6280   -1.2460    3.9850 h1        1 AXW      0.093500
     43 H19        -0.8210   -1.0630    3.3110 h1        1 AXW      0.093500
     44 H20         1.1610    0.7970    3.1510 hc        1 AXW      0.109000
     45 H21        -0.4350    2.0760    2.1290 hc        1 AXW      0.107000
     46 H22        -0.8270    0.9280    1.1020 hc        1 AXW      0.107000
     47 H23        -2.1710    1.5300    6.7720 hn        1 AXW      0.193500
     48 H24        -3.6670    1.0450    6.9030 hn        1 AXW      0.193500
     49 H25        -4.9510    0.2680    4.9530 ha        1 AXW      0.140000
     50 H26        -3.0660    0.1440    1.3620 ha        1 AXW      0.144000
     51 H27        -5.5020   -1.2320    2.2130 ha        1 AXW      0.088667
     52 H28        -5.6050    0.2180    1.5350 ha        1 AXW      0.088667
     53 H29        -6.2520   -0.0480    2.9700 ha        1 AXW      0.088667
@<TRIPOS>BOND
     1    1    2 1   
     2    2    7 1   
     3    3    4 1   
     4    3   27 1   
     5    4   28 1   
     6    5    6 1   
     7    5   29 1   
     8    6   30 1   
     9    7    8 1   
    10    8    9 1   
    11    8   31 1   
    12    8   32 1   
    13    9   10 1   
    14    9   33 1   
    15   10   11 1   
    16   10   34 1   
    17   10   35 1   
    18   11   12 1   
    19   11   36 1   
    20   11   37 1   
    21   12   13 1   
    22   13   14 1   
    23   13   17 1   
    24   13   38 1   
    25   14   15 1   
    26   14   39 1   
    27   14   40 1   
    28   15   16 1   
    29   15   41 1   
    30   16   17 1   
    31   16   42 1   
    32   16   43 1   
    33   17   18 1   
    34   17   44 1   
    35   18   19 1   
    36   18   45 1   
    37   18   46 1   
    38   19   24 1   
    39   20   21 1   
    40   21   22 1   
    41   22   47 1   
    42   22   48 1   
    43   23   25 1   
    44   23   49 1   
    45   24   50 1   
    46   26   51 1   
    47   26   52 1   
    48   26   53 1   
@<TRIPOS>SUBSTRUCTURE
     1 AXW         1 TEMP              0 ****  ****    0 ROOT
