@<TRIPOS>MOLECULE
AXX
   36    38     1     0     0
SMALL
bcc


@<TRIPOS>ATOM
      1 O5         -0.1510    0.2460    0.0260 o         1 AXX     -0.430100
      2 C4          1.0550    0.2110    0.2100 c         1 AXX      0.617100
      3 C2          1.8330    0.2460    1.4500 cx        1 AXX     -0.309700
      4 C3          1.2210   -0.4130    2.6860 cx        1 AXX     -0.046900
      5 C1          1.2750    1.0690    2.6110 cx        1 AXX     -0.046900
      6 N6          1.9170    0.1090   -1.0660 n4        1 AXX     -0.519200
      7 C7          1.2210    0.1180   -2.3270 cc        1 AXX     -0.169500
      8 S11        -0.4140    0.0640   -2.5390 ss        1 AXX      0.544200
      9 C10        -0.3470    0.0780   -4.1630 cc        1 AXX     -0.158400
     10 C18        -1.5420    0.0450   -5.0370 c3        1 AXX     -0.032100
     11 C17        -1.2150    0.5380   -6.4340 c3        1 AXX     -0.081400
     12 C16         0.0220   -0.1460   -6.9650 c3        1 AXX     -0.080400
     13 C15         1.2510    0.1480   -6.1150 c3        1 AXX     -0.043100
     14 C9          0.9670    0.1280   -4.6630 cd        1 AXX     -0.018300
     15 C8          1.9010    0.1690   -3.5920 cd        1 AXX     -0.224600
     16 C12         3.3400    0.2690   -3.6530 c         1 AXX      0.593700
     17 O13         4.1220    0.2640   -2.7000 o         1 AXX     -0.481100
     18 N14         4.0120    0.4190   -4.9880 n4        1 AXX     -0.742400
     19 H2          2.9360    0.2000    1.3370 hc        1 AXX      0.128700
     20 H31         1.9140   -0.9620    3.3550 hc        1 AXX      0.120450
     21 H32         0.2430   -0.9240    2.5850 hc        1 AXX      0.120450
     22 H11         0.3360    1.6370    2.4550 hc        1 AXX      0.120450
     23 H12         2.0080    1.6310    3.2240 hc        1 AXX      0.120450
     24 HN6         2.4700   -0.7610   -1.0040 hn        1 AXX      0.473300
     25 H181       -2.3680    0.6720   -4.6000 hc        1 AXX      0.093200
     26 H182       -1.9230   -1.0150   -5.0960 hc        1 AXX      0.093200
     27 H171       -2.0850    0.3210   -7.1100 hc        1 AXX      0.081200
     28 H172       -1.0690    1.6500   -6.4240 hc        1 AXX      0.081200
     29 H161        0.2220    0.1960   -8.0160 hc        1 AXX      0.080200
     30 H162       -0.1490   -1.2550   -7.0010 hc        1 AXX      0.080200
     31 H151        2.0250   -0.6250   -6.3750 hc        1 AXX      0.052700
     32 H152        1.6400    1.1670   -6.3970 hc        1 AXX      0.052700
     33 H141        3.9270   -0.4560   -5.5240 hn        1 AXX      0.486133
     34 H142        5.0140    0.6270   -4.8490 hn        1 AXX      0.486133
     35 H62         2.5890    0.8940   -1.0540 hn        1 AXX      0.473300
     36 H143        3.5760    1.1790   -5.5260 hn        1 AXX      0.486133
@<TRIPOS>BOND
     1    1    2 2   
     2    2    3 1   
     3    2    6 1   
     4    3    4 1   
     5    3    5 1   
     6    3   19 1   
     7    4    5 1   
     8    4   20 1   
     9    4   21 1   
    10    5   22 1   
    11    5   23 1   
    12    6    7 1   
    13    6   24 1   
    14    6   35 1   
    15    7    8 1   
    16    7   15 2   
    17    8    9 1   
    18    9   10 1   
    19    9   14 2   
    20   10   11 1   
    21   10   25 1   
    22   10   26 1   
    23   11   12 1   
    24   11   27 1   
    25   11   28 1   
    26   12   13 1   
    27   12   29 1   
    28   12   30 1   
    29   13   14 1   
    30   13   31 1   
    31   13   32 1   
    32   14   15 1   
    33   15   16 1   
    34   16   17 2   
    35   16   18 1   
    36   18   33 1   
    37   18   34 1   
    38   18   36 1   
@<TRIPOS>SUBSTRUCTURE
     1 AXX         1 TEMP              0 ****  ****    0 ROOT
