@<TRIPOS>MOLECULE
AXX
   34    36     1     0     0
SMALL
bcc


@<TRIPOS>ATOM
      1 O5         -2.6150   -1.6370   -0.2390 o         1 AXX     -0.602100
      2 C4         -2.7920   -0.4100   -0.0860 c         1 AXX      0.687100
      3 C2         -4.1500    0.2000    0.0330 cx        1 AXX     -0.221700
      4 C3         -5.2330   -0.6330    0.6800 cx        1 AXX     -0.099900
      5 C1         -5.2600   -0.4020   -0.7970 cx        1 AXX     -0.099900
      6 N6         -1.7060    0.4570   -0.0260 n         1 AXX     -0.434100
      7 C7         -0.3860    0.0500   -0.0950 cc        1 AXX      0.093500
      8 S11         0.1180   -1.5630   -0.1910 ss        1 AXX      0.133200
      9 C10         1.7390   -1.1690   -0.1880 cc        1 AXX     -0.177400
     10 C18         2.8190   -2.1740   -0.2060 c3        1 AXX      0.004900
     11 C17         4.1680   -1.5410   -0.5000 c3        1 AXX     -0.072400
     12 C16         4.3550   -0.2570    0.2810 c3        1 AXX     -0.074400
     13 C15         3.3120    0.7800   -0.0990 c3        1 AXX     -0.018100
     14 C9          1.9520    0.1990   -0.1330 cd        1 AXX     -0.051300
     15 C8          0.7190    0.9250   -0.0950 cd        1 AXX     -0.248600
     16 C12         0.5600    2.3870   -0.0410 c         1 AXX      0.707700
     17 O13        -0.4160    2.9380    0.5270 o         1 AXX     -0.659100
     18 N14         1.4900    3.1860   -0.6570 n         1 AXX     -0.669000
     19 H2         -4.1620    1.2940    0.2050 hc        1 AXX      0.099700
     20 H31        -4.9650   -1.6390    1.0550 hc        1 AXX      0.085200
     21 H32        -5.9660   -0.1210    1.3280 hc        1 AXX      0.085200
     22 H11        -6.0140    0.2780   -1.2320 hc        1 AXX      0.085200
     23 H12        -5.0130   -1.2450   -1.4700 hc        1 AXX      0.085200
     24 HN6        -1.8620    1.4320    0.1520 hn        1 AXX      0.361500
     25 H181        2.8620   -2.6860    0.7950 hc        1 AXX      0.049200
     26 H182        2.6040   -2.9630   -0.9750 hc        1 AXX      0.049200
     27 H171        4.9810   -2.2660   -0.2370 hc        1 AXX      0.043200
     28 H172        4.2490   -1.3250   -1.5970 hc        1 AXX      0.043200
     29 H161        4.2820   -0.4750    1.3790 hc        1 AXX      0.044700
     30 H162        5.3770    0.1600    0.0850 hc        1 AXX      0.044700
     31 H151        3.3540    1.6300    0.6330 hc        1 AXX      0.049200
     32 H152        3.5640    1.1860   -1.1180 hc        1 AXX      0.049200
     33 H141        2.2440    2.8020   -1.1650 hn        1 AXX      0.313500
     34 H142        1.3760    4.1680   -0.6310 hn        1 AXX      0.313500
@<TRIPOS>BOND
     1    1    2 2   
     2    2    3 1   
     3    2    6 1   
     4    3    4 1   
     5    3    5 1   
     6    3   19 1   
     7    4    5 1   
     8    4   20 1   
     9    4   21 1   
    10    5   22 1   
    11    5   23 1   
    12    6    7 1   
    13    6   24 1   
    14    7    8 1   
    15    7   15 2   
    16    8    9 1   
    17    9   10 1   
    18    9   14 2   
    19   10   11 1   
    20   10   25 1   
    21   10   26 1   
    22   11   12 1   
    23   11   27 1   
    24   11   28 1   
    25   12   13 1   
    26   12   29 1   
    27   12   30 1   
    28   13   14 1   
    29   13   31 1   
    30   13   32 1   
    31   14   15 1   
    32   15   16 1   
    33   16   17 2   
    34   16   18 1   
    35   18   33 1   
    36   18   34 1   
@<TRIPOS>SUBSTRUCTURE
     1 AXX         1 TEMP              0 ****  ****    0 ROOT
