@<TRIPOS>MOLECULE
AXX
   35    37     1     0     0
SMALL
bcc


@<TRIPOS>ATOM
      1 O5         -0.0860    0.3720    0.0760 o         1 AXX     -0.562100
      2 C4          1.1550    0.3120    0.1550 c         1 AXX      0.698100
      3 C2          1.9270    0.3160    1.4220 cx        1 AXX     -0.244700
      4 C3          1.3030   -0.3660    2.6230 cx        1 AXX     -0.082900
      5 C1          1.3710    1.1240    2.5770 cx        1 AXX     -0.082900
      6 N6          1.8830    0.2330   -1.0540 ns        1 AXX     -0.434100
      7 C7          1.2570    0.2160   -2.2720 cc        1 AXX      0.130500
      8 S11        -0.4100    0.2720   -2.4570 ss        1 AXX      0.279200
      9 C10        -0.3440    0.1950   -4.1240 cc        1 AXX     -0.154400
     10 C18        -1.5580    0.1940   -4.9660 c3        1 AXX     -0.014100
     11 C17        -1.2210    0.5050   -6.4130 c3        1 AXX     -0.076400
     12 C16        -0.0330   -0.3090   -6.8720 c3        1 AXX     -0.075400
     13 C15         1.2190    0.0000   -6.0640 c3        1 AXX     -0.024100
     14 C9          0.9420    0.1210   -4.6150 cd        1 AXX     -0.059300
     15 C8          1.9140    0.1630   -3.5460 cd        1 AXX     -0.328600
     16 C12         3.3310    0.1790   -3.6260 c         1 AXX      0.600700
     17 O13         4.1880    0.1040   -2.7420 o         1 AXX     -0.512100
     18 N14         3.9600    0.3540   -5.0010 nz        1 AXX     -0.753400
     19 H2          3.0270    0.2620    1.3050 hc        1 AXX      0.105700
     20 H31         1.9720   -0.9270    3.3020 hc        1 AXX      0.097200
     21 H32         0.3200   -0.8590    2.4970 hc        1 AXX      0.097200
     22 H11         0.4370    1.6960    2.4180 hc        1 AXX      0.097200
     23 H12         2.0900    1.6620    3.2220 hc        1 AXX      0.097200
     24 HN6         2.8810    0.1700   -1.0190 hn        1 AXX      0.357500
     25 H181       -2.2970    0.9480   -4.5830 hc        1 AXX      0.071200
     26 H182       -2.0480   -0.8180   -4.9050 hc        1 AXX      0.071200
     27 H171       -2.1100    0.2720   -7.0570 hc        1 AXX      0.061700
     28 H172       -1.0000    1.5980   -6.5240 hc        1 AXX      0.061700
     29 H161        0.1740   -0.1020   -7.9550 hc        1 AXX      0.061200
     30 H162       -0.2730   -1.4020   -6.7780 hc        1 AXX      0.061200
     31 H151        1.6550    0.9660   -6.4440 hc        1 AXX      0.032200
     32 H152        1.9510   -0.8300   -6.2570 hc        1 AXX      0.032200
     33 H141        4.9650    0.5330   -4.8940 hn        1 AXX      0.463133
     34 H142        3.8270   -0.4980   -5.5530 hn        1 AXX      0.463133
     35 H143        3.5160    1.1360   -5.4900 hn        1 AXX      0.463133
@<TRIPOS>BOND
     1    1    2 2   
     2    2    3 1   
     3    2    6 1   
     4    3    4 1   
     5    3    5 1   
     6    3   19 1   
     7    4    5 1   
     8    4   20 1   
     9    4   21 1   
    10    5   22 1   
    11    5   23 1   
    12    6    7 1   
    13    6   24 1   
    14    7    8 1   
    15    7   15 2   
    16    8    9 1   
    17    9   10 1   
    18    9   14 2   
    19   10   11 1   
    20   10   25 1   
    21   10   26 1   
    22   11   12 1   
    23   11   27 1   
    24   11   28 1   
    25   12   13 1   
    26   12   29 1   
    27   12   30 1   
    28   13   14 1   
    29   13   31 1   
    30   13   32 1   
    31   14   15 1   
    32   15   16 1   
    33   16   17 2   
    34   16   18 1   
    35   18   33 1   
    36   18   34 1   
    37   18   35 1   
@<TRIPOS>SUBSTRUCTURE
     1 AXX         1 TEMP              0 ****  ****    0 ROOT
