@<TRIPOS>MOLECULE
AXX
   35    37     1     0     0
SMALL
bcc


@<TRIPOS>ATOM
      1 O5         -0.1170    0.2570    0.0670 o         1 AXX     -0.562100
      2 C4          1.1240    0.2330    0.1560 c         1 AXX      0.698100
      3 C2          1.8840    0.2280    1.4300 cx        1 AXX     -0.244700
      4 C3          1.2690   -0.5000    2.6090 cx        1 AXX     -0.082900
      5 C1          1.2960    0.9920    2.5990 cx        1 AXX     -0.082900
      6 N6          1.8660    0.2070   -1.0470 n         1 AXX     -0.434100
      7 C7          1.2520    0.2030   -2.2710 cc        1 AXX      0.130500
      8 S11        -0.4150    0.2130   -2.4710 ss        1 AXX      0.279200
      9 C10        -0.3310    0.1810   -4.1390 cc        1 AXX     -0.154400
     10 C18        -1.5370    0.1650   -4.9920 c3        1 AXX     -0.014100
     11 C17        -1.1970    0.5230   -6.4270 c3        1 AXX     -0.076400
     12 C16         0.0200   -0.2420   -6.8960 c3        1 AXX     -0.075400
     13 C15         1.2550    0.0840   -6.0680 c3        1 AXX     -0.024100
     14 C9          0.9610    0.1590   -4.6190 cd        1 AXX     -0.059300
     15 C8          1.9210    0.2020   -3.5400 cd        1 AXX     -0.328600
     16 C12         3.3380    0.2630   -3.6060 c         1 AXX      0.600700
     17 O13         4.1880    0.1910   -2.7150 o         1 AXX     -0.512100
     18 N14         3.9730    0.4920   -4.9690 n4        1 AXX     -0.753400
     19 H2          2.9870    0.2070    1.3230 hc        1 AXX      0.105700
     20 H31         0.3010   -1.0170    2.4610 hc        1 AXX      0.097200
     21 H32         1.9470   -1.0580    3.2800 hc        1 AXX      0.097200
     22 H11         0.3470    1.5410    2.4450 hc        1 AXX      0.097200
     23 H12         1.9930    1.5340    3.2640 hc        1 AXX      0.097200
     24 HN6         2.8650    0.1730   -1.0040 hn        1 AXX      0.357500
     25 H181       -1.9960   -0.8630   -4.9630 hc        1 AXX      0.071200
     26 H182       -2.3030    0.8850   -4.5970 hc        1 AXX      0.071200
     27 H171       -2.0720    0.2810   -7.0860 hc        1 AXX      0.061700
     28 H172       -1.0080    1.6260   -6.5080 hc        1 AXX      0.061700
     29 H161        0.2300    0.0000   -7.9710 hc        1 AXX      0.061200
     30 H162       -0.1870   -1.3430   -6.8320 hc        1 AXX      0.061200
     31 H151        1.6640    1.0720   -6.4180 hc        1 AXX      0.032200
     32 H152        2.0130   -0.7190   -6.2750 hc        1 AXX      0.032200
     33 H141        4.9720    0.6990   -4.8480 hn        1 AXX      0.463133
     34 H142        3.8710   -0.3500   -5.5430 hn        1 AXX      0.463133
     35 H143        3.5110    1.2730   -5.4420 hn        1 AXX      0.463133
@<TRIPOS>BOND
     1    1    2 2   
     2    2    3 1   
     3    2    6 1   
     4    3    4 1   
     5    3    5 1   
     6    3   19 1   
     7    4    5 1   
     8    4   20 1   
     9    4   21 1   
    10    5   22 1   
    11    5   23 1   
    12    6    7 1   
    13    6   24 1   
    14    7    8 1   
    15    7   15 2   
    16    8    9 1   
    17    9   10 1   
    18    9   14 2   
    19   10   11 1   
    20   10   25 1   
    21   10   26 1   
    22   11   12 1   
    23   11   27 1   
    24   11   28 1   
    25   12   13 1   
    26   12   29 1   
    27   12   30 1   
    28   13   14 1   
    29   13   31 1   
    30   13   32 1   
    31   14   15 1   
    32   15   16 1   
    33   16   17 2   
    34   16   18 1   
    35   18   33 1   
    36   18   34 1   
    37   18   35 1   
@<TRIPOS>SUBSTRUCTURE
     1 AXX         1 TEMP              0 ****  ****    0 ROOT
