@<TRIPOS>MOLECULE
AXY
   51    54     1     0     0
SMALL
bcc


@<TRIPOS>ATOM
      1 CAK         0.8290    1.2190    0.8950 ca        1 AXY     -0.126000
      2 CAE         2.0560    1.7340    1.3050 ca        1 AXY     -0.135000
      3 CAC         2.1930    2.2950    2.5750 ca        1 AXY     -0.145000
      4 CAF         1.0950    2.3370    3.4340 ca        1 AXY     -0.135000
      5 CAL        -0.1340    1.8230    3.0280 ca        1 AXY     -0.126000
      6 CAZ        -0.2820    1.2580    1.7520 cp        1 AXY     -0.008000
      7 CBB        -1.5700    0.7190    1.3240 cp        1 AXY     -0.076000
      8 CAR        -2.3830    0.0130    2.2230 ca        1 AXY     -0.122000
      9 CAJ        -3.6130   -0.4990    1.8190 ca        1 AXY     -0.135500
     10 CAQ        -2.0170    0.9010    0.0080 ca        1 AXY     -0.122000
     11 CAI        -3.2470    0.3920   -0.3960 ca        1 AXY     -0.135500
     12 CAX        -4.0590   -0.3120    0.5030 ca        1 AXY     -0.044300
     13 CAU        -5.3860   -0.8200    0.0630 c3        1 AXY     -0.044100
     14 CBD        -5.7320   -2.1750    0.6780 c3        1 AXY      0.009100
     15 CAW        -6.5210   -1.9890    2.0100 c         1 AXY      0.898600
     16 OAB        -5.9800   -2.4950    3.0360 o         1 AXY     -0.817800
     17 OAA        -7.5910   -1.3310    2.0000 o         1 AXY     -0.817800
     18 OAV        -6.5140   -2.8380   -0.3420 os        1 AXY     -0.322900
     19 CAY        -6.7000   -4.1870   -0.1980 ca        1 AXY      0.176100
     20 CAP        -7.2370   -4.8360   -1.3310 ca        1 AXY     -0.195500
     21 CAT        -7.4620   -6.2040   -1.2970 ca        1 AXY     -0.086500
     22 CAO        -6.4070   -4.9260    0.9610 ca        1 AXY     -0.195500
     23 CAS        -6.6330   -6.2960    0.9700 ca        1 AXY     -0.086500
     24 CBC        -7.1550   -6.9560   -0.1530 cp        1 AXY     -0.123000
     25 CBA        -7.3800   -8.3970   -0.1310 cp        1 AXY      0.008000
     26 CAM        -6.4770   -9.2510    0.5220 ca        1 AXY     -0.132000
     27 CAG        -6.6920  -10.6270    0.5400 ca        1 AXY     -0.133500
     28 CAD        -7.8090  -11.1730   -0.0910 ca        1 AXY     -0.151000
     29 CAH        -8.7130  -10.3340   -0.7410 ca        1 AXY     -0.133500
     30 CAN        -8.5030   -8.9570   -0.7610 ca        1 AXY     -0.132000
     31 H1          0.7270    0.7700   -0.1050 ha        1 AXY      0.137000
     32 H2          2.9200    1.6960    0.6260 ha        1 AXY      0.122000
     33 H3          3.1620    2.7010    2.8970 ha        1 AXY      0.120000
     34 H4          1.1980    2.7790    4.4360 ha        1 AXY      0.122000
     35 H5         -1.0000    1.8610    3.7070 ha        1 AXY      0.137000
     36 H6         -2.0440   -0.1460    3.2570 ha        1 AXY      0.122500
     37 H7         -4.2490   -1.0600    2.5340 ha        1 AXY      0.160500
     38 H8         -1.3940    1.4580   -0.7080 ha        1 AXY      0.122500
     39 H9         -3.5860    0.5440   -1.4310 ha        1 AXY      0.160500
     40 H10        -6.1840   -0.0870    0.3710 hc        1 AXY      0.068200
     41 H11        -5.4170   -0.9000   -1.0570 hc        1 AXY      0.068200
     42 H12        -4.8050   -2.7800    0.8680 h1        1 AXY      0.043700
     43 H14        -7.4760   -4.2440   -2.2250 ha        1 AXY      0.167500
     44 H15        -7.8750   -6.7070   -2.1840 ha        1 AXY      0.120500
     45 H16        -6.0350   -4.4120    1.8680 ha        1 AXY      0.167500
     46 H17        -6.4140   -6.8690    1.8840 ha        1 AXY      0.120500
     47 H18        -5.5920   -8.8260    1.0180 ha        1 AXY      0.135000
     48 H19        -5.9760  -11.2850    1.0540 ha        1 AXY      0.119500
     49 H20        -7.9770  -12.2590   -0.0760 ha        1 AXY      0.118000
     50 H21        -9.5980  -10.7580   -1.2360 ha        1 AXY      0.119500
     51 H22        -9.2260   -8.2980   -1.2650 ha        1 AXY      0.135000
@<TRIPOS>BOND
     1    1    2 ar  
     2    1    6 ar  
     3    1   31 1   
     4    2    3 ar  
     5    2   32 1   
     6    3    4 ar  
     7    3   33 1   
     8    4    5 ar  
     9    4   34 1   
    10    5    6 ar  
    11    5   35 1   
    12    6    7 1   
    13    7    8 ar  
    14    7   10 ar  
    15    8    9 ar  
    16    8   36 1   
    17    9   12 ar  
    18    9   37 1   
    19   10   11 ar  
    20   10   38 1   
    21   11   12 ar  
    22   11   39 1   
    23   12   13 1   
    24   13   14 1   
    25   13   40 1   
    26   13   41 1   
    27   14   15 1   
    28   14   18 1   
    29   14   42 1   
    30   15   16 1   
    31   15   17 1   
    32   18   19 1   
    33   19   20 ar  
    34   19   22 ar  
    35   20   21 ar  
    36   20   43 1   
    37   21   24 ar  
    38   21   44 1   
    39   22   23 ar  
    40   22   45 1   
    41   23   24 ar  
    42   23   46 1   
    43   24   25 1   
    44   25   26 ar  
    45   25   30 ar  
    46   26   27 ar  
    47   26   47 1   
    48   27   28 ar  
    49   27   48 1   
    50   28   29 ar  
    51   28   49 1   
    52   29   30 ar  
    53   29   50 1   
    54   30   51 1   
@<TRIPOS>SUBSTRUCTURE
     1 AXY         1 TEMP              0 ****  ****    0 ROOT
