@<TRIPOS>MOLECULE
AXY
   51    54     1     0     0
SMALL
bcc


@<TRIPOS>ATOM
      1 CAK         0.2240    0.1220    0.2010 ca        1 AXY     -0.125500
      2 CAE         1.6120    0.2200    0.2600 ca        1 AXY     -0.134000
      3 CAC         2.2500    0.4380    1.4810 ca        1 AXY     -0.143000
      4 CAF         1.4920    0.5560    2.6450 ca        1 AXY     -0.134000
      5 CAL         0.1030    0.4590    2.5910 ca        1 AXY     -0.125500
      6 CAZ        -0.5470    0.2400    1.3670 cp        1 AXY     -0.009000
      7 CBB        -2.0030    0.1390    1.3080 cp        1 AXY     -0.075000
      8 CAR        -2.8090    0.9730    2.0940 ca        1 AXY     -0.119500
      9 CAJ        -4.1960    0.8780    2.0330 ca        1 AXY     -0.136000
     10 CAQ        -2.6190   -0.7970    0.4640 ca        1 AXY     -0.119500
     11 CAI        -4.0050   -0.8920    0.4070 ca        1 AXY     -0.136000
     12 CAX        -4.8130   -0.0540    1.1880 ca        1 AXY     -0.042300
     13 CAU        -6.2950   -0.1290    1.1040 c3        1 AXY     -0.044100
     14 CBD        -6.8670   -1.5210    1.3540 c3        1 AXY      0.014100
     15 CAW        -8.3550   -1.4070    1.8160 c         1 AXY      0.906600
     16 OAB        -8.7220   -2.2140    2.7150 o         1 AXY     -0.818800
     17 OAA        -9.0690   -0.5040    1.3120 o         1 AXY     -0.818800
     18 OAV        -6.7580   -2.2080    0.0830 os        1 AXY     -0.331900
     19 CAY        -6.6940   -3.5750    0.1160 ca        1 AXY      0.166100
     20 CAP        -6.1510   -4.1760   -1.0390 ca        1 AXY     -0.194000
     21 CAT        -6.0630   -5.5590   -1.1170 ca        1 AXY     -0.090000
     22 CAO        -7.1510   -4.3750    1.1770 ca        1 AXY     -0.194000
     23 CAS        -7.0440   -5.7570    1.0820 ca        1 AXY     -0.090000
     24 CBC        -6.4970   -6.3690   -0.0570 cp        1 AXY     -0.119000
     25 CBA        -6.3860   -7.8210   -0.1400 cp        1 AXY      0.006000
     26 CAM        -6.0430   -8.5760    0.9930 ca        1 AXY     -0.131000
     27 CAG        -5.9350   -9.9630    0.9120 ca        1 AXY     -0.133500
     28 CAD        -6.1670  -10.6170   -0.2970 ca        1 AXY     -0.151000
     29 CAH        -6.5090   -9.8760   -1.4280 ca        1 AXY     -0.133500
     30 CAN        -6.6190   -8.4890   -1.3520 ca        1 AXY     -0.131000
     31 H1         -0.2760   -0.0450   -0.7650 ha        1 AXY      0.136000
     32 H2          2.2060    0.1270   -0.6610 ha        1 AXY      0.123000
     33 H3          3.3450    0.5140    1.5260 ha        1 AXY      0.121000
     34 H4          1.9900    0.7240    3.6110 ha        1 AXY      0.123000
     35 H5         -0.4910    0.5440    3.5140 ha        1 AXY      0.136000
     36 H6         -2.3410    1.7140    2.7590 ha        1 AXY      0.122000
     37 H7         -4.8170    1.5400    2.6560 ha        1 AXY      0.144500
     38 H8         -2.0000   -1.4690   -0.1500 ha        1 AXY      0.122000
     39 H9         -4.4900   -1.6360   -0.2480 ha        1 AXY      0.144500
     40 H10        -6.6290    0.2090    0.0850 hc        1 AXY      0.077700
     41 H11        -6.7690    0.5620    1.8520 hc        1 AXY      0.077700
     42 H12        -6.2710   -2.0740    2.1270 h1        1 AXY      0.044700
     43 H14        -5.8110   -3.5390   -1.8660 ha        1 AXY      0.172000
     44 H15        -5.6340   -6.0240   -2.0170 ha        1 AXY      0.120500
     45 H16        -7.6260   -3.8990    2.0590 ha        1 AXY      0.172000
     46 H17        -7.4130   -6.3810    1.9100 ha        1 AXY      0.120500
     47 H18        -5.8540   -8.0640    1.9480 ha        1 AXY      0.135000
     48 H19        -5.6650  -10.5420    1.8070 ha        1 AXY      0.120000
     49 H20        -6.0810  -11.7100   -0.3590 ha        1 AXY      0.118000
     50 H21        -6.6970  -10.3870   -2.3830 ha        1 AXY      0.120000
     51 H22        -6.9010   -7.9100   -2.2440 ha        1 AXY      0.135000
@<TRIPOS>BOND
     1    1    2 ar  
     2    1    6 ar  
     3    1   31 1   
     4    2    3 ar  
     5    2   32 1   
     6    3    4 ar  
     7    3   33 1   
     8    4    5 ar  
     9    4   34 1   
    10    5    6 ar  
    11    5   35 1   
    12    6    7 1   
    13    7    8 ar  
    14    7   10 ar  
    15    8    9 ar  
    16    8   36 1   
    17    9   12 ar  
    18    9   37 1   
    19   10   11 ar  
    20   10   38 1   
    21   11   12 ar  
    22   11   39 1   
    23   12   13 1   
    24   13   14 1   
    25   13   40 1   
    26   13   41 1   
    27   14   15 1   
    28   14   18 1   
    29   14   42 1   
    30   15   16 1   
    31   15   17 1   
    32   18   19 1   
    33   19   20 ar  
    34   19   22 ar  
    35   20   21 ar  
    36   20   43 1   
    37   21   24 ar  
    38   21   44 1   
    39   22   23 ar  
    40   22   45 1   
    41   23   24 ar  
    42   23   46 1   
    43   24   25 1   
    44   25   26 ar  
    45   25   30 ar  
    46   26   27 ar  
    47   26   47 1   
    48   27   28 ar  
    49   27   48 1   
    50   28   29 ar  
    51   28   49 1   
    52   29   30 ar  
    53   29   50 1   
    54   30   51 1   
@<TRIPOS>SUBSTRUCTURE
     1 AXY         1 TEMP              0 ****  ****    0 ROOT
