@<TRIPOS>MOLECULE
AXZ
   38    36     1     0     0
SMALL
bcc


@<TRIPOS>ATOM
      1 O2S         3.2920    0.6040    1.6850 oh        1 AXZ     -0.570800
      2 S           3.2030   -1.0440    2.0450 s4        1 AXZ      0.744200
      3 O1S         5.3110   -0.5000    0.9380 oh        1 AXZ     -0.743600
      4 C1          1.8640   -1.1090    3.0410 ca        1 AXZ     -0.280500
      5 C2          1.5060    0.0090    3.8160 ca        1 AXZ     -0.024500
      6 C6          1.1540   -2.3070    3.2340 ca        1 AXZ     -0.024500
      7 C5          0.1320   -2.3880    4.1700 ca        1 AXZ     -0.142500
      8 C4         -0.2160   -1.2690    4.9420 ca        1 AXZ      0.034700
      9 C3          0.4860   -0.0690    4.7540 ca        1 AXZ     -0.142500
     10 C7         -1.3140   -1.3490    5.9280 c3        1 AXZ     -0.086800
     11 N           2.7650   -1.7600    0.7210 n8        1 AXZ     -0.840500
     12 CA          0.9610   -0.9330   -2.6190 cx        1 AXZ      0.025100
     13 CB          2.1600   -1.6700   -3.1630 c3        1 AXZ      0.127400
     14 C           1.0460   -0.2290   -1.3500 c         1 AXZ      0.723600
     15 O           1.2980    0.5410   -0.4520 o         1 AXZ     -0.551500
     16 OXT         0.4650   -1.4750   -1.3220 os        1 AXZ     -0.453900
     17 O9          2.8010   -2.4030   -2.1380 oh        1 AXZ     -0.612800
     18 H2S1        2.5260    1.0250    1.2800 ho        1 AXZ      0.490000
     19 H1S1        5.3030    0.4660    0.8470 ho        1 AXZ      0.451000
     20 H21         2.0460    0.9640    3.6830 ha        1 AXZ      0.150000
     21 H61         1.4080   -3.2050    2.6460 ha        1 AXZ      0.150000
     22 H51        -0.4100   -3.3380    4.3110 ha        1 AXZ      0.165000
     23 H31         0.2250    0.8180    5.3560 ha        1 AXZ      0.165000
     24 H71        -1.4190   -2.3870    6.3350 hc        1 AXZ      0.073033
     25 H72        -2.2830   -1.0680    5.4380 hc        1 AXZ      0.073033
     26 H           1.8410   -1.9830    0.4230 hn        1 AXZ      0.483300
     27 HA          0.1580   -0.6930   -3.3460 h1        1 AXZ      0.144700
     28 HB2         2.9290   -0.9380   -3.5350 h1        1 AXZ      0.091700
     29 HB3         1.8420   -2.3440   -4.0040 h1        1 AXZ      0.091700
     30 H91         2.2670   -3.1910   -1.9710 ho        1 AXZ      0.422000
     31 C8          6.6020   -1.0200    0.8010 c2        1 AXZ      0.616500
     32 N1          7.7000   -0.4130    0.6090 n2        1 AXZ     -0.787100
     33 H2          6.5480   -2.1240    0.8870 h5        1 AXZ      0.068800
     34 H3         -1.1430   -0.6490    6.7840 hc        1 AXZ      0.073033
     35 H4         -3.2850   -1.4730    7.6350 ha        1 AXZ     -0.000500
     36 H5         -3.7890   -1.5050    8.0870 ha        1 AXZ     -0.000500
     37 H22         3.4420   -1.9290    0.0010 hn        1 AXZ      0.483300
     38 H13         7.7100    0.5810    0.5350 hn        1 AXZ      0.415400
@<TRIPOS>BOND
     1    1    2 1   
     2    1   18 1   
     3    2    4 1   
     4    2   11 1   
     5    3   19 1   
     6    3   31 1   
     7    4    5 ar  
     8    4    6 ar  
     9    5    9 ar  
    10    5   20 1   
    11    6    7 ar  
    12    6   21 1   
    13    7    8 ar  
    14    7   22 1   
    15    8    9 ar  
    16    8   10 1   
    17    9   23 1   
    18   10   24 1   
    19   10   25 1   
    20   10   34 1   
    21   11   26 1   
    22   11   37 1   
    23   12   13 1   
    24   12   14 1   
    25   12   16 1   
    26   12   27 1   
    27   13   17 1   
    28   13   28 1   
    29   13   29 1   
    30   14   15 2   
    31   14   16 1   
    32   17   30 1   
    33   31   32 2   
    34   31   33 1   
    35   32   38 1   
    36   35   36 1   
@<TRIPOS>SUBSTRUCTURE
     1 AXZ         1 TEMP              0 ****  ****    0 ROOT
