@<TRIPOS>MOLECULE
AXZ
   38    36     1     0     0
SMALL
bcc


@<TRIPOS>ATOM
      1 O2S         3.0020    0.5540    2.0870 oh        1 AXZ     -0.701500
      2 S           3.4730   -1.0650    1.8950 s6        1 AXZ      1.799000
      3 O1S         4.5480   -0.5400    3.1800 oh        1 AXZ     -0.701500
      4 C1          2.2270   -1.8480    2.6810 ca        1 AXZ     -0.711000
      5 C2          1.3260   -2.6300    1.9390 ca        1 AXZ     -0.024000
      6 C6          2.1020   -1.8370    4.0800 ca        1 AXZ     -0.024000
      7 C5          1.1230   -2.5840    4.7180 ca        1 AXZ     -0.152500
      8 C4          0.2310   -3.3680    3.9700 ca        1 AXZ      0.027000
      9 C3          0.3430   -3.3810    2.5730 ca        1 AXZ     -0.152500
     10 C7         -0.8060   -4.1790    4.6460 c3        1 AXZ     -0.206000
     11 N           0.8160   -1.9400   -1.8290 n3        1 AXZ     -0.339000
     12 CA          1.8360   -0.9150   -1.9140 c3        1 AXZ     -0.071000
     13 CB          1.5290    0.2470   -2.8860 c3        1 AXZ     -0.048000
     14 C           2.0480   -0.3250   -0.5210 c2        1 AXZ      0.381000
     15 O           3.0080   -0.8780    0.2110 os        1 AXZ     -0.656000
     16 OXT         1.4170    0.6240   -0.0260 o         1 AXZ     -0.443000
     17 O9          0.2320    0.7610   -2.6920 oh        1 AXZ     -0.322000
     18 H2S1        2.0880    0.7340    1.8310 ho        1 AXZ      0.273000
     19 H1S1        5.1330   -1.2350    3.4620 ho        1 AXZ      0.273000
     20 H21         1.3950   -2.6450    0.8340 ha        1 AXZ      0.157000
     21 H61         2.7990   -1.2240    4.6790 ha        1 AXZ      0.157000
     22 H51         1.0450   -2.5630    5.8170 ha        1 AXZ      0.157500
     23 H31        -0.3540   -3.9880    1.9730 ha        1 AXZ      0.157500
     24 H71        -0.4160   -5.2150    4.8220 hc        1 AXZ      0.106000
     25 H72        -1.7280   -4.2550    4.0180 hc        1 AXZ      0.106000
     26 H          -0.0950   -1.5190   -1.8210 hn        1 AXZ      0.169000
     27 HA          2.8100   -1.3940   -2.2310 h1        1 AXZ      0.133000
     28 HB2         1.5350   -0.1280   -3.9450 h1        1 AXZ      0.098500
     29 HB3         2.3020    1.0500   -2.7640 h1        1 AXZ      0.098500
     30 H91         0.2050    1.1610   -1.8110 ho        1 AXZ      0.221000
     31 C8          4.3240    2.2890    3.1290 c1        1 AXZ      0.307000
     32 N1          3.9330    3.2720    2.6610 n2        1 AXZ     -0.125000
     33 H2         -1.0830   -3.7370    5.6350 hc        1 AXZ      0.106000
     34 H3          4.6690    1.3200    3.5470 ha        1 AXZ      0.395000
     35 H4          3.5850    4.0950    2.2470 hn        1 AXZ      0.386000
     36 H5          2.5050   -1.2920    7.6230 ha        1 AXZ      0.000500
     37 H22         0.8860   -2.5590   -2.6130 hn        1 AXZ      0.169000
     38 H13         2.5370   -1.2500    6.9480 ha        1 AXZ      0.000500
@<TRIPOS>BOND
     1    1    2 1   
     2    1   18 1   
     3    2    3 1   
     4    2    4 1   
     5    2   15 1   
     6    3   19 1   
     7    4    5 1   
     8    4    6 1   
     9    5    9 1   
    10    5   20 1   
    11    6    7 1   
    12    6   21 1   
    13    7    8 1   
    14    7   22 1   
    15    8    9 1   
    16    8   10 1   
    17    9   23 1   
    18   10   24 1   
    19   10   25 1   
    20   10   33 1   
    21   11   12 1   
    22   11   26 1   
    23   11   37 1   
    24   12   13 1   
    25   12   14 1   
    26   12   27 1   
    27   13   17 1   
    28   13   28 1   
    29   13   29 1   
    30   14   15 1   
    31   14   16 1   
    32   17   30 1   
    33   31   32 1   
    34   31   34 1   
    35   32   35 1   
    36   36   38 1   
@<TRIPOS>SUBSTRUCTURE
     1 AXZ         1 TEMP              0 ****  ****    0 ROOT
