@<TRIPOS>MOLECULE
AY0
   32    29     1     0     0
SMALL
bcc


@<TRIPOS>ATOM
      1 C1         -4.5230   -1.5410    0.5380 c3        1 AY0     -0.067000
      2 O2         -2.6170   -0.1560    2.0430 o         1 AY0     -0.431000
      3 O           0.3790    0.0710    2.3860 o         1 AY0     -0.563000
      4 O4          4.4450    0.8460   -4.1650 o         1 AY0     -0.864167
      5 O5          2.4560    2.3080   -4.0650 o         1 AY0     -0.864167
      6 O6          4.7190    3.2990   -4.0810 o         1 AY0     -0.864167
      7 C2          1.7130    2.0990   -1.0050 c1        1 AY0     -0.327000
      8 C3          3.0300    0.0840   -0.9450 c1        1 AY0     -0.195500
      9 C4          0.7090    1.4650   -0.2790 c1        1 AY0     -0.052000
     10 C5          2.0260   -0.5500   -0.2190 c1        1 AY0     -0.195500
     11 N          -3.1000   -1.6970    0.3920 n         1 AY0     -0.383000
     12 O7          3.9220    2.0730   -2.0120 os        1 AY0     -0.596000
     13 C6         -2.2050   -1.0550    1.3230 c2        1 AY0      0.343000
     14 C          -0.6260   -0.6960    2.4710 c1        1 AY0      0.339000
     15 C8          2.8730    1.4080   -1.3380 c1        1 AY0      0.319000
     16 C9          0.8660    0.1410    0.1140 c1        1 AY0     -0.247000
     17 C10        -1.6370   -1.2710    1.3990 cx        1 AY0     -0.226000
     18 C11        -0.7530   -1.0470    2.0410 cx        1 AY0     -0.193000
     19 C12        -1.1100   -0.2970    1.3740 cx        1 AY0     -0.002000
     20 P1          3.8850    2.1320   -3.6000 p5        1 AY0      1.565500
     21 OXT        -1.3020   -0.7390    3.5440 os        1 AY0     -0.635000
     22 H15        -4.9840   -2.1290   -0.0990 h1        1 AY0      0.051333
     23 H3         -4.7700   -0.6060    0.3580 h1        1 AY0      0.051333
     24 H6          1.6240    3.0460   -1.2380 ha        1 AY0      0.115000
     25 H7          3.8490   -0.4050   -1.1800 ha        1 AY0      0.085500
     26 H8         -0.1080    1.9520   -0.0440 ha        1 AY0      0.075000
     27 H9          2.1360   -1.4830    0.0570 ha        1 AY0      0.085500
     28 H10        -1.8770   -2.0820    0.8850 hc        1 AY0      0.125000
     29 H11         0.0300   -1.6100    2.2790 hc        1 AY0      0.109000
     30 H12        -1.5010    0.4470    1.8880 hc        1 AY0      0.117000
     31 H13        -4.7870   -1.7800    1.4550 h1        1 AY0      0.051333
     32 H2         -2.7630   -2.2270   -0.2780 hn        1 AY0      0.270000
@<TRIPOS>BOND
     1    1   11 1   
     2    1   22 1   
     3    1   23 1   
     4    1   31 1   
     5    2   13 1   
     6    3   14 1   
     7    4   20 1   
     8    5   20 1   
     9    6   20 1   
    10    7   15 1   
    11    7   24 1   
    12    8   10 1   
    13    8   25 1   
    14    9   16 1   
    15    9   26 1   
    16   10   27 1   
    17   11   13 1   
    18   11   32 1   
    19   12   15 1   
    20   12   20 1   
    21   13   17 1   
    22   14   18 1   
    23   16   19 1   
    24   17   18 1   
    25   17   19 1   
    26   17   28 1   
    27   18   19 1   
    28   18   29 1   
    29   19   30 1   
@<TRIPOS>SUBSTRUCTURE
     1 AY0         1 TEMP              0 ****  ****    0 ROOT
