@<TRIPOS>MOLECULE
AY0
   32    32     1     0     0
SMALL
bcc


@<TRIPOS>ATOM
      1 C1          1.8970    3.4950    0.0620 c3        1 AY0     -0.074000
      2 O2          3.7770    2.5530   -1.7450 o         1 AY0     -0.464000
      3 O           5.1620   -2.1830   -1.0550 o         1 AY0     -0.601500
      4 O4         -5.5550   -0.5760    1.3000 o         1 AY0     -1.182000
      5 O5         -5.1830    0.6940   -0.8680 o         1 AY0     -1.182000
      6 O6         -4.9960    1.9010    1.3610 o         1 AY0     -1.182000
      7 C2         -0.6100   -0.4000    1.3380 ca        1 AY0     -0.330000
      8 C3         -1.2010   -0.0330   -0.9960 ca        1 AY0     -0.330000
      9 C4          0.6950   -0.6270    0.9570 ca        1 AY0     -0.062500
     10 C5          0.1090   -0.2650   -1.3450 ca        1 AY0     -0.062500
     11 N           2.3870    2.1550    0.0320 n         1 AY0     -0.362000
     12 C6          3.2210    1.7170   -0.9860 c2        1 AY0      0.344000
     13 C8         -1.6350   -0.0840    0.3770 ca        1 AY0      0.315000
     14 C9          1.1000   -0.5530   -0.3860 ca        1 AY0     -0.276000
     15 C10         3.4940    0.2610   -1.1210 cx        1 AY0     -0.225000
     16 C11         3.6760   -0.6470    0.0760 cx        1 AY0     -0.175000
     17 C12         2.4760   -0.8310   -0.8120 cx        1 AY0     -0.031000
     18 P1         -5.0350    0.6260    0.6060 p3        1 AY0      2.518000
     19 H15         0.9170    3.5970   -0.4800 h1        1 AY0      0.062333
     20 H3          1.7380    3.8000    1.1320 h1        1 AY0      0.062333
     21 H6         -0.9060   -0.4630    2.3920 ha        1 AY0      0.112500
     22 H7         -1.9610    0.1960   -1.7550 ha        1 AY0      0.112500
     23 H8          1.4490   -0.8810    1.7210 ha        1 AY0      0.084500
     24 H9          0.4040   -0.2240   -2.4060 ha        1 AY0      0.084500
     25 H10         4.1740    0.0740   -1.9800 hc        1 AY0      0.140000
     26 H11         3.5240   -0.2260    1.0880 hc        1 AY0      0.110000
     27 H12         2.5300   -1.6950   -1.5140 hc        1 AY0      0.113000
     28 H13         2.6400    4.1890   -0.4120 h1        1 AY0      0.062333
     29 H2          1.7900    1.4640    0.4480 hn        1 AY0      0.256000
     30 C           4.8290   -1.6380    0.0400 c2        1 AY0      0.349000
     31 OXT         5.4410   -1.8730    1.1270 o         1 AY0     -0.601500
     32 O7         -2.8430    0.1330    0.7270 o         1 AY0     -0.585000
@<TRIPOS>BOND
     1    1   11 1   
     2    1   19 1   
     3    1   20 1   
     4    1   28 1   
     5    2   12 1   
     6    3   30 1   
     7    4   18 1   
     8    5   18 1   
     9    6   18 1   
    10    7    9 1   
    11    7   13 1   
    12    7   21 1   
    13    8   10 1   
    14    8   13 1   
    15    8   22 1   
    16    9   14 1   
    17    9   23 1   
    18   10   14 1   
    19   10   24 1   
    20   11   12 1   
    21   11   29 1   
    22   12   15 1   
    23   13   32 1   
    24   14   17 1   
    25   15   16 1   
    26   15   17 1   
    27   15   25 1   
    28   16   17 1   
    29   16   26 1   
    30   16   30 1   
    31   17   27 1   
    32   30   31 1   
@<TRIPOS>SUBSTRUCTURE
     1 AY0         1 TEMP              0 ****  ****    0 ROOT
