@<TRIPOS>MOLECULE
AY1
   82    76     1     0     0
SMALL
bcc


@<TRIPOS>ATOM
      1 C1          2.3120    1.3670   -0.4850 c1        1 AY1      0.320000
      2 C2          2.0220    0.4650    3.7770 c2        1 AY1     -0.220000
      3 C3          1.2600   -0.6090    3.3150 c1        1 AY1     -0.114000
      4 C5          4.0640   -1.8800    3.6570 c3        1 AY1     -0.144000
      5 O5          6.0980    0.8620    6.0610 oh        1 AY1     -0.299250
      6 C6          4.3370   -0.4620    3.3370 c2        1 AY1     -0.328000
      7 C7          3.3790    0.5380    3.7590 c2        1 AY1      0.160000
      8 C8          5.5020   -0.1000    2.6790 c2        1 AY1      0.241000
      9 C9          7.6580   -0.6350    1.6190 c2        1 AY1     -0.062000
     10 C12         6.5670    2.0900    6.0870 c1        1 AY1      0.124500
     11 C13         9.6110    1.7380    7.7100 c3        1 AY1     -0.142000
     12 C14         9.9310    0.2960    7.9090 c2        1 AY1      0.025000
     13 C4          0.5620   -1.5020    2.9240 c1        1 AY1     -0.221000
     14 N1          2.6800    1.3770    0.6900 n2        1 AY1     -0.385000
     15 N2          6.4490   -1.0050    2.2370 n3        1 AY1     -0.253000
     16 O1          2.1240    1.5630   -1.6570 o         1 AY1     -0.216000
     17 O2          4.0130    1.7010    4.1800 oh        1 AY1     -0.317000
     18 O3          5.7800    1.2180    2.3640 oh        1 AY1     -0.282000
     19 C10         8.5650    0.2790    2.0030 c2        1 AY1     -0.164000
     20 O4          6.4800    2.7880    4.9770 oh        1 AY1     -0.299250
     21 O6          7.7910   -3.3510    5.6910 oh        1 AY1     -0.299250
     22 C15        10.6640   -0.5030    7.1180 c2        1 AY1     -0.190000
     23 C16        10.9130   -1.9360    7.3510 c3        1 AY1     -0.181000
     24 C17         7.3100   -2.4780    4.8400 c1        1 AY1      0.124500
     25 C18        10.5290    2.4660    6.7530 c3        1 AY1     -0.154000
     26 C19        11.9330    2.6200    7.2980 c3        1 AY1     -0.162000
     27 C20        12.8260    3.3430    6.3120 c3        1 AY1     -0.163000
     28 O7          7.0950   -1.2560    5.2710 oh        1 AY1     -0.299250
     29 O8          9.4230   -0.1500    9.1440 os        1 AY1     -0.231000
     30 C21        14.2300    3.4940    6.8560 c3        1 AY1     -0.140000
     31 C22        15.1170    4.2470    5.8830 c3        1 AY1     -0.247000
     32 C23        16.5080    4.2580    6.2900 c1        1 AY1     -0.045000
     33 C24         8.4560   -1.1120    9.1770 c2        1 AY1      0.344000
     34 C25         8.0290   -1.4440   10.5860 c3        1 AY1     -0.098000
     35 C26         8.3860   -2.8850   10.8890 c3        1 AY1     -0.213000
     36 C27         6.5410   -1.2000   10.7300 c3        1 AY1     -0.213000
     37 H1          2.3700    0.7810    1.4190 hn        1 AY1      0.275000
     38 H3         -0.0520   -2.2950    2.5810 ha        1 AY1      0.225000
     39 H5          3.1040   -1.9890    4.2200 hc        1 AY1      0.082000
     40 HO5         5.6980    0.5520    5.2180 ho        1 AY1      0.235000
     41 H8          4.8900   -2.3000    4.2900 hc        1 AY1      0.082000
     42 H9          7.8300   -1.2480    0.7100 h4        1 AY1      0.141000
     43 H12         6.0860    2.3400    4.2000 ho        1 AY1      0.235000
     44 H13         8.5500    1.8090    7.3280 hc        1 AY1      0.118500
     45 H14         9.6350    2.2510    8.7110 hc        1 AY1      0.118500
     46 H4          3.9940   -2.4940    2.7230 hc        1 AY1      0.082000
     47 HN1         1.4360    1.3060    4.1940 ha        1 AY1      0.142000
     48 HN2         6.4990   -1.8560    2.7780 hn        1 AY1      0.269000
     49 HO2         3.3530    2.3420    4.4780 ho        1 AY1      0.234000
     50 HO3         4.9380    1.6740    2.1930 ho        1 AY1      0.256000
     51 H10         8.0390    2.1290    2.9270 hc        1 AY1      0.087000
     52 H15        11.1190   -0.0810    6.2040 ha        1 AY1      0.143000
     53 H161       10.1950   -2.5480    6.7430 hc        1 AY1      0.083667
     54 H162       10.7700   -2.2080    8.4270 hc        1 AY1      0.083667
     55 H163       11.9540   -2.2080    7.0490 hc        1 AY1      0.083667
     56 H17         7.9500   -3.0390    6.6040 ho        1 AY1      0.235000
     57 H181       11.9830    1.0370    4.2050 ha        1 AY1      0.001500
     58 H182       11.6270    0.5050    3.9850 ha        1 AY1      0.001500
     59 H191       10.5600    1.9340    5.7650 hc        1 AY1      0.085500
     60 H192       10.0940    3.4840    6.5610 hc        1 AY1      0.085500
     61 H201       11.9020    3.1880    8.2640 hc        1 AY1      0.085000
     62 H202       12.3610    1.6070    7.5220 hc        1 AY1      0.085000
     63 HO7         7.2900   -1.0560    6.2110 ho        1 AY1      0.235000
     64 H211       12.3960    4.3540    6.0870 hc        1 AY1      0.076000
     65 H212       12.8550    2.7730    5.3450 hc        1 AY1      0.076000
     66 H221       14.6740    2.4840    7.0610 hc        1 AY1      0.093000
     67 H222       14.2010    4.0460    7.8320 hc        1 AY1      0.093000
     68 H231       15.1170    3.7080    4.8840 hc        1 AY1      0.110500
     69 H232       14.6820    5.2680    5.6930 hc        1 AY1      0.110500
     70 H233       17.1160    5.0660    5.8500 ha        1 AY1      0.030000
     71 H25         8.5870   -0.7660   11.2940 hc        1 AY1      0.126000
     72 H261        8.0790   -3.1350   11.9320 hc        1 AY1      0.090000
     73 H262        7.8610   -3.5740   10.1850 hc        1 AY1      0.090000
     74 H263        9.4880   -3.0430   10.7910 hc        1 AY1      0.090000
     75 H271        6.2150   -1.4760   11.7620 hc        1 AY1      0.090000
     76 H272        5.9710   -1.8190    9.9950 hc        1 AY1      0.090000
     77 H273        6.3010   -0.1240   10.5530 hc        1 AY1      0.090000
     78 C11         8.4900    1.1380    3.1950 c3        1 AY1     -0.191000
     79 H111        7.8510    0.6830    3.9980 hc        1 AY1      0.087000
     80 O9          8.0430   -1.5970    8.1190 o         1 AY1     -0.417000
     81 H112        9.4540    0.4270    1.3660 ha        1 AY1      0.129000
     82 H113        9.5120    1.3140    3.6170 hc        1 AY1      0.087000
@<TRIPOS>BOND
     1    1   14 1   
     2    1   16 1   
     3    2    3 1   
     4    2    7 1   
     5    2   47 1   
     6    3   13 1   
     7    4    6 1   
     8    4   39 1   
     9    4   41 1   
    10    4   46 1   
    11    5   10 1   
    12    5   40 1   
    13    6    7 1   
    14    6    8 1   
    15    7   17 1   
    16    8   15 1   
    17    8   18 1   
    18    9   15 1   
    19    9   19 1   
    20    9   42 1   
    21   10   20 1   
    22   11   12 1   
    23   11   25 1   
    24   11   44 1   
    25   11   45 1   
    26   12   22 1   
    27   12   29 1   
    28   13   38 1   
    29   14   37 1   
    30   15   48 1   
    31   17   49 1   
    32   18   50 1   
    33   19   78 1   
    34   19   81 1   
    35   20   43 1   
    36   21   24 1   
    37   21   56 1   
    38   22   23 1   
    39   22   52 1   
    40   23   53 1   
    41   23   54 1   
    42   23   55 1   
    43   24   28 1   
    44   25   26 1   
    45   25   59 1   
    46   25   60 1   
    47   26   27 1   
    48   26   61 1   
    49   26   62 1   
    50   27   30 1   
    51   27   64 1   
    52   27   65 1   
    53   28   63 1   
    54   29   33 1   
    55   30   31 1   
    56   30   66 1   
    57   30   67 1   
    58   31   32 1   
    59   31   68 1   
    60   31   69 1   
    61   32   70 1   
    62   33   34 1   
    63   33   80 1   
    64   34   35 1   
    65   34   36 1   
    66   34   71 1   
    67   35   72 1   
    68   35   73 1   
    69   35   74 1   
    70   36   75 1   
    71   36   76 1   
    72   36   77 1   
    73   51   78 1   
    74   57   58 1   
    75   78   79 1   
    76   78   82 1   
@<TRIPOS>SUBSTRUCTURE
     1 AY1         1 TEMP              0 ****  ****    0 ROOT
