@<TRIPOS>MOLECULE
AY1
   82    79     1     0     0
SMALL
bcc


@<TRIPOS>ATOM
      1 C1         -6.6540    2.3670   -7.4250 c1        1 AY1      0.268000
      2 C2         -5.0980    2.6050   -5.4880 c1        1 AY1      0.045000
      3 C3         -5.7630    3.7060   -4.9670 c1        1 AY1     -0.124000
      4 C5         -3.9400    4.0780   -3.4280 c1        1 AY1     -0.120000
      5 O5         -0.9460    0.5250    1.0320 oh        1 AY1     -0.366000
      6 C6         -3.2750    2.9770   -3.9490 c1        1 AY1     -0.169000
      7 C7         -3.8540    2.2380   -4.9810 c1        1 AY1      0.051000
      8 C8         -1.8790    2.6260   -3.4540 c3        1 AY1      0.150000
      9 C9         -0.7960    1.2170   -1.8940 c3        1 AY1     -0.057000
     10 O9          1.5020   -3.3580    3.3450 o         1 AY1     -0.348000
     11 C11        -0.7350    2.7020    0.0750 c3        1 AY1     -0.229000
     12 C12         0.4440    0.7900    1.0860 c3        1 AY1      0.190000
     13 C13         1.1520   -0.3820    1.7450 c3        1 AY1     -0.129000
     14 C14         0.3650   -1.6610    1.5590 c3        1 AY1      0.028000
     15 C4         -5.1850    4.4450   -3.9350 c1        1 AY1     -0.120000
     16 N1         -5.7420    1.7780   -6.4920 n2        1 AY1     -0.326000
     17 N2         -1.9680    2.0340   -2.1380 n3        1 AY1     -0.326000
     18 O1         -6.8880    3.5550   -7.3760 o         1 AY1     -0.353000
     19 O2         -3.1350    1.1900   -5.5790 oh        1 AY1     -0.286000
     20 O3         -1.1050    3.7780   -3.3940 oh        1 AY1     -0.376000
     21 C10         0.1110    1.9260   -0.9210 c3        1 AY1      0.035000
     22 O4          0.9250    0.9960   -0.2180 os        1 AY1     -0.299000
     23 O6         -0.1770   -0.7400   -0.6130 os        1 AY1     -0.302000
     24 C15        -0.6860   -1.4960    0.4780 c3        1 AY1      0.030000
     25 C16        -1.1080   -2.8590   -0.0160 c3        1 AY1     -0.231000
     26 C17        -1.2310   -0.1260   -1.3450 c3        1 AY1      0.163000
     27 C18         2.5390   -0.5490    1.1200 c3        1 AY1     -0.146000
     28 C19         3.6300   -0.0540    2.1260 c3        1 AY1     -0.157000
     29 C20         5.0040   -0.6390    1.7240 c3        1 AY1     -0.156000
     30 O7         -2.3370    0.0580   -0.4950 oh        1 AY1     -0.353000
     31 O8         -0.2760   -2.0040    2.7910 os        1 AY1     -0.303000
     32 C21         6.0790   -0.1720    2.7280 c3        1 AY1     -0.158000
     33 C22         7.3690   -1.0230    2.5410 c3        1 AY1     -0.159000
     34 C23         8.3940   -0.6360    3.6050 c3        1 AY1     -0.210000
     35 C24         0.3140   -3.1360    3.4610 c2        1 AY1      0.310000
     36 C25        -0.5600   -4.0420    4.3710 c3        1 AY1     -0.096000
     37 C26        -0.2800   -3.7110    5.8410 c3        1 AY1     -0.213000
     38 C27        -0.2220   -5.5030    4.1080 c3        1 AY1     -0.213000
     39 H1         -7.1040    1.8040   -8.0950 ha        1 AY1      0.125000
     40 H3         -6.6420    3.9650   -5.3250 ha        1 AY1      0.178000
     41 H5         -3.5370    4.5930   -2.7090 ha        1 AY1      0.144500
     42 HO5        -1.2770    0.5200    1.8510 ho        1 AY1      0.231000
     43 H8         -1.4650    1.9850   -4.0730 h2        1 AY1      0.136000
     44 H9         -0.3210    1.0810   -2.7330 h1        1 AY1      0.123000
     45 H111       -0.9470    3.5920   -0.2950 hc        1 AY1      0.083000
     46 H112       -1.5680    2.2120    0.2480 hc        1 AY1      0.083000
     47 H113       -0.2400    2.8060    0.9100 hc        1 AY1      0.083000
     48 H12         0.5960    1.5950    1.6140 h2        1 AY1      0.098000
     49 H13         1.2500   -0.2020    2.7020 hc        1 AY1      0.106000
     50 H14         0.9740   -2.3760    1.3060 h1        1 AY1      0.123000
     51 H4         -5.6530    5.2210   -3.5680 ha        1 AY1      0.144500
     52 HN1        -5.5140    0.8900   -6.5710 hn        1 AY1      0.248000
     53 HN2        -2.7130    1.5170   -2.0880 hn        1 AY1      0.171000
     54 HO2        -2.8520    1.4460   -6.3840 ho        1 AY1      0.248000
     55 HO3        -0.7510    3.9380   -4.1900 ho        1 AY1      0.208000
     56 H10         0.6860    2.5520   -1.4130 h1        1 AY1      0.109000
     57 H15        -1.4570   -1.0390    0.8500 h1        1 AY1      0.121000
     58 H161       -0.6050   -3.0830   -0.8260 hc        1 AY1      0.086000
     59 H162       -0.9280   -3.5270    0.6760 hc        1 AY1      0.086000
     60 H163       -2.0640   -2.8500   -0.2190 hc        1 AY1      0.086000
     61 H17        -1.4920   -0.7160   -2.0970 h2        1 AY1      0.122000
     62 H181        2.6920   -1.4960    0.9110 hc        1 AY1      0.096500
     63 H182        2.5920   -0.0230    0.3000 hc        1 AY1      0.096500
     64 H191        3.6730    0.9320    2.1050 hc        1 AY1      0.082000
     65 H192        3.4000   -0.3510    3.0290 hc        1 AY1      0.082000
     66 H201        5.2370   -0.3340    0.8390 hc        1 AY1      0.079000
     67 H202        4.9570   -1.6140    1.7300 hc        1 AY1      0.079000
     68 HO7        -3.0690   -0.2780   -0.8820 ho        1 AY1      0.217000
     69 H211        5.7440   -0.2830    3.6390 hc        1 AY1      0.078500
     70 H212        6.2850    0.7720    2.5700 hc        1 AY1      0.078500
     71 H221        7.7450   -0.8570    1.6480 hc        1 AY1      0.077500
     72 H222        7.1480   -1.9770    2.6310 hc        1 AY1      0.077500
     73 H231        7.9580   -0.5910    4.4760 hc        1 AY1      0.071000
     74 H232        9.1120   -1.3110    3.6310 hc        1 AY1      0.071000
     75 H233        8.7770    0.2390    3.3850 hc        1 AY1      0.071000
     76 H25        -1.4970   -3.8860    4.1780 hc        1 AY1      0.120000
     77 H261        0.6770   -3.7720    6.0120 hc        1 AY1      0.089167
     78 H262       -0.7550   -4.3470    6.4140 hc        1 AY1      0.089167
     79 H263       -0.5910   -2.7980    6.0370 hc        1 AY1      0.089167
     80 H271       -0.2290   -5.6720    3.1380 hc        1 AY1      0.089167
     81 H272        0.6670   -5.7030    4.4680 hc        1 AY1      0.089167
     82 H273       -0.8890   -6.0780    4.5460 hc        1 AY1      0.089167
@<TRIPOS>BOND
     1    1   18 1   
     2    1   39 1   
     3    2    3 1   
     4    2   16 1   
     5    3   40 1   
     6    4   15 1   
     7    4   41 1   
     8    5   12 1   
     9    5   42 1   
    10    6    7 1   
    11    6    8 1   
    12    7   19 1   
    13    8   17 1   
    14    8   20 1   
    15    8   43 1   
    16    9   17 1   
    17    9   21 1   
    18    9   26 1   
    19    9   44 1   
    20   10   35 1   
    21   11   21 1   
    22   11   45 1   
    23   11   46 1   
    24   11   47 1   
    25   12   13 1   
    26   12   22 1   
    27   12   48 1   
    28   13   14 1   
    29   13   27 1   
    30   13   49 1   
    31   14   24 1   
    32   14   31 1   
    33   14   50 1   
    34   15   51 1   
    35   16   52 1   
    36   17   53 1   
    37   19   54 1   
    38   20   55 1   
    39   21   22 1   
    40   21   56 1   
    41   23   24 1   
    42   23   26 1   
    43   24   25 1   
    44   24   57 1   
    45   25   58 1   
    46   25   59 1   
    47   25   60 1   
    48   26   30 1   
    49   26   61 1   
    50   27   28 1   
    51   27   62 1   
    52   27   63 1   
    53   28   29 1   
    54   28   64 1   
    55   28   65 1   
    56   29   32 1   
    57   29   66 1   
    58   29   67 1   
    59   30   68 1   
    60   31   35 1   
    61   32   33 1   
    62   32   69 1   
    63   32   70 1   
    64   33   34 1   
    65   33   71 1   
    66   33   72 1   
    67   34   73 1   
    68   34   74 1   
    69   34   75 1   
    70   35   36 1   
    71   36   37 1   
    72   36   38 1   
    73   36   76 1   
    74   37   77 1   
    75   37   78 1   
    76   37   79 1   
    77   38   80 1   
    78   38   81 1   
    79   38   82 1   
@<TRIPOS>SUBSTRUCTURE
     1 AY1         1 TEMP              0 ****  ****    0 ROOT
