@<TRIPOS>MOLECULE
AY1
   82    83     1     0     0
SMALL
bcc


@<TRIPOS>ATOM
      1 C1          8.9330   -0.2300   -1.3820 c         1 AY1      0.666900
      2 C2          6.5330   -0.1780   -0.6910 ca        1 AY1      0.039600
      3 C3          6.1540   -1.4010   -1.2790 ca        1 AY1     -0.129000
      4 C5          3.8880   -1.1500   -0.4500 ca        1 AY1     -0.115000
      5 O5          0.3860   -0.5410   -1.1960 oh        1 AY1     -0.629800
      6 C6          4.2290    0.0560    0.1670 ca        1 AY1     -0.163300
      7 C7          5.5380    0.5480    0.0300 ca        1 AY1      0.091100
      8 C8          3.2560    0.8730    0.9980 c3        1 AY1      0.434600
      9 C9          0.9850    0.9910    1.9110 c3        1 AY1      0.155500
     10 C12        -0.4270    0.6070   -1.1680 c3        1 AY1      0.357900
     11 C13        -1.8780    0.2220   -0.8530 c3        1 AY1     -0.091700
     12 C14        -2.2440   -0.5580    0.4250 c3        1 AY1      0.147100
     13 C4          4.8480   -1.8660   -1.1590 ca        1 AY1     -0.136000
     14 N1          7.8320    0.3470   -0.7870 n         1 AY1     -0.472100
     15 N2          1.9820    0.1960    1.2220 n3        1 AY1     -0.866200
     16 O1          8.9500   -1.3270   -1.9600 o         1 AY1     -0.593100
     17 O2          5.9380    1.7300    0.6250 oh        1 AY1     -0.533100
     18 O3          3.0750    2.1540    0.3950 oh        1 AY1     -0.628800
     19 C10         0.0140    1.7700    0.9670 c3        1 AY1      0.144100
     20 O4          0.2740    1.5780   -0.4200 os        1 AY1     -0.457600
     21 O6         -1.0980   -0.3570    2.4860 os        1 AY1     -0.461600
     22 C15        -1.0940   -1.1390    1.2790 c3        1 AY1      0.120100
     23 C16        -1.3160   -2.5870    1.6790 c3        1 AY1     -0.102100
     24 C17         0.1130    0.2030    2.9320 c3        1 AY1      0.329900
     25 C18        -2.7340    1.4840   -0.9650 c3        1 AY1     -0.081400
     26 C19        -4.1850    1.1660   -1.2550 c3        1 AY1     -0.085400
     27 C20        -5.0130    2.4310   -1.3350 c3        1 AY1     -0.077400
     28 O7          0.8540   -0.8610    3.4870 oh        1 AY1     -0.640800
     29 O8         -3.0430   -1.6640   -0.0530 os        1 AY1     -0.442900
     30 C21        -6.4630    2.1170   -1.6350 c3        1 AY1     -0.079400
     31 C22        -7.2930    3.3800   -1.7190 c3        1 AY1     -0.079400
     32 C23        -8.7380    3.0730   -2.0180 c3        1 AY1     -0.092100
     33 C24        -4.2540   -1.9150    0.5320 c         1 AY1      0.635100
     34 C25        -4.8940   -3.1670   -0.0170 c3        1 AY1     -0.108700
     35 C26        -4.6400   -4.3100    0.9460 c3        1 AY1     -0.094100
     36 C27        -6.3760   -2.9380   -0.2240 c3        1 AY1     -0.094100
     37 H1          9.8430    0.4130   -1.2940 h5        1 AY1      0.031200
     38 H3          6.8910   -1.9980   -1.8440 ha        1 AY1      0.177000
     39 H5          2.8650   -1.5520   -0.3870 ha        1 AY1      0.148000
     40 HO5         1.3090   -0.2490   -1.1730 ho        1 AY1      0.434000
     41 H8          3.7720    1.1370    1.9810 h2        1 AY1      0.058700
     42 H9          1.5140    1.7750    2.5430 h1        1 AY1      0.054700
     43 H12        -0.4250    1.0780   -2.2080 h2        1 AY1      0.055700
     44 H13        -2.1500   -0.4640   -1.7150 hc        1 AY1      0.091700
     45 H14        -2.8740    0.0960    1.0990 h1        1 AY1      0.098700
     46 H4          4.5730   -2.8180   -1.6370 ha        1 AY1      0.140000
     47 HN1         7.9570    1.2310   -0.3390 hn        1 AY1      0.333500
     48 HN2         2.1300   -0.6900    1.6680 hn        1 AY1      0.410800
     49 HO2         5.1910    2.3490    0.5980 ho        1 AY1      0.448000
     50 HO3         2.4960    2.0600   -0.3770 ho        1 AY1      0.435000
     51 H10        -1.0460    1.4730    1.2000 h1        1 AY1      0.065700
     52 H15        -0.1150   -1.0520    0.7440 h1        1 AY1      0.104700
     53 H161       -2.2900   -2.7010    2.2120 hc        1 AY1      0.046033
     54 H162       -1.3240   -3.2290    0.7660 hc        1 AY1      0.046033
     55 H163       -0.4920   -2.9150    2.3570 hc        1 AY1      0.046033
     56 H17        -0.2210    0.9210    3.7430 h2        1 AY1      0.070700
     57 H181       -2.3310    2.1320   -1.7900 hc        1 AY1      0.047700
     58 H182       -2.6590    2.0820   -0.0180 hc        1 AY1      0.047700
     59 H191       -4.5920    0.4960   -0.4500 hc        1 AY1      0.047700
     60 H192       -4.2610    0.6050   -2.2240 hc        1 AY1      0.047700
     61 H201       -4.6000    3.1020   -2.1340 hc        1 AY1      0.039700
     62 H202       -4.9430    2.9880   -0.3640 hc        1 AY1      0.039700
     63 HO7         0.2320   -1.4250    3.9670 ho        1 AY1      0.432000
     64 H211       -6.8760    1.4480   -0.8340 hc        1 AY1      0.041200
     65 H212       -6.5340    1.5560   -2.6040 hc        1 AY1      0.041200
     66 H221       -6.8770    4.0490   -2.5180 hc        1 AY1      0.038700
     67 H222       -7.2200    3.9390   -0.7490 hc        1 AY1      0.038700
     68 H231       -8.8340    2.5370   -2.9930 hc        1 AY1      0.032700
     69 H232       -9.1770    2.4270   -1.2190 hc        1 AY1      0.032700
     70 H233       -9.3320    4.0170   -2.0740 hc        1 AY1      0.032700
     71 H25        -4.4090   -3.4060   -1.0060 hc        1 AY1      0.080700
     72 H261       -5.1220   -4.1060    1.9320 hc        1 AY1      0.048200
     73 H262       -5.0630   -5.2550    0.5280 hc        1 AY1      0.048200
     74 H263       -3.5420   -4.4440    1.1040 hc        1 AY1      0.048200
     75 H271       -6.5450   -2.1500   -0.9960 hc        1 AY1      0.048200
     76 H272       -6.8590   -3.8850   -0.5650 hc        1 AY1      0.048200
     77 H273       -6.8560   -2.6090    0.7300 hc        1 AY1      0.048200
     78 C11         0.1710    3.2690    1.1970 c3        1 AY1     -0.106100
     79 H111       -0.5290    3.8270    0.5310 hc        1 AY1      0.049700
     80 O9         -4.6840   -1.1460    1.3930 o         1 AY1     -0.537000
     81 H112       -0.0650    3.5100    2.2600 hc        1 AY1      0.049700
     82 H113        1.2160    3.5890    0.9660 hc        1 AY1      0.049700
@<TRIPOS>BOND
     1    1   14 1   
     2    1   16 2   
     3    1   37 1   
     4    2    3 ar  
     5    2    7 ar  
     6    2   14 1   
     7    3   13 ar  
     8    3   38 1   
     9    4    6 ar  
    10    4   13 ar  
    11    4   39 1   
    12    5   10 1   
    13    5   40 1   
    14    6    7 ar  
    15    6    8 1   
    16    7   17 1   
    17    8   15 1   
    18    8   18 1   
    19    8   41 1   
    20    9   15 1   
    21    9   19 1   
    22    9   24 1   
    23    9   42 1   
    24   10   11 1   
    25   10   20 1   
    26   10   43 1   
    27   11   12 1   
    28   11   25 1   
    29   11   44 1   
    30   12   22 1   
    31   12   29 1   
    32   12   45 1   
    33   13   46 1   
    34   14   47 1   
    35   15   48 1   
    36   17   49 1   
    37   18   50 1   
    38   19   20 1   
    39   19   51 1   
    40   19   78 1   
    41   21   22 1   
    42   21   24 1   
    43   22   23 1   
    44   22   52 1   
    45   23   53 1   
    46   23   54 1   
    47   23   55 1   
    48   24   28 1   
    49   24   56 1   
    50   25   26 1   
    51   25   57 1   
    52   25   58 1   
    53   26   27 1   
    54   26   59 1   
    55   26   60 1   
    56   27   30 1   
    57   27   61 1   
    58   27   62 1   
    59   28   63 1   
    60   29   33 1   
    61   30   31 1   
    62   30   64 1   
    63   30   65 1   
    64   31   32 1   
    65   31   66 1   
    66   31   67 1   
    67   32   68 1   
    68   32   69 1   
    69   32   70 1   
    70   33   34 1   
    71   33   80 2   
    72   34   35 1   
    73   34   36 1   
    74   34   71 1   
    75   35   72 1   
    76   35   73 1   
    77   35   74 1   
    78   36   75 1   
    79   36   76 1   
    80   36   77 1   
    81   78   79 1   
    82   78   81 1   
    83   78   82 1   
@<TRIPOS>SUBSTRUCTURE
     1 AY1         1 TEMP              0 ****  ****    0 ROOT
