@<TRIPOS>MOLECULE
AY9
   18    17     1     0     0
SMALL
bcc


@<TRIPOS>ATOM
      1 C1         -0.4830   -0.1740   -1.8910 c3        1 AY9     -0.063000
      2 C2          1.0240   -0.1090   -1.9130 c2        1 AY9      0.241000
      3 C3          1.7760   -0.1360   -0.5900 c2        1 AY9     -0.002000
      4 C4          0.9630   -0.2000    0.6710 c1        1 AY9     -0.263000
      5 C5         -0.5610   -0.2400    0.5280 c2        1 AY9      0.023000
      6 C6         -1.2570    0.4650    1.7920 c3        1 AY9     -0.008000
      7 O2          1.6080   -0.0570   -2.9360 o         1 AY9     -0.237000
      8 O3          3.1180    0.2630   -0.5390 oh        1 AY9     -0.223000
      9 O5         -1.0150    0.3110   -0.6870 os        1 AY9     -0.270000
     10 O6         -2.5840    0.8180    1.4630 oh        1 AY9     -0.322000
     11 H11C       -1.0030    0.1780   -2.6150 h1        1 AY9      0.123000
     12 H12C       -0.6840   -1.1810   -2.0020 h1        1 AY9      0.123000
     13 H4          1.3900   -0.5080    1.5210 ha        1 AY9      0.145000
     14 H3          3.6360   -0.4360   -0.2440 ho        1 AY9      0.218000
     15 H5         -0.8760   -1.1100    0.6180 h4        1 AY9      0.106000
     16 H61C       -0.7550    1.2700    2.0330 h1        1 AY9      0.097500
     17 H62C       -1.2640   -0.1830    2.5840 h1        1 AY9      0.097500
     18 H6         -3.0290    1.0270    2.2070 ho        1 AY9      0.214000
@<TRIPOS>BOND
     1    1    2 1   
     2    1    9 1   
     3    1   11 1   
     4    1   12 1   
     5    2    3 1   
     6    2    7 1   
     7    3    4 1   
     8    3    8 1   
     9    4   13 1   
    10    5    6 1   
    11    5    9 1   
    12    5   15 1   
    13    6   10 1   
    14    6   16 1   
    15    6   17 1   
    16    8   14 1   
    17   10   18 1   
@<TRIPOS>SUBSTRUCTURE
     1 AY9         1 TEMP              0 ****  ****    0 ROOT
