@<TRIPOS>MOLECULE
AY9
   18    18     1     0     0
SMALL
bcc


@<TRIPOS>ATOM
      1 C1         -0.0250    0.1340    0.1510 c3        1 AY9      0.043400
      2 C2          1.4550   -0.1590    0.1160 c         1 AY9      0.522300
      3 C3          2.1330   -0.1420    1.4330 ce        1 AY9     -0.004100
      4 C4          1.4620    0.1520    2.5640 c2        1 AY9     -0.193200
      5 C5          0.0090    0.4740    2.5180 c3        1 AY9      0.128300
      6 C6         -0.3520    1.5900    3.5090 c3        1 AY9      0.142400
      7 O2          2.0600   -0.4350   -0.9250 o         1 AY9     -0.519100
      8 O3          3.4750   -0.4360    1.4940 oh        1 AY9     -0.488100
      9 O5         -0.3990    0.9680    1.2340 os        1 AY9     -0.414600
     10 O6         -1.7490    1.7650    3.5820 oh        1 AY9     -0.594800
     11 H11C       -0.5790   -0.8440    0.2040 h1        1 AY9      0.085700
     12 H12C       -0.3410    0.7060   -0.7630 h1        1 AY9      0.085700
     13 H4          1.9510    0.1520    3.5480 ha        1 AY9      0.161000
     14 H3          3.7780   -0.6150    0.5880 ho        1 AY9      0.439000
     15 H5         -0.5950   -0.4520    2.7500 h1        1 AY9      0.068700
     16 H61C        0.1510    2.5460    3.2060 h1        1 AY9      0.060200
     17 H62C       -0.0360    1.2930    4.5430 h1        1 AY9      0.060200
     18 H6         -2.0520    2.0150    2.6990 ho        1 AY9      0.414000
@<TRIPOS>BOND
     1    1    2 1   
     2    1    9 1   
     3    1   11 1   
     4    1   12 1   
     5    2    3 1   
     6    2    7 2   
     7    3    4 2   
     8    3    8 1   
     9    4    5 1   
    10    4   13 1   
    11    5    6 1   
    12    5    9 1   
    13    5   15 1   
    14    6   10 1   
    15    6   16 1   
    16    6   17 1   
    17    8   14 1   
    18   10   18 1   
@<TRIPOS>SUBSTRUCTURE
     1 AY9         1 TEMP              0 ****  ****    0 ROOT
