@<TRIPOS>MOLECULE
AY9
   18    18     1     0     0
SMALL
bcc


@<TRIPOS>ATOM
      1 C1         -0.2910   -1.5520   -0.2660 c3        1 AY9      0.043400
      2 C2         -1.5030   -0.6770   -0.0610 c         1 AY9      0.522300
      3 C3         -1.2400    0.7810   -0.0830 ce        1 AY9     -0.004100
      4 C4          0.0070    1.2660   -0.2430 c2        1 AY9     -0.193200
      5 C5          1.1640    0.3420   -0.3980 c3        1 AY9      0.128300
      6 C6          2.4080    0.8680    0.3320 c3        1 AY9      0.142400
      7 O2         -2.6430   -1.1310    0.0780 o         1 AY9     -0.519100
      8 O3         -2.2960    1.6500    0.0590 oh        1 AY9     -0.488100
      9 O5          0.9110   -0.9490    0.1800 os        1 AY9     -0.414600
     10 O6          3.5370    0.0780    0.0350 oh        1 AY9     -0.594800
     11 H11C       -0.3710   -2.4950    0.3410 h1        1 AY9      0.085700
     12 H12C       -0.2170   -1.8040   -1.3600 h1        1 AY9      0.085700
     13 H4          0.2120    2.3450   -0.2770 ha        1 AY9      0.161000
     14 H3         -3.1020    1.1170    0.1640 ho        1 AY9      0.439000
     15 H5          1.3960    0.2000   -1.4930 h1        1 AY9      0.068700
     16 H61C        2.6590    1.8950   -0.0420 h1        1 AY9      0.060200
     17 H62C        2.2200    0.8910    1.4380 h1        1 AY9      0.060200
     18 H6          3.3460   -0.8180    0.3420 ho        1 AY9      0.414000
@<TRIPOS>BOND
     1    1    2 1   
     2    1    9 1   
     3    1   11 1   
     4    1   12 1   
     5    2    3 1   
     6    2    7 2   
     7    3    4 2   
     8    3    8 1   
     9    4    5 1   
    10    4   13 1   
    11    5    6 1   
    12    5    9 1   
    13    5   15 1   
    14    6   10 1   
    15    6   16 1   
    16    6   17 1   
    17    8   14 1   
    18   10   18 1   
@<TRIPOS>SUBSTRUCTURE
     1 AY9         1 TEMP              0 ****  ****    0 ROOT
