@<TRIPOS>MOLECULE
AY9
   18    18     1     0     0
SMALL
bcc


@<TRIPOS>ATOM
      1 C1          0.0080    0.1610    0.1400 c3        1 AY9      0.043400
      2 C2          1.4850   -0.1450    0.1230 c         1 AY9      0.522300
      3 C3          2.1430   -0.1530    1.4510 ce        1 AY9     -0.004100
      4 C4          1.4560    0.1290    2.5760 c2        1 AY9     -0.193200
      5 C5          0.0070    0.4650    2.5120 c3        1 AY9      0.128300
      6 C6         -0.3600    1.5700    3.5130 c3        1 AY9      0.142400
      7 O2          2.1040   -0.4100   -0.9120 o         1 AY9     -0.519100
      8 O3          3.4800   -0.4610    1.5290 oh        1 AY9     -0.488100
      9 O5         -0.3760    0.9830    1.2280 os        1 AY9     -0.414600
     10 O6         -1.7560    1.7560    3.5680 oh        1 AY9     -0.594800
     11 H11C       -0.2890    0.7500   -0.7710 h1        1 AY9      0.085700
     12 H12C       -0.5560   -0.8120    0.1690 h1        1 AY9      0.085700
     13 H4          1.9290    0.1100    3.5670 ha        1 AY9      0.161000
     14 H3          3.7960   -0.6290    0.6250 ho        1 AY9      0.439000
     15 H5         -0.6100   -0.4580    2.7200 h1        1 AY9      0.068700
     16 H61C       -0.0630    1.2550    4.5480 h1        1 AY9      0.060200
     17 H62C        0.1560    2.5250    3.2330 h1        1 AY9      0.060200
     18 H6         -2.0430    2.0220    2.6840 ho        1 AY9      0.414000
@<TRIPOS>BOND
     1    1    2 1   
     2    1    9 1   
     3    1   11 1   
     4    1   12 1   
     5    2    3 1   
     6    2    7 2   
     7    3    4 2   
     8    3    8 1   
     9    4    5 1   
    10    4   13 1   
    11    5    6 1   
    12    5    9 1   
    13    5   15 1   
    14    6   10 1   
    15    6   16 1   
    16    6   17 1   
    17    8   14 1   
    18   10   18 1   
@<TRIPOS>SUBSTRUCTURE
     1 AY9         1 TEMP              0 ****  ****    0 ROOT
