@<TRIPOS>MOLECULE
AYA
   17    16     1     0     0
SMALL
bcc


@<TRIPOS>ATOM
      1 N          -0.2200   -0.4060    0.7410 n         1 AYA     -0.518900
      2 CA          0.5240   -0.0030   -0.4360 c3        1 AYA     -0.046300
      3 CB          1.6870   -0.9360   -0.7530 c3        1 AYA     -0.079100
      4 C          -0.3990    0.0800   -1.7070 c         1 AYA      0.910600
      5 O          -1.5780   -0.3680   -1.6330 o         1 AYA     -0.834800
      6 OXT         0.1120    0.6030   -2.7320 o         1 AYA     -0.834800
      7 CT          0.0130    0.0950    1.9920 c         1 AYA      0.638100
      8 OT          1.0440    0.7430    2.2950 o         1 AYA     -0.663100
      9 CM         -1.0160   -0.2180    3.0620 c3        1 AYA     -0.176100
     10 H          -1.1300   -0.7670    0.5310 hn        1 AYA      0.324500
     11 HA          0.9450    1.0300   -0.2590 h1        1 AYA      0.055700
     12 HB1         1.3340   -1.9840   -0.9010 hc        1 AYA      0.026700
     13 HB2         2.1590   -0.5810   -1.7020 hc        1 AYA      0.026700
     14 HB3         2.4470   -0.9260    0.0640 hc        1 AYA      0.026700
     15 HM1        -0.6670    0.2050    4.0330 hc        1 AYA      0.048033
     16 HM2        -1.9990    0.2380    2.7960 hc        1 AYA      0.048033
     17 HM3        -1.1450   -1.3210    3.1710 hc        1 AYA      0.048033
@<TRIPOS>BOND
     1    1    2 1   
     2    1    7 1   
     3    1   10 1   
     4    2    3 1   
     5    2    4 1   
     6    2   11 1   
     7    3   12 1   
     8    3   13 1   
     9    3   14 1   
    10    4    5 1   
    11    4    6 1   
    12    7    8 2   
    13    7    9 1   
    14    9   15 1   
    15    9   16 1   
    16    9   17 1   
@<TRIPOS>SUBSTRUCTURE
     1 AYA         1 TEMP              0 ****  ****    0 ROOT
