@<TRIPOS>MOLECULE
AYB
   71    73     1     0     0
SMALL
bcc


@<TRIPOS>ATOM
      1 C4         -0.1160   -4.6710   -3.0920 ca        1 AYB      0.457800
      2 C5          1.1740   -5.0550   -3.6600 ca        1 AYB     -0.205200
      3 C6          1.9730   -5.9690   -2.8980 ca        1 AYB      0.715200
      4 C8          0.2520   -3.6500   -5.0640 cc        1 AYB      0.468700
      5 N1          1.4810   -6.4460   -1.7150 nb        1 AYB     -0.746000
      6 N3         -0.6000   -5.1540   -1.9130 nb        1 AYB     -0.721000
      7 CAA         7.3820   -8.3360   -4.3650 c3        1 AYB     -0.100100
      8 CAJ         6.5160   -7.1880   -4.8190 c3        1 AYB     -0.089400
      9 CAO         5.3380   -7.7170   -5.6100 c3        1 AYB      0.148400
     10 OAW         4.6040   -6.5240   -6.0340 os        1 AYB     -0.418900
     11 CBA         3.4530   -6.7620   -6.7000 c         1 AYB      0.620100
     12 OAD         3.0180   -7.8740   -6.9680 o         1 AYB     -0.434000
     13 NAV         2.7850   -5.4920   -7.0700 n4        1 AYB     -0.666800
     14 CAP         1.7560   -5.6960   -8.1360 c3        1 AYB      0.123800
     15 CAM         1.2090   -4.3680   -8.6390 c3        1 AYB     -0.119400
     16 CB         -0.4510   -3.3300  -10.2170 c3        1 AYB     -0.119400
     17 CA         -0.9220   -2.2040   -9.2810 c3        1 AYB      0.102500
     18 N          -1.7390   -1.1730   -9.8850 n3        1 AYB     -0.921800
     19 C           0.3040   -1.5380   -8.6450 c         1 AYB      0.718100
     20 O           1.4450   -1.5100   -9.0980 o         1 AYB     -0.495000
     21 OAY         0.1120   -1.0750   -7.3850 os        1 AYB     -0.644500
     22 PBL        -0.2440    0.4060   -6.8250 p5        1 AYB      1.697500
     23 OAI         0.7200    0.8500   -5.8430 o         1 AYB     -0.772300
     24 OAF        -0.5610    1.1780   -8.1610 oh        1 AYB     -0.756400
     25 O5'        -1.7280    0.2160   -6.2600 os        1 AYB     -0.590200
     26 C5'        -1.8940    0.0780   -4.8660 c3        1 AYB      0.161400
     27 C4'        -2.8020   -1.1160   -4.5760 c3        1 AYB      0.087100
     28 O4'        -2.1940   -2.3280   -5.0560 os        1 AYB     -0.426600
     29 C3'        -3.1130   -1.2760   -3.0740 c3        1 AYB      0.120100
     30 O3'        -2.6270   -0.2250   -2.2790 oh        1 AYB     -0.562800
     31 C2'        -2.5200   -2.6460   -2.6700 c3        1 AYB      0.093100
     32 O2'        -3.5630   -3.4280   -2.1390 oh        1 AYB     -0.572800
     33 C1'        -2.0440   -3.2890   -4.0100 c3        1 AYB      0.214800
     34 N9         -0.6680   -3.7560   -4.0080 na        1 AYB     -0.266000
     35 N7          1.3540   -4.4040   -4.8870 nd        1 AYB     -0.677100
     36 C2          0.2490   -6.0240   -1.3150 ca        1 AYB      0.698900
     37 N6          3.1930   -6.4120   -3.4090 nh        1 AYB     -0.930500
     38 H8          0.0580   -2.9710   -5.9140 h5        1 AYB      0.107800
     39 HAA         6.8040   -9.0410   -3.7200 hc        1 AYB      0.054367
     40 HAAA        7.7820   -8.9030   -5.2400 hc        1 AYB      0.054367
     41 HAAB        8.2450   -7.9440   -3.7740 hc        1 AYB      0.054367
     42 HAJ         7.1120   -6.4810   -5.4550 hc        1 AYB      0.060700
     43 HAJA        6.1430   -6.6080   -3.9350 hc        1 AYB      0.060700
     44 HAO         5.6500   -8.2700   -6.5330 h1        1 AYB      0.080700
     45 HAOA        4.6490   -8.3490   -4.9910 h1        1 AYB      0.080700
     46 HNAV        2.3180   -5.0840   -6.1950 hn        1 AYB      0.498800
     47 HAP         0.9350   -6.3310   -7.6940 hx        1 AYB      0.108200
     48 HAPA        2.2290   -6.2740   -8.9810 hx        1 AYB      0.108200
     49 HAM         0.9470   -3.7020   -7.7710 hc        1 AYB      0.077200
     50 HAMA        1.9900   -3.8320   -9.2460 hc        1 AYB      0.077200
     51 HAN        -0.8700   -4.9500   -8.8340 hc        1 AYB      0.058700
     52 HANA        0.1730   -5.3880  -10.2450 hc        1 AYB      0.058700
     53 HB          0.4000   -2.9550  -10.8470 hc        1 AYB      0.074700
     54 HBA        -1.2920   -3.6010  -10.9100 hc        1 AYB      0.074700
     55 HA         -1.5230   -2.6630   -8.4370 h1        1 AYB      0.090700
     56 HN         -1.4530    1.1390   -8.5110 ho        1 AYB      0.512000
     57 HNA        -2.6510   -1.5260  -10.0980 hn        1 AYB      0.377800
     58 H5'        -0.8870   -0.0360   -4.3770 h1        1 AYB      0.076700
     59 H5'A       -2.4120    1.0020   -4.4760 h1        1 AYB      0.076700
     60 H4'        -3.7500   -1.0140   -5.1760 h1        1 AYB      0.103700
     61 H3'        -4.2270   -1.2650   -2.8960 h1        1 AYB      0.133700
     62 HO3'       -1.6610   -0.2480   -2.2890 ho        1 AYB      0.407000
     63 H2'        -1.6850   -2.5180   -1.9310 h1        1 AYB      0.083700
     64 HO2'       -3.1610   -4.1060   -1.5780 ho        1 AYB      0.434000
     65 H1'        -2.7100   -4.1690   -4.2760 h2        1 AYB      0.106700
     66 H2         -0.1010   -6.4530   -0.3470 h5        1 AYB      0.077100
     67 HN6         3.7110   -5.7130   -3.8970 hn        1 AYB      0.417800
     68 HN6A        3.7490   -6.9620   -2.7850 hn        1 AYB      0.417800
     69 HAV2        3.4930   -4.8190   -7.3850 hn        1 AYB      0.498800
     70 HN3        -1.3130   -0.8100  -10.7160 hn        1 AYB      0.377800
     71 CAN        -0.0300   -4.5880   -9.4840 c3        1 AYB     -0.072400
@<TRIPOS>BOND
     1    1    2 ar  
     2    1    6 ar  
     3    1   34 1   
     4    2    3 ar  
     5    2   35 1   
     6    3    5 ar  
     7    3   37 1   
     8    4   34 1   
     9    4   35 2   
    10    4   38 1   
    11    5   36 ar  
    12    6   36 ar  
    13    7    8 1   
    14    7   39 1   
    15    7   40 1   
    16    7   41 1   
    17    8    9 1   
    18    8   42 1   
    19    8   43 1   
    20    9   10 1   
    21    9   44 1   
    22    9   45 1   
    23   10   11 1   
    24   11   12 2   
    25   11   13 1   
    26   13   14 1   
    27   13   46 1   
    28   13   69 1   
    29   14   15 1   
    30   14   47 1   
    31   14   48 1   
    32   15   49 1   
    33   15   50 1   
    34   15   71 1   
    35   16   17 1   
    36   16   53 1   
    37   16   54 1   
    38   16   71 1   
    39   17   18 1   
    40   17   19 1   
    41   17   55 1   
    42   18   57 1   
    43   18   70 1   
    44   19   20 2   
    45   19   21 1   
    46   21   22 1   
    47   22   23 2   
    48   22   24 1   
    49   22   25 1   
    50   24   56 1   
    51   25   26 1   
    52   26   27 1   
    53   26   58 1   
    54   26   59 1   
    55   27   28 1   
    56   27   29 1   
    57   27   60 1   
    58   28   33 1   
    59   29   30 1   
    60   29   31 1   
    61   29   61 1   
    62   30   62 1   
    63   31   32 1   
    64   31   33 1   
    65   31   63 1   
    66   32   64 1   
    67   33   34 1   
    68   33   65 1   
    69   36   66 1   
    70   37   67 1   
    71   37   68 1   
    72   51   71 1   
    73   52   71 1   
@<TRIPOS>SUBSTRUCTURE
     1 AYB         1 TEMP              0 ****  ****    0 ROOT
