@<TRIPOS>MOLECULE
AYB
   69    65     1     0     0
SMALL
bcc


@<TRIPOS>ATOM
      1 C4         -4.3130    2.0580    1.9200 c1        1 AYB      0.059000
      2 C5         -5.1150    3.1530    1.9660 c1        1 AYB     -0.226000
      3 C6         -6.3640    3.1230    1.3730 c1        1 AYB      0.208000
      4 C8         -3.1950    3.6730    2.9060 c1        1 AYB     -0.021000
      5 N1         -6.7900    2.0030    0.7460 n1        1 AYB     -0.275000
      6 N3         -4.7460    0.9210    1.2840 n1        1 AYB     -0.200000
      7 CAA        -3.1150   -1.0290   -6.6370 c3        1 AYB     -0.210000
      8 CAJ        -1.7720   -0.5170   -6.0170 c3        1 AYB     -0.167000
      9 CAO        -0.9110   -1.7110   -5.6130 c3        1 AYB      0.002000
     10 OAW         0.2190   -1.2750   -5.0110 os        1 AYB     -0.292000
     11 CBA         0.9940   -2.3310   -4.3940 c2        1 AYB      0.376000
     12 OAD         0.5730   -3.5420   -4.4400 o         1 AYB     -0.397000
     13 NAV         2.2930   -2.0270   -3.7660 n         1 AYB     -0.317000
     14 CAP         2.8410   -2.9540   -2.6940 c3        1 AYB     -0.044000
     15 CAM         3.9690   -2.2300   -1.9070 c3        1 AYB     -0.193000
     16 CAN         4.0150   -2.7730   -0.4370 c3        1 AYB     -0.148000
     17 CB          4.9370   -1.9040    0.3950 c3        1 AYB     -0.159000
     18 CA          4.6610   -2.1500    1.8920 c3        1 AYB     -0.027000
     19 N           3.3780   -2.6620    2.0480 n3        1 AYB     -0.325000
     20 C           4.7900   -0.8100    2.6740 c2        1 AYB      0.294000
     21 O           5.5590    0.0530    2.2790 o         1 AYB     -0.385000
     22 OAY         3.9070   -0.5370    3.7990 os        1 AYB     -0.694000
     23 PBL         3.6250    0.9980    4.2050 p5        1 AYB      1.921000
     24 OAI         4.6690    1.4510    5.2720 o         1 AYB     -0.803500
     25 OAF         3.7420    1.8750    2.9790 o         1 AYB     -0.803500
     26 O5'         2.1590    1.1290    4.8060 os        1 AYB     -0.735000
     27 C5'         1.2070    2.0360    4.1400 c3        1 AYB      0.030000
     28 C4'         0.0390    1.1930    3.5070 c3        1 AYB     -0.040000
     29 O4'        -1.0980    1.7040    3.8040 os        1 AYB     -0.274000
     30 C3'         0.1110    1.2440    1.9630 c3        1 AYB     -0.046000
     31 O3'         0.4780    0.0710    1.4900 oh        1 AYB     -0.344000
     32 C2'        -1.3300    1.5890    1.4890 c3        1 AYB      0.012000
     33 O2'        -1.7640    0.6300    0.3920 oh        1 AYB     -0.314000
     34 C1'        -2.0620    1.4400    2.5220 c3        1 AYB      0.124000
     35 N9         -3.1230    2.3860    2.5050 n2        1 AYB     -0.200000
     36 N7         -4.4260    4.1510    2.5740 n1        1 AYB     -0.139000
     37 C2         -5.9860    0.8950    0.6970 c1        1 AYB      0.000000
     38 N6         -7.4880    4.0440    1.3020 n3        1 AYB     -0.346000
     39 H8         -2.4750    4.1810    3.3640 DU        1 AYB      0.280000
     40 HAA        -3.5490   -1.6440   -6.0100 hc        1 AYB      0.075000
     41 HAAA       -3.6950   -0.2820   -6.8060 hc        1 AYB      0.075000
     42 HAAB       -2.9380   -1.4780   -7.4450 hc        1 AYB      0.075000
     43 HAJ        -1.9660    0.0310   -5.2200 hc        1 AYB      0.093000
     44 HAJA       -1.2800    0.0380   -6.6930 hc        1 AYB      0.093000
     45 HAO        -0.6800   -2.2200   -6.3940 h1        1 AYB      0.092000
     46 HAOA       -1.4030   -2.2670   -5.0050 h1        1 AYB      0.092000
     47 HNAV        2.8250   -1.3670   -4.1130 hn        1 AYB      0.222000
     48 HAP         2.1150   -3.2050   -2.0710 h1        1 AYB      0.107500
     49 HAPA        3.1980   -3.7500   -3.1090 h1        1 AYB      0.107500
     50 HAM         3.7890   -1.2760   -1.8930 hc        1 AYB      0.089500
     51 HAMA        4.8490   -2.3960   -2.3520 hc        1 AYB      0.089500
     52 HAN         4.3560   -3.7160   -0.4380 hc        1 AYB      0.087500
     53 HANA        3.1620   -2.7540   -0.0740 hc        1 AYB      0.087500
     54 HB          4.7730   -0.9360    0.1780 hc        1 AYB      0.101500
     55 HBA         5.8880   -2.1350    0.1910 hc        1 AYB      0.101500
     56 HA          5.3280   -2.8070    2.2490 h1        1 AYB      0.118000
     57 HN          2.8590   -2.0600    2.5170 hn        1 AYB      0.150500
     58 HNA         3.4190   -3.4460    2.5020 hn        1 AYB      0.150500
     59 H5'         1.6560    2.5180    3.4590 h1        1 AYB      0.084000
     60 H5'A        0.8330    2.6750    4.8080 h1        1 AYB      0.084000
     61 H4'         0.0840    0.2830    3.8120 h1        1 AYB      0.113000
     62 H3'         0.7440    1.9450    1.6710 h1        1 AYB      0.159000
     63 HO3'        0.6530    0.1420    0.6220 ho        1 AYB      0.235000
     64 H2'        -1.3720    2.4950    1.1780 h1        1 AYB      0.138000
     65 HO2'       -1.3260    0.7940   -0.3150 ho        1 AYB      0.220000
     66 H1'        -2.4280    0.5190    2.5510 h2        1 AYB      0.157000
     67 H2         -6.3030    0.0710    0.2340 ha        1 AYB      0.175000
     68 HN6        -8.2190    3.9290    1.8690 hn        1 AYB      0.225000
     69 HN6A       -7.4680    4.7480    0.7170 hn        1 AYB      0.225000
@<TRIPOS>BOND
     1    1    6 1   
     2    2    3 1   
     3    3   38 1   
     4    4   35 1   
     5    4   36 1   
     6    5   37 1   
     7    7    8 1   
     8    7   40 1   
     9    7   41 1   
    10    7   42 1   
    11    8    9 1   
    12    8   43 1   
    13    8   44 1   
    14    9   10 1   
    15    9   45 1   
    16    9   46 1   
    17   10   11 1   
    18   11   12 1   
    19   11   13 1   
    20   13   14 1   
    21   13   47 1   
    22   14   15 1   
    23   14   48 1   
    24   14   49 1   
    25   15   16 1   
    26   15   50 1   
    27   15   51 1   
    28   16   17 1   
    29   16   52 1   
    30   16   53 1   
    31   17   18 1   
    32   17   54 1   
    33   17   55 1   
    34   18   19 1   
    35   18   20 1   
    36   18   56 1   
    37   19   57 1   
    38   19   58 1   
    39   20   21 1   
    40   20   22 1   
    41   22   23 1   
    42   23   24 1   
    43   23   25 1   
    44   23   26 1   
    45   26   27 1   
    46   27   28 1   
    47   27   59 1   
    48   27   60 1   
    49   28   29 1   
    50   28   30 1   
    51   28   61 1   
    52   29   34 1   
    53   30   31 1   
    54   30   32 1   
    55   30   62 1   
    56   31   63 1   
    57   32   33 1   
    58   32   34 1   
    59   32   64 1   
    60   33   65 1   
    61   34   35 1   
    62   34   66 1   
    63   37   67 1   
    64   38   68 1   
    65   38   69 1   
@<TRIPOS>SUBSTRUCTURE
     1 AYB         1 TEMP              0 ****  ****    0 ROOT
