@<TRIPOS>MOLECULE
AYB
   69    71     1     0     0
SMALL
bcc


@<TRIPOS>ATOM
      1 C4         -1.6960    2.3880   -0.5200 ca        1 AYB      0.451800
      2 C5         -0.5490    2.1540   -1.3940 ca        1 AYB     -0.215200
      3 C6          0.3030    3.2680   -1.6740 ca        1 AYB      0.721200
      4 C8         -1.5920    0.2440   -1.2160 cc        1 AYB      0.436700
      5 N1          0.0290    4.4800   -1.0890 nb        1 AYB     -0.798000
      6 N3         -1.9790    3.6050    0.0360 nb        1 AYB     -0.720000
      7 CAA         7.0120    6.4690    0.1570 c3        1 AYB     -0.092100
      8 CAJ         6.3820    5.3100    0.8830 c3        1 AYB     -0.089400
      9 CAO         6.6880    4.0080    0.1650 c3        1 AYB      0.152400
     10 OAW         6.0410    2.9780    0.9300 os        1 AYB     -0.452900
     11 CBA         6.1810    1.6970    0.4260 c         1 AYB      0.720100
     12 OAD         6.7800    1.5500   -0.6520 o         1 AYB     -0.588000
     13 NAV         5.6810    0.7280    1.2810 n         1 AYB     -0.505900
     14 CAP         5.3360   -0.5700    0.7480 c3        1 AYB      0.072000
     15 CAM         3.8610   -0.7550    0.3960 c3        1 AYB     -0.115400
     16 CB          2.1390   -2.3860   -0.3540 c3        1 AYB     -0.076400
     17 CA          1.8080   -3.8620   -0.6150 c3        1 AYB      0.119500
     18 N           2.4850   -4.4090   -1.7750 n3        1 AYB     -0.896800
     19 C           0.2930   -4.0000   -0.6700 c         1 AYB      0.633100
     20 O          -0.3860   -4.4790   -1.5940 o         1 AYB     -0.596000
     21 OAY        -0.4060   -3.5860    0.3820 os        1 AYB     -0.536500
     22 PBL        -2.0860   -3.7790    0.2220 p5        1 AYB      1.454800
     23 OAI        -2.5170   -2.7320   -0.7300 o         1 AYB     -0.810000
     24 OAF        -2.4410   -5.1940    0.3250 o         1 AYB     -0.810000
     25 O5'        -2.3850   -3.0810    1.6910 os        1 AYB     -0.562200
     26 C5'        -2.1110   -1.7230    1.8100 c3        1 AYB      0.192400
     27 C4'        -3.3970   -0.8940    1.9690 c3        1 AYB      0.080100
     28 O4'        -3.0980    0.4920    1.7260 os        1 AYB     -0.427600
     29 C3'        -4.5110   -1.2890    0.9870 c3        1 AYB      0.091100
     30 O3'        -5.7920   -1.2970    1.5810 oh        1 AYB     -0.595800
     31 C2'        -4.4400   -0.2370   -0.1420 c3        1 AYB      0.077100
     32 O2'        -5.6960    0.3790   -0.3680 oh        1 AYB     -0.610800
     33 C1'        -3.5010    0.8830    0.4030 c3        1 AYB      0.249800
     34 N9         -2.3610    1.1530   -0.4420 na        1 AYB     -0.275000
     35 N7         -0.5250    0.8100   -1.7990 nd        1 AYB     -0.581100
     36 C2         -1.0780    4.5550   -0.2990 ca        1 AYB      0.659900
     37 N6          1.3510    3.1310   -2.5690 nh        1 AYB     -0.942500
     38 H8         -1.8910   -0.8250   -1.3180 h5        1 AYB      0.154800
     39 HAA         6.7850    7.4240    0.6900 hc        1 AYB      0.035367
     40 HAAA        8.1210    6.3490    0.1050 hc        1 AYB      0.035367
     41 HAAB        6.6180    6.5440   -0.8860 hc        1 AYB      0.035367
     42 HAJ         6.7680    5.2530    1.9340 hc        1 AYB      0.055200
     43 HAJA        5.2710    5.4470    0.9450 hc        1 AYB      0.055200
     44 HAO         6.2770    4.0010   -0.8780 h1        1 AYB      0.051200
     45 HAOA        7.7880    3.7980    0.1290 h1        1 AYB      0.051200
     46 HNAV        5.0880    1.0680    2.0080 hn        1 AYB      0.309500
     47 HAP         5.9660   -0.7670   -0.1670 h1        1 AYB      0.068200
     48 HAPA        5.6200   -1.3220    1.5400 h1        1 AYB      0.068200
     49 HAM         3.2150   -0.4930    1.2750 hc        1 AYB      0.049200
     50 HAMA        3.5770   -0.0680   -0.4430 hc        1 AYB      0.049200
     51 HAN         4.2400   -2.4560   -0.8930 hc        1 AYB      0.046200
     52 HANA        3.8850   -2.8790    0.8270 hc        1 AYB      0.046200
     53 HB          1.4960   -2.0430    0.5000 hc        1 AYB      0.065700
     54 HBA         1.8690   -1.7660   -1.2480 hc        1 AYB      0.065700
     55 HA          2.1460   -4.4670    0.2810 h1        1 AYB      0.082700
     56 HN          2.1110   -5.3170   -1.9820 hn        1 AYB      0.354800
     57 HNA         2.3340   -3.8210   -2.5720 hn        1 AYB      0.354800
     58 H5'        -1.4860   -1.5690    2.7330 h1        1 AYB      0.033700
     59 H5'A       -1.5410   -1.3530    0.9110 h1        1 AYB      0.033700
     60 H4'        -3.7600   -0.9340    3.0310 h1        1 AYB      0.076700
     61 H3'        -4.3470   -2.3320    0.5890 h1        1 AYB      0.138700
     62 HO3'       -5.9320   -0.4230    1.9690 ho        1 AYB      0.399000
     63 H2'        -4.0640   -0.7150   -1.0880 h1        1 AYB      0.111700
     64 HO2'       -6.3450   -0.3370   -0.4150 ho        1 AYB      0.421000
     65 H1'        -4.0640    1.8560    0.5420 h2        1 AYB      0.113700
     66 H2         -1.2620    5.5580    0.1400 h5        1 AYB      0.038100
     67 HN6         1.6350    2.2010   -2.7690 hn        1 AYB      0.425300
     68 HN6A        2.0570    3.8280   -2.5720 hn        1 AYB      0.425300
     69 CAN         3.5990   -2.1900   -0.0120 c3        1 AYB     -0.069400
@<TRIPOS>BOND
     1    1    2 ar  
     2    1    6 ar  
     3    1   34 1   
     4    2    3 ar  
     5    2   35 1   
     6    3    5 ar  
     7    3   37 1   
     8    4   34 1   
     9    4   35 2   
    10    4   38 1   
    11    5   36 ar  
    12    6   36 ar  
    13    7    8 1   
    14    7   39 1   
    15    7   40 1   
    16    7   41 1   
    17    8    9 1   
    18    8   42 1   
    19    8   43 1   
    20    9   10 1   
    21    9   44 1   
    22    9   45 1   
    23   10   11 1   
    24   11   12 2   
    25   11   13 1   
    26   13   14 1   
    27   13   46 1   
    28   14   15 1   
    29   14   47 1   
    30   14   48 1   
    31   15   49 1   
    32   15   50 1   
    33   15   69 1   
    34   16   17 1   
    35   16   53 1   
    36   16   54 1   
    37   16   69 1   
    38   17   18 1   
    39   17   19 1   
    40   17   55 1   
    41   18   56 1   
    42   18   57 1   
    43   19   20 2   
    44   19   21 1   
    45   21   22 1   
    46   22   23 1   
    47   22   24 1   
    48   22   25 1   
    49   25   26 1   
    50   26   27 1   
    51   26   58 1   
    52   26   59 1   
    53   27   28 1   
    54   27   29 1   
    55   27   60 1   
    56   28   33 1   
    57   29   30 1   
    58   29   31 1   
    59   29   61 1   
    60   30   62 1   
    61   31   32 1   
    62   31   33 1   
    63   31   63 1   
    64   32   64 1   
    65   33   34 1   
    66   33   65 1   
    67   36   66 1   
    68   37   67 1   
    69   37   68 1   
    70   51   69 1   
    71   52   69 1   
@<TRIPOS>SUBSTRUCTURE
     1 AYB         1 TEMP              0 ****  ****    0 ROOT
