@<TRIPOS>MOLECULE
AYC
   25    24     1     0     0
SMALL
bcc


@<TRIPOS>ATOM
      1 OAD        -0.1120    0.5720   -0.0720 o         1 AYC     -0.623100
      2 CAQ         1.0180    0.0400   -0.0570 c         1 AYC      0.649100
      3 CAB         1.6850   -0.3100    1.2550 c3        1 AYC     -0.176100
      4 NAP         1.6870   -0.3160   -1.2110 n         1 AYC     -0.538900
      5 CAR         1.2850    0.1610   -2.5220 c3        1 AYC     -0.012300
      6 CAA         1.1590   -0.9770   -3.5350 c3        1 AYC     -0.123100
      7 CAU         2.2420    1.2160   -3.0970 c         1 AYC      0.562100
      8 CAM         1.7660    1.9010   -4.3430 c3        1 AYC     -0.163400
      9 CAL         2.4440    1.3410   -5.5790 c3        1 AYC     -0.193400
     10 CAS         1.4270    1.0040   -6.6880 c         1 AYC      0.908600
     11 OAG         1.7460    1.2760   -7.8770 o         1 AYC     -0.842800
     12 OAE         0.3380    0.4500   -6.3520 o         1 AYC     -0.842800
     13 OXT         3.3260    1.4720   -2.5540 o         1 AYC     -0.587100
     14 HAB1        1.8930   -1.4050    1.3120 hc        1 AYC      0.057700
     15 HAB2        1.0040   -0.0250    2.0930 hc        1 AYC      0.057700
     16 HAB3        2.6460    0.2500    1.3610 hc        1 AYC      0.057700
     17 HAP         2.6510   -0.5450   -1.1290 hn        1 AYC      0.303500
     18 HAR         0.2700    0.6540   -2.4150 h1        1 AYC      0.104700
     19 HAA1        2.1390   -1.4890   -3.6860 hc        1 AYC      0.065033
     20 HAA2        0.4120   -1.7270   -3.1840 hc        1 AYC      0.065033
     21 HAA3        0.8160   -0.5540   -4.5220 hc        1 AYC      0.065033
     22 HAM1        1.9840    2.9980   -4.2510 hc        1 AYC      0.069200
     23 HAM2        0.6530    1.7720   -4.4480 hc        1 AYC      0.069200
     24 HAL1        2.9900    0.3940   -5.3340 hc        1 AYC      0.033700
     25 HAL2        3.1910    2.0720   -5.9730 hc        1 AYC      0.033700
@<TRIPOS>BOND
     1    1    2 2   
     2    2    3 1   
     3    2    4 1   
     4    3   14 1   
     5    3   15 1   
     6    3   16 1   
     7    4    5 1   
     8    4   17 1   
     9    5    6 1   
    10    5    7 1   
    11    5   18 1   
    12    6   19 1   
    13    6   20 1   
    14    6   21 1   
    15    7    8 1   
    16    7   13 2   
    17    8    9 1   
    18    8   22 1   
    19    8   23 1   
    20    9   10 1   
    21    9   24 1   
    22    9   25 1   
    23   10   11 1   
    24   10   12 1   
@<TRIPOS>SUBSTRUCTURE
     1 AYC         1 TEMP              0 ****  ****    0 ROOT
