@<TRIPOS>MOLECULE
AYC
   25    24     1     0     0
SMALL
bcc


@<TRIPOS>ATOM
      1 OAD         3.4390   -1.0000    1.3370 o         1 AYC     -0.623100
      2 CAQ         3.4980   -0.0900    0.4820 c         1 AYC      0.649100
      3 CAB         4.7720    0.7060    0.2940 c3        1 AYC     -0.176100
      4 NAP         2.4520    0.1960   -0.3710 n         1 AYC     -0.538900
      5 CAR         1.1110   -0.3140   -0.1560 c3        1 AYC     -0.012300
      6 CAA         0.5330   -0.9660   -1.4140 c3        1 AYC     -0.123100
      7 CAU         0.1260    0.7630    0.3240 c         1 AYC      0.562100
      8 CAM        -1.2120    0.2570    0.7690 c3        1 AYC     -0.163400
      9 CAL        -2.2710    0.4760   -0.2940 c3        1 AYC     -0.193400
     10 CAS        -3.0960   -0.8000   -0.5550 c         1 AYC      0.908600
     11 OAG        -4.3370   -0.6700   -0.7340 o         1 AYC     -0.842800
     12 OAE        -2.4820   -1.9080   -0.6020 o         1 AYC     -0.842800
     13 OXT         0.4360    1.9630    0.3370 o         1 AYC     -0.587100
     14 HAB1        5.1510    0.5990   -0.7500 hc        1 AYC      0.057700
     15 HAB2        4.5860    1.7860    0.5060 hc        1 AYC      0.057700
     16 HAB3        5.5440    0.3220    1.0020 hc        1 AYC      0.057700
     17 HAP         2.4960    1.0500   -0.8790 hn        1 AYC      0.303500
     18 HAR         1.1650   -1.1020    0.6580 h1        1 AYC      0.104700
     19 HAA1       -0.4930   -1.3710   -1.1800 hc        1 AYC      0.065033
     20 HAA2        0.4470   -0.2260   -2.2440 hc        1 AYC      0.065033
     21 HAA3        1.1850   -1.8060   -1.7480 hc        1 AYC      0.065033
     22 HAM1       -1.1470   -0.8440    0.9970 hc        1 AYC      0.069200
     23 HAM2       -1.5000    0.7920    1.7120 hc        1 AYC      0.069200
     24 HAL1       -2.9590    1.3020    0.0120 hc        1 AYC      0.033700
     25 HAL2       -1.7990    0.7670   -1.2670 hc        1 AYC      0.033700
@<TRIPOS>BOND
     1    1    2 2   
     2    2    3 1   
     3    2    4 1   
     4    3   14 1   
     5    3   15 1   
     6    3   16 1   
     7    4    5 1   
     8    4   17 1   
     9    5    6 1   
    10    5    7 1   
    11    5   18 1   
    12    6   19 1   
    13    6   20 1   
    14    6   21 1   
    15    7    8 1   
    16    7   13 2   
    17    8    9 1   
    18    8   22 1   
    19    8   23 1   
    20    9   10 1   
    21    9   24 1   
    22    9   25 1   
    23   10   11 1   
    24   10   12 1   
@<TRIPOS>SUBSTRUCTURE
     1 AYC         1 TEMP              0 ****  ****    0 ROOT
