@<TRIPOS>MOLECULE
AYC
   25    23     1     0     0
SMALL
bcc


@<TRIPOS>ATOM
      1 OAD        -0.9300   -1.8930    2.3310 o         1 AYC     -0.384000
      2 CAQ         0.1950   -1.4450    2.4350 c1        1 AYC      0.296000
      3 CAB         0.9030   -1.4790    3.7710 c2        1 AYC     -0.243000
      4 NAP         0.8450   -0.8920    1.3020 n3        1 AYC     -0.360000
      5 CAR         0.2000   -0.9050    0.0360 c3        1 AYC     -0.042000
      6 CAA         0.9030   -1.8830   -0.8780 c3        1 AYC     -0.217000
      7 CAU         0.2520    0.4790   -0.5700 c2        1 AYC      0.223000
      8 CAM        -0.9170    0.9960   -1.3790 c3        1 AYC     -0.187000
      9 CAL        -0.5920    2.3720   -1.9150 c3        1 AYC     -0.224000
     10 CAS        -1.7930    2.9240   -2.6510 c2        1 AYC      0.331000
     11 OAG        -1.9250    2.7150   -3.8860 o         1 AYC     -0.577500
     12 OAE        -2.6630    3.5860   -2.0280 o         1 AYC     -0.577500
     13 OXT         1.2380    1.1730   -0.4170 o         1 AYC     -0.336000
     14 HAB1        1.3750   -0.6320    3.9130 ha        1 AYC      0.098333
     15 HAB2        0.2450   -1.6100    4.4860 ha        1 AYC      0.098333
     16 HAB3        1.5470   -2.2180    3.7810 ha        1 AYC      0.098333
     17 HAP         1.6820   -0.5410    1.3830 hn        1 AYC      0.229000
     18 HAR        -0.7320   -1.1760    0.1490 h1        1 AYC      0.136000
     19 HAA1        0.3990   -1.9700   -1.7140 hc        1 AYC      0.088333
     20 HAA2        1.8060   -1.5560   -1.0740 hc        1 AYC      0.088333
     21 HAA3        0.9610   -2.7570   -0.4390 hc        1 AYC      0.088333
     22 HAM1       -1.7110    1.0470   -0.8090 hc        1 AYC      0.117000
     23 HAM2       -1.0910    0.3880   -2.1250 hc        1 AYC      0.117000
     24 HAL1        0.1670    2.3110   -2.5300 hc        1 AYC      0.070500
     25 HAL2       -0.3630    2.9660   -1.1720 hc        1 AYC      0.070500
@<TRIPOS>BOND
     1    1    2 1   
     2    2    4 1   
     3    3   14 1   
     4    3   15 1   
     5    3   16 1   
     6    4    5 1   
     7    4   17 1   
     8    5    6 1   
     9    5    7 1   
    10    5   18 1   
    11    6   19 1   
    12    6   20 1   
    13    6   21 1   
    14    7    8 1   
    15    7   13 1   
    16    8    9 1   
    17    8   22 1   
    18    8   23 1   
    19    9   10 1   
    20    9   24 1   
    21    9   25 1   
    22   10   11 1   
    23   10   12 1   
@<TRIPOS>SUBSTRUCTURE
     1 AYC         1 TEMP              0 ****  ****    0 ROOT
