@<TRIPOS>MOLECULE
AYD
   42    43     1     0     0
SMALL
bcc


@<TRIPOS>ATOM
      1 N1'         0.0000    0.0000    0.0000 n2        1 AYD     -0.111000
      2 C2'         1.3180    0.0000    0.0000 c2        1 AYD     -0.142000
      3 CM2         2.0510   -0.0010   -1.3160 c3        1 AYD     -0.031000
      4 N3'         2.0130    0.0000    1.1190 n2        1 AYD     -0.079000
      5 C4'         1.3990    0.0010    2.2990 c2        1 AYD     -0.054000
      6 N4'         2.1320    0.0010    3.4750 nv        1 AYD     -0.043000
      7 C5'         0.0020    0.0010    2.3340 c2        1 AYD     -0.359000
      8 C6'        -0.6830    0.0010    1.1360 c2        1 AYD     -0.034000
      9 C7'        -0.7370    0.0010    3.6470 c3        1 AYD     -0.179000
     10 N3         -0.7680    1.3610    4.1900 ny        1 AYD      0.860000
     11 C5         -1.4270    2.8370    5.8910 c2        1 AYD     -0.520000
     12 C4         -1.3990    1.6120    5.4020 c2        1 AYD     -0.533000
     13 CM4        -2.0540    0.4840    6.1580 c3        1 AYD     -0.050000
     14 C6         -2.2160    3.1320    7.1420 DU        1 AYD     -0.125000
     15 C7         -1.3010    3.7900    8.1770 c3        1 AYD      0.155000
     16 O7         -2.0490    4.0690    9.3620 os        1 AYD     -0.669000
     17 PA         -1.4030    4.7640   10.6640 p5        1 AYD      1.429000
     18 O1A        -0.9470    6.2650   10.3010 o         1 AYD     -0.671000
     19 O2A        -0.2250    3.9840   11.1040 o         1 AYD     -0.671000
     20 O3A        -2.4930    4.8050   11.8470 os        1 AYD     -0.954000
     21 PB         -2.4120    5.0670   13.4340 p5        1 AYD      1.108500
     22 O1B        -2.3200    6.6500   13.7120 o         1 AYD     -0.459167
     23 O2B        -3.7300    4.4730   14.1440 o         1 AYD     -0.459167
     24 O3B        -1.2110    4.3990   13.9830 o         1 AYD     -0.459167
     25 HM21        2.8160   -0.7680   -1.3030 hc        1 AYD      0.038000
     26 HM22        2.5120    0.9670   -1.4730 hc        1 AYD      0.038000
     27 HM23        1.3510   -0.2020   -2.1190 hc        1 AYD      0.038000
     28 H4'1        2.2230   -0.8410    4.0090 hn        1 AYD      0.064000
     29 H4'2        2.5930    0.8370    3.7770 hn        1 AYD      0.064000
     30 H6'        -1.7550    0.1580    1.1230 h4        1 AYD      0.106000
     31 H7'1       -1.7500   -0.3490    3.4910 hx        1 AYD      0.087500
     32 H7'2       -0.2310   -0.6550    4.3450 hx        1 AYD      0.087500
     33 HN3        -1.2050    1.9440    3.5030 hn        1 AYD     -0.013500
     34 H5         -1.0250    2.6500    6.8790 DU        1 AYD      0.274000
     35 HM41       -3.1020    0.7120    6.3090 hc        1 AYD      0.038667
     36 HM42       -1.5680    0.3630    7.1180 hc        1 AYD      0.038667
     37 HM43       -1.9620   -0.4330    5.5890 hc        1 AYD      0.038667
     38 H61        -2.6110    2.2070    7.5450 ha        1 AYD      0.057000
     39 H62        -3.0340    3.8010    6.9040 ha        1 AYD      0.057000
     40 H71        -0.4840    3.1200    8.4150 h1        1 AYD      0.024000
     41 H72        -0.9050    4.7140    7.7740 h1        1 AYD      0.024000
     42 H32         0.1810    1.6640    4.2840 hn        1 AYD     -0.013500
@<TRIPOS>BOND
     1    1    2 1   
     2    1    8 1   
     3    2    3 1   
     4    2    4 1   
     5    3   25 1   
     6    3   26 1   
     7    3   27 1   
     8    4    5 1   
     9    5    6 1   
    10    5    7 1   
    11    6   28 1   
    12    6   29 1   
    13    7    8 1   
    14    7    9 1   
    15    8   30 1   
    16    9   10 1   
    17    9   31 1   
    18    9   32 1   
    19   10   12 1   
    20   10   33 1   
    21   10   42 1   
    22   11   12 1   
    23   11   14 1   
    24   11   34 1   
    25   12   13 1   
    26   13   35 1   
    27   13   36 1   
    28   13   37 1   
    29   14   15 1   
    30   14   34 1   
    31   14   38 1   
    32   14   39 1   
    33   15   16 1   
    34   15   40 1   
    35   15   41 1   
    36   16   17 1   
    37   17   18 1   
    38   17   19 1   
    39   17   20 1   
    40   20   21 1   
    41   21   22 1   
    42   21   23 1   
    43   21   24 1   
@<TRIPOS>SUBSTRUCTURE
     1 AYD         1 TEMP              0 ****  ****    0 ROOT
