@<TRIPOS>MOLECULE
AYE
   11    10     1     0     0
SMALL
bcc


@<TRIPOS>ATOM
      1 C2         -0.6890   -0.2960   -0.2890 c2        1 AYE     -0.169200
      2 C3         -1.8520    0.0470    0.2570 c2        1 AYE     -0.223000
      3 C1          0.5610    0.5090   -0.1140 c3        1 AYE      0.186000
      4 N1          1.7450   -0.2970    0.0780 n3        1 AYE     -0.913800
      5 H2         -0.5930   -1.1880   -0.9310 ha        1 AYE      0.135000
      6 H3         -2.7690   -0.5330    0.0900 ha        1 AYE      0.112000
      7 H3A        -1.9740    0.9270    0.9020 ha        1 AYE      0.112000
      8 H1          0.7190    1.1110   -1.0580 h1        1 AYE      0.031200
      9 H1A         0.4060    1.2540    0.7250 h1        1 AYE      0.031200
     10 HN1         2.5210    0.2840    0.3250 hn        1 AYE      0.349800
     11 HN1A        1.6040   -0.9810    0.7940 hn        1 AYE      0.349800
@<TRIPOS>BOND
     1    1    2 2   
     2    1    3 1   
     3    1    5 1   
     4    2    6 1   
     5    2    7 1   
     6    3    4 1   
     7    3    8 1   
     8    3    9 1   
     9    4   10 1   
    10    4   11 1   
@<TRIPOS>SUBSTRUCTURE
     1 AYE         1 TEMP              0 ****  ****    0 ROOT
