@<TRIPOS>MOLECULE
AYE
   12    11     1     0     0
SMALL
bcc


@<TRIPOS>ATOM
      1 C2         -0.0050   -0.0500    0.0050 c2        1 AYE     -0.285200
      2 C3          1.3240    0.0490   -0.0410 c2        1 AYE     -0.090000
      3 C1         -0.7700   -0.0310    1.2800 c3        1 AYE      0.154000
      4 N1         -1.6670    1.1680    1.3670 nz        1 AYE     -0.841600
      5 H2         -0.6020   -0.2260   -0.9070 ha        1 AYE      0.158000
      6 H3          1.9540    0.1970    0.8490 ha        1 AYE      0.148000
      7 H3A         1.8750   -0.0300   -0.9930 ha        1 AYE      0.148000
      8 H1         -0.0850   -0.0050    2.1780 hx        1 AYE      0.113700
      9 H1A        -1.4270   -0.9490    1.3510 hx        1 AYE      0.113700
     10 HN1        -2.3180    1.1760    0.5750 hn        1 AYE      0.460467
     11 HN1A       -2.2010    1.1470    2.2400 hn        1 AYE      0.460467
     12 H13        -1.1090    2.0270    1.3340 hn        1 AYE      0.460467
@<TRIPOS>BOND
     1    1    2 2   
     2    1    3 1   
     3    1    5 1   
     4    2    6 1   
     5    2    7 1   
     6    3    4 1   
     7    3    8 1   
     8    3    9 1   
     9    4   10 1   
    10    4   11 1   
    11    4   12 1   
@<TRIPOS>SUBSTRUCTURE
     1 AYE         1 TEMP              0 ****  ****    0 ROOT
