@<TRIPOS>MOLECULE
AYE
   12    11     1     0     0
SMALL
bcc


@<TRIPOS>ATOM
      1 C2          0.0060   -0.0570    0.0150 c2        1 AYE     -0.285200
      2 C3          1.3350    0.0500   -0.0180 c2        1 AYE     -0.090000
      3 C1         -0.7730   -0.0270    1.2810 c3        1 AYE      0.154000
      4 N1         -1.6790    1.1670    1.3430 n4        1 AYE     -0.841600
      5 H2         -0.5790   -0.2460   -0.9010 ha        1 AYE      0.158000
      6 H3          1.9540    0.2130    0.8770 ha        1 AYE      0.148000
      7 H3A         1.8970   -0.0360   -0.9620 ha        1 AYE      0.148000
      8 H1         -1.4250   -0.9480    1.3560 hx        1 AYE      0.113700
      9 H1A        -0.0980    0.0140    2.1860 hx        1 AYE      0.113700
     10 HN1        -2.3210    1.1610    0.5440 hn        1 AYE      0.460467
     11 HN1A       -2.2230    1.1530    2.2110 hn        1 AYE      0.460467
     12 H13        -1.1260    2.0290    1.3060 hn        1 AYE      0.460467
@<TRIPOS>BOND
     1    1    2 2   
     2    1    3 1   
     3    1    5 1   
     4    2    6 1   
     5    2    7 1   
     6    3    4 1   
     7    3    8 1   
     8    3    9 1   
     9    4   10 1   
    10    4   11 1   
    11    4   12 1   
@<TRIPOS>SUBSTRUCTURE
     1 AYE         1 TEMP              0 ****  ****    0 ROOT
