@<TRIPOS>MOLECULE
AYE
   12    11     1     0     0
SMALL
bcc


@<TRIPOS>ATOM
      1 C2          0.0010   -0.0600    0.0140 c2        1 AYE     -0.285200
      2 C3          1.3290    0.0500   -0.0300 c2        1 AYE     -0.090000
      3 C1         -0.7690   -0.0250    1.2860 c3        1 AYE      0.154000
      4 N1         -1.6760    1.1680    1.3490 n4        1 AYE     -0.841600
      5 H2         -0.5910   -0.2570   -0.8970 ha        1 AYE      0.158000
      6 H3          1.9550    0.2190    0.8590 ha        1 AYE      0.148000
      7 H3A         1.8840   -0.0410   -0.9780 ha        1 AYE      0.148000
      8 H1         -0.0870    0.0220    2.1850 hx        1 AYE      0.113700
      9 H1A        -1.4180   -0.9470    1.3710 hx        1 AYE      0.113700
     10 HN1        -2.3240    1.1560    0.5540 hn        1 AYE      0.460467
     11 HN1A       -2.2130    1.1580    2.2210 hn        1 AYE      0.460467
     12 H13        -1.1240    2.0310    1.3030 hn        1 AYE      0.460467
@<TRIPOS>BOND
     1    1    2 2   
     2    1    3 1   
     3    1    5 1   
     4    2    6 1   
     5    2    7 1   
     6    3    4 1   
     7    3    8 1   
     8    3    9 1   
     9    4   10 1   
    10    4   11 1   
    11    4   12 1   
@<TRIPOS>SUBSTRUCTURE
     1 AYE         1 TEMP              0 ****  ****    0 ROOT
