@<TRIPOS>MOLECULE
AYE
   11     8     1     0     0
SMALL
bcc


@<TRIPOS>ATOM
      1 C2          0.4090    0.0000   -0.7270 c1        1 AYE     -0.136500
      2 C3          1.7560    0.0000   -0.7270 c1        1 AYE     -0.136500
      3 C1         -0.3480    0.0000    0.5840 c2        1 AYE      0.258100
      4 N1         -1.7490   -0.0010    0.3230 nh        1 AYE     -0.500100
      5 H2         -0.0790    0.0000   -1.5720 ha        1 AYE      0.067000
      6 H3          2.2440    0.0000    0.1190 DU        1 AYE      0.110000
      7 H3A         2.2440    0.0000   -1.5720 ha        1 AYE      0.067000
      8 H1         -0.1110   -0.7960    1.0960 h4        1 AYE     -0.058700
      9 H1A        -0.1130    0.7980    1.0950 h4        1 AYE     -0.058700
     10 HN1        -2.1260   -0.7460    0.6910 hn        1 AYE      0.194700
     11 HN1A       -2.1280    0.7430    0.6890 hn        1 AYE      0.194700
@<TRIPOS>BOND
     1    1    2 3   
     2    1    5 1   
     3    2    7 1   
     4    3    4 2   
     5    3    8 1   
     6    3    9 1   
     7    4   10 1   
     8    4   11 1   
@<TRIPOS>SUBSTRUCTURE
     1 AYE         1 TEMP              0 ****  ****    0 ROOT
