@<TRIPOS>MOLECULE
AYG
   35    36     1     0     0
SMALL
bcc


@<TRIPOS>ATOM
      1 CA1         2.1840   -2.0890    0.3550 c3        1 AYG      0.124200
      2 CA2        -0.2010    0.7330    0.4380 cc        1 AYG      0.043400
      3 CA3         3.5060    0.6690    0.8640 c3        1 AYG     -0.042000
      4 CB1         2.3200   -2.3990   -1.1390 c3        1 AYG     -0.142100
      5 CB2        -1.3740    1.3860    0.3430 cf        1 AYG     -0.073200
      6 CG2        -2.6850    0.8300    0.0800 ca        1 AYG     -0.065800
      7 CD1        -3.6670    1.6730   -0.4740 ca        1 AYG     -0.077000
      8 CD2        -3.0220   -0.5000    0.3720 ca        1 AYG     -0.077000
      9 CE1        -4.9470    1.2070   -0.7440 ca        1 AYG     -0.194000
     10 CE2        -4.3020   -0.9820    0.1100 ca        1 AYG     -0.194000
     11 CZ         -5.2610   -0.1290   -0.4500 ca        1 AYG      0.111100
     12 OH         -6.5470   -0.5400   -0.7340 oh        1 AYG     -0.509100
     13 C1          1.4310   -0.7690    0.4690 cd        1 AYG      0.516900
     14 N1          1.5480   -3.1210    1.1560 n3        1 AYG     -0.899800
     15 C2          1.1080    1.4700    0.7320 c         1 AYG      0.664700
     16 N2          0.1070   -0.6490    0.2930 nc        1 AYG     -0.668300
     17 O2          1.2760    2.6770    0.9420 o         1 AYG     -0.606500
     18 C3          4.3710    0.0010   -0.2490 c         1 AYG      0.897600
     19 N3          2.0900    0.4490    0.7690 n         1 AYG     -0.375300
     20 O3          4.1730    0.3340   -1.4470 o         1 AYG     -0.822300
     21 OXT         5.2280   -0.8360    0.1450 o         1 AYG     -0.822300
     22 HA1         3.2340   -1.9440    0.7730 h1        1 AYG      0.131700
     23 HA31        3.8520    0.2830    1.8640 h1        1 AYG      0.052700
     24 HA32        3.6820    1.7800    0.8160 h1        1 AYG      0.052700
     25 HB11        1.3220   -2.4960   -1.6270 hc        1 AYG      0.056700
     26 HB12        2.8970   -1.5710   -1.6290 hc        1 AYG      0.056700
     27 HB13        2.8870   -3.3510   -1.2770 hc        1 AYG      0.056700
     28 HB2        -1.3420    2.4870    0.4620 ha        1 AYG      0.139000
     29 HD1        -3.4130    2.7190   -0.7040 ha        1 AYG      0.150000
     30 HD2        -2.2750   -1.1770    0.8160 ha        1 AYG      0.150000
     31 HE1        -5.7120    1.8620   -1.1830 ha        1 AYG      0.133000
     32 HE2        -4.5560   -2.0260    0.3380 ha        1 AYG      0.133000
     33 HOH        -6.6080   -1.4800   -0.5110 ho        1 AYG      0.412000
     34 HN11        0.6060   -3.2780    0.8540 hn        1 AYG      0.343300
     35 H2          2.0630   -3.9730    1.0480 hn        1 AYG      0.343300
@<TRIPOS>BOND
     1    1    4 1   
     2    1   13 1   
     3    1   14 1   
     4    1   22 1   
     5    2    5 2   
     6    2   15 1   
     7    2   16 1   
     8    3   18 1   
     9    3   19 1   
    10    3   23 1   
    11    3   24 1   
    12    4   25 1   
    13    4   26 1   
    14    4   27 1   
    15    5    6 1   
    16    5   28 1   
    17    6    7 ar  
    18    6    8 ar  
    19    7    9 ar  
    20    7   29 1   
    21    8   10 ar  
    22    8   30 1   
    23    9   11 ar  
    24    9   31 1   
    25   10   11 ar  
    26   10   32 1   
    27   11   12 1   
    28   12   33 1   
    29   13   16 2   
    30   13   19 1   
    31   14   34 1   
    32   14   35 1   
    33   15   17 2   
    34   15   19 1   
    35   18   20 1   
    36   18   21 1   
@<TRIPOS>SUBSTRUCTURE
     1 AYG         1 TEMP              0 ****  ****    0 ROOT
