@<TRIPOS>MOLECULE
AYH
   86    87     1     0     0
SMALL
bcc


@<TRIPOS>ATOM
      1 N1         -0.2380    0.5040   -0.0040 n4        1 AYH     -0.678800
      2 C3          1.2590    0.3230    0.0630 c3        1 AYH      0.100500
      3 C5          1.7760    0.0420    1.5070 c3        1 AYH      0.115100
      4 O7          0.9440    0.6850    2.4580 oh        1 AYH     -0.616800
      5 C9          1.7780   -1.4550    1.8160 c3        1 AYH     -0.087400
      6 C12         2.2790   -1.7740    3.2240 c3        1 AYH     -0.128700
      7 C14         1.8370   -3.1630    3.6360 c3        1 AYH     -0.127100
      8 C18         3.7850   -1.6090    3.2960 c         1 AYH      0.535100
      9 O19         4.4810   -0.9730    2.5170 o         1 AYH     -0.419100
     10 N20         4.4830   -2.2710    4.4550 n4        1 AYH     -0.672800
     11 C22         5.9360   -1.9130    4.5750 c3        1 AYH      0.105800
     12 C25         6.6030   -2.6110    5.7530 c3        1 AYH     -0.112400
     13 C28         8.0640   -2.1980    5.8100 c3        1 AYH     -0.075400
     14 C31         8.7590   -2.8690    6.9670 c3        1 AYH     -0.103100
     15 C35         1.9840    1.5670   -0.4830 c3        1 AYH     -0.054100
     16 C38         1.4780    2.0000   -1.8120 ca        1 AYH     -0.173300
     17 C39         0.6270    3.1100   -1.9110 ca        1 AYH     -0.135500
     18 C41         0.2250    3.5730   -3.1630 ca        1 AYH     -0.113000
     19 C43         0.6700    2.9350   -4.3220 ca        1 AYH     -0.094000
     20 C45         1.5160    1.8280   -4.2270 ca        1 AYH     -0.113000
     21 C47         1.9210    1.3620   -2.9770 ca        1 AYH     -0.135500
     22 C49        -1.0030   -0.6570   -0.5930 c         1 AYH      0.553100
     23 O50        -0.5630   -1.7770   -0.3780 o         1 AYH     -0.424100
     24 C51        -2.2440   -0.2940   -1.3830 c3        1 AYH     -0.131700
     25 C53        -2.8430   -1.5670   -1.9840 c3        1 AYH     -0.070400
     26 C56        -4.1060   -1.2480   -2.7830 c3        1 AYH     -0.080700
     27 C58        -5.1100   -0.5410   -1.8810 c3        1 AYH     -0.096400
     28 C61        -4.5140    0.7210   -1.2920 c3        1 AYH     -0.080400
     29 C64        -3.2570    0.4250   -0.5000 c3        1 AYH     -0.089400
     30 C67        -4.6950   -2.5320   -3.4460 c3        1 AYH      0.168200
     31 N68        -5.7630   -2.1020   -4.4570 n4        1 AYH     -0.700800
     32 C70        -6.5330   -3.2610   -5.0910 c         1 AYH      0.559100
     33 O71        -5.9560   -3.8350   -5.9970 o         1 AYH     -0.386100
     34 C72        -7.9030   -3.4970   -4.5580 c3        1 AYH     -0.190100
     35 C76        -3.5820   -3.2850   -4.1860 c3        1 AYH     -0.134600
     36 C80        -5.3230   -3.4650   -2.4100 c3        1 AYH     -0.134600
     37 HN1        -0.4390    1.3470   -0.5670 hn        1 AYH      0.476800
     38 H3          1.5170   -0.5640   -0.5890 hx        1 AYH      0.121700
     39 H5          2.8340    0.4310    1.5630 h1        1 AYH      0.100700
     40 HO7         1.3290    1.5490    2.6620 ho        1 AYH      0.446000
     41 H9          0.7310   -1.8520    1.7180 hc        1 AYH      0.087700
     42 H9A         2.4160   -1.9770    1.0550 hc        1 AYH      0.087700
     43 H12         1.8370   -1.0120    3.9380 hc        1 AYH      0.126700
     44 H14         0.7360   -3.2740    3.4590 hc        1 AYH      0.074367
     45 H14A        2.0070   -3.3430    4.7260 hc        1 AYH      0.074367
     46 H14B        2.3590   -3.9510    3.0410 hc        1 AYH      0.074367
     47 HN20        4.0000   -2.0140    5.3250 hn        1 AYH      0.466800
     48 H22         6.0030   -0.7930    4.6900 hx        1 AYH      0.115700
     49 H22A        6.4420   -2.2010    3.6080 hx        1 AYH      0.115700
     50 H25         6.1010   -2.3290    6.7170 hc        1 AYH      0.070200
     51 H25A        6.5380   -3.7260    5.6410 hc        1 AYH      0.070200
     52 H28         8.1370   -1.0840    5.9200 hc        1 AYH      0.058200
     53 H28A        8.5730   -2.4780    4.8500 hc        1 AYH      0.058200
     54 H31         9.8320   -2.5560    6.9950 hc        1 AYH      0.058033
     55 H31A        8.7210   -3.9810    6.8650 hc        1 AYH      0.058033
     56 H31B        8.2850   -2.5850    7.9380 hc        1 AYH      0.058033
     57 H35         1.8990    2.4060    0.2600 hc        1 AYH      0.092700
     58 H35A        3.0750    1.3010   -0.5670 hc        1 AYH      0.092700
     59 H39         0.3230    3.6600   -1.0070 ha        1 AYH      0.138000
     60 H41        -0.4170    4.4660   -3.2380 ha        1 AYH      0.165000
     61 H43         0.3760    3.3220   -5.3120 ha        1 AYH      0.168000
     62 H45         1.8900    1.3400   -5.1420 ha        1 AYH      0.165000
     63 H47         2.6190    0.5140   -2.9100 ha        1 AYH      0.138000
     64 H51        -1.9330    0.3910   -2.2270 hc        1 AYH      0.109700
     65 H53        -2.0700   -2.0400   -2.6450 hc        1 AYH      0.079700
     66 H53A       -3.0800   -2.2900   -1.1590 hc        1 AYH      0.079700
     67 H56        -3.8040   -0.5400   -3.6100 hc        1 AYH      0.067700
     68 H58        -5.4200   -1.2270   -1.0470 hc        1 AYH      0.062700
     69 H58A       -6.0340   -0.2540   -2.4460 hc        1 AYH      0.062700
     70 H61        -4.2850    1.4550   -2.1100 hc        1 AYH      0.081200
     71 H61A       -5.2690    1.2040   -0.6120 hc        1 AYH      0.081200
     72 H64        -2.8350    1.3920   -0.1200 hc        1 AYH      0.064700
     73 H64A       -3.5130   -0.2150    0.3850 hc        1 AYH      0.064700
     74 HN68       -6.4300   -1.4850   -3.9860 hn        1 AYH      0.455300
     75 H72        -7.9100   -3.5620   -3.4410 hc        1 AYH      0.121700
     76 H72A       -8.5930   -2.6770   -4.8890 hc        1 AYH      0.121700
     77 H72B       -8.2860   -4.4670   -4.9810 hc        1 AYH      0.121700
     78 H76        -2.9220   -3.7850   -3.4350 hc        1 AYH      0.081867
     79 H76A       -3.9910   -4.0900   -4.8490 hc        1 AYH      0.081867
     80 H76B       -2.9690   -2.5880   -4.8080 hc        1 AYH      0.081867
     81 H80        -4.5660   -3.6930   -1.6190 hc        1 AYH      0.081867
     82 H80A       -5.6230   -4.4340   -2.8840 hc        1 AYH      0.081867
     83 H80B       -6.2170   -3.0100   -1.9180 hc        1 AYH      0.081867
     84 H121       -0.5880    0.6650    0.9560 hn        1 AYH      0.476800
     85 H202        4.3990   -3.2910    4.3430 hn        1 AYH      0.466800
     86 H682       -5.2890   -1.5800   -5.2030 hn        1 AYH      0.455300
@<TRIPOS>BOND
     1    1    2 1   
     2    1   22 1   
     3    1   37 1   
     4    1   84 1   
     5    2    3 1   
     6    2   15 1   
     7    2   38 1   
     8    3    4 1   
     9    3    5 1   
    10    3   39 1   
    11    4   40 1   
    12    5    6 1   
    13    5   41 1   
    14    5   42 1   
    15    6    7 1   
    16    6    8 1   
    17    6   43 1   
    18    7   44 1   
    19    7   45 1   
    20    7   46 1   
    21    8    9 2   
    22    8   10 1   
    23   10   11 1   
    24   10   47 1   
    25   10   85 1   
    26   11   12 1   
    27   11   48 1   
    28   11   49 1   
    29   12   13 1   
    30   12   50 1   
    31   12   51 1   
    32   13   14 1   
    33   13   52 1   
    34   13   53 1   
    35   14   54 1   
    36   14   55 1   
    37   14   56 1   
    38   15   16 1   
    39   15   57 1   
    40   15   58 1   
    41   16   17 ar  
    42   16   21 ar  
    43   17   18 ar  
    44   17   59 1   
    45   18   19 ar  
    46   18   60 1   
    47   19   20 ar  
    48   19   61 1   
    49   20   21 ar  
    50   20   62 1   
    51   21   63 1   
    52   22   23 2   
    53   22   24 1   
    54   24   25 1   
    55   24   29 1   
    56   24   64 1   
    57   25   26 1   
    58   25   65 1   
    59   25   66 1   
    60   26   27 1   
    61   26   30 1   
    62   26   67 1   
    63   27   28 1   
    64   27   68 1   
    65   27   69 1   
    66   28   29 1   
    67   28   70 1   
    68   28   71 1   
    69   29   72 1   
    70   29   73 1   
    71   30   31 1   
    72   30   35 1   
    73   30   36 1   
    74   31   32 1   
    75   31   74 1   
    76   31   86 1   
    77   32   33 2   
    78   32   34 1   
    79   34   75 1   
    80   34   76 1   
    81   34   77 1   
    82   35   78 1   
    83   35   79 1   
    84   35   80 1   
    85   36   81 1   
    86   36   82 1   
    87   36   83 1   
@<TRIPOS>SUBSTRUCTURE
     1 AYH         1 TEMP              0 ****  ****    0 ROOT
