@<TRIPOS>MOLECULE
AYH
   83    84     1     0     0
SMALL
bcc


@<TRIPOS>ATOM
      1 N1         -0.1020    0.3950   -1.1090 n         1 AYH     -0.558900
      2 C3         -1.2680    1.1080   -0.6310 c3        1 AYH      0.070700
      3 C5         -2.6050    0.5070   -1.1510 c3        1 AYH      0.128100
      4 O7         -2.6390    0.4360   -2.5650 oh        1 AYH     -0.601800
      5 C9         -2.8800   -0.8420   -0.4990 c3        1 AYH     -0.099400
      6 C12        -4.2610   -1.3690   -0.8560 c3        1 AYH     -0.134700
      7 C14        -4.3820   -2.8290   -0.4700 c3        1 AYH     -0.091100
      8 C18        -5.3500   -0.5540   -0.1580 c         1 AYH      0.659100
      9 O19        -5.0890    0.2820    0.7310 o         1 AYH     -0.615100
     10 N20        -6.6480   -0.7500   -0.5920 n         1 AYH     -0.567900
     11 C22        -7.7810   -0.1370    0.0430 c3        1 AYH      0.084000
     12 C25        -8.6830   -1.1090    0.8070 c3        1 AYH     -0.105400
     13 C28        -9.8670   -0.3670    1.3890 c3        1 AYH     -0.078400
     14 C31       -10.7780   -1.2960    2.1490 c3        1 AYH     -0.093100
     15 C35        -1.2500    2.5980   -1.0220 c3        1 AYH     -0.057100
     16 C38         0.0180    3.2790   -0.6470 ca        1 AYH     -0.086300
     17 C39         0.9740    3.5820   -1.6230 ca        1 AYH     -0.129500
     18 C41         2.1560    4.2330   -1.2720 ca        1 AYH     -0.127500
     19 C43         2.3930    4.5840    0.0570 ca        1 AYH     -0.131000
     20 C45         1.4440    4.2840    1.0340 ca        1 AYH     -0.127500
     21 C47         0.2610    3.6350    0.6850 ca        1 AYH     -0.129500
     22 C49         0.5380   -0.5550   -0.3320 c         1 AYH      0.651100
     23 O50         0.0060   -1.0110    0.7000 o         1 AYH     -0.605100
     24 C51         1.8920   -1.0710   -0.8180 c3        1 AYH     -0.127700
     25 C53         2.9480   -0.6940    0.2170 c3        1 AYH     -0.070400
     26 C56         4.3080   -1.2590   -0.1700 c3        1 AYH     -0.067700
     27 C58         4.2050   -2.7720   -0.3150 c3        1 AYH     -0.079400
     28 C61         3.1670   -3.1490   -1.3530 c3        1 AYH     -0.078400
     29 C64         1.8100   -2.5790   -1.0010 c3        1 AYH     -0.074400
     30 C67         5.4320   -0.8400    0.8300 c3        1 AYH      0.140400
     31 N68         6.7300   -1.2130    0.2640 n         1 AYH     -0.579900
     32 C70         7.9440   -1.0050    0.8840 c         1 AYH      0.662100
     33 O71         8.0430   -0.4770    2.0100 o         1 AYH     -0.614100
     34 C72         9.1760   -1.4550    0.1300 c3        1 AYH     -0.177100
     35 C76         5.3560    0.6840    1.0490 c3        1 AYH     -0.112100
     36 C80         5.2110   -1.5090    2.1970 c3        1 AYH     -0.112100
     37 HN1         0.4250    0.8550   -1.8160 hn        1 AYH      0.306500
     38 H3         -1.2940    1.0310    0.4990 h1        1 AYH      0.086700
     39 H5         -3.4370    1.2260   -0.8920 h1        1 AYH      0.096700
     40 HO7        -2.0140   -0.2470   -2.8390 ho        1 AYH      0.398000
     41 H9         -2.1050   -1.5850   -0.8260 hc        1 AYH      0.071700
     42 H9A        -2.7910   -0.7310    0.6140 hc        1 AYH      0.071700
     43 H12        -4.3970   -1.2620   -1.9710 hc        1 AYH      0.075700
     44 H14        -4.2810   -2.9500    0.6360 hc        1 AYH      0.041700
     45 H14A       -5.3650   -3.2490   -0.7880 hc        1 AYH      0.041700
     46 H14B       -3.5730   -3.4210   -0.9630 hc        1 AYH      0.041700
     47 HN20       -6.8310   -1.5030   -1.2110 hn        1 AYH      0.303500
     48 H22        -7.4130    0.6580    0.7530 h1        1 AYH      0.061700
     49 H22A       -8.3950    0.3670   -0.7590 h1        1 AYH      0.061700
     50 H25        -9.0470   -1.9200    0.1230 hc        1 AYH      0.043200
     51 H25A       -8.1050   -1.6010    1.6320 hc        1 AYH      0.043200
     52 H28        -9.5000    0.4440    2.0720 hc        1 AYH      0.042200
     53 H28A      -10.4410    0.1310    0.5630 hc        1 AYH      0.042200
     54 H31       -11.1730   -2.0980    1.4800 hc        1 AYH      0.034033
     55 H31A      -10.2300   -1.7820    2.9920 hc        1 AYH      0.034033
     56 H31B      -11.6430   -0.7300    2.5710 hc        1 AYH      0.034033
     57 H35        -1.4330    2.6860   -2.1270 hc        1 AYH      0.068700
     58 H35A       -2.1110    3.0940   -0.4970 hc        1 AYH      0.068700
     59 H39         0.7870    3.3160   -2.6740 ha        1 AYH      0.133500
     60 H41         2.9000    4.4730   -2.0450 ha        1 AYH      0.133000
     61 H43         3.3250    5.0980    0.3330 ha        1 AYH      0.133000
     62 H45         1.6280    4.5610    2.0830 ha        1 AYH      0.133000
     63 H47        -0.4870    3.3990    1.4570 ha        1 AYH      0.133500
     64 H51         2.1740   -0.6070   -1.8030 hc        1 AYH      0.054700
     65 H53         2.9960    0.4240    0.2810 hc        1 AYH      0.062700
     66 H53A        2.6310   -1.0860    1.2190 hc        1 AYH      0.062700
     67 H56         4.5710   -0.8250   -1.1790 hc        1 AYH      0.043700
     68 H58         5.1910   -3.2130   -0.6110 hc        1 AYH      0.046700
     69 H58A        3.9170   -3.2220    0.6720 hc        1 AYH      0.046700
     70 H61         3.4850   -2.7720   -2.3600 hc        1 AYH      0.041200
     71 H61A        3.0940   -4.2660   -1.4190 hc        1 AYH      0.041200
     72 H64         1.4320   -3.0440   -0.0510 hc        1 AYH      0.056200
     73 H64A        1.0750   -2.8190   -1.8120 hc        1 AYH      0.056200
     74 HN68        6.7240   -1.6200   -0.6390 hn        1 AYH      0.306500
     75 H72         9.2580   -0.9190   -0.8450 hc        1 AYH      0.063367
     76 H72A       10.0770   -1.2220    0.7490 hc        1 AYH      0.063367
     77 H72B        9.1410   -2.5550   -0.0580 hc        1 AYH      0.063367
     78 H76         4.4630    0.9280    1.6720 hc        1 AYH      0.049367
     79 H76A        6.2640    1.0420    1.5960 hc        1 AYH      0.049367
     80 H76B        5.2830    1.2210    0.0750 hc        1 AYH      0.049367
     81 H80         5.3420   -2.6150    2.1340 hc        1 AYH      0.049367
     82 H80A        5.9470   -1.1060    2.9360 hc        1 AYH      0.049367
     83 H80B        4.1800   -1.2890    2.5590 hc        1 AYH      0.049367
@<TRIPOS>BOND
     1    1    2 1   
     2    1   22 1   
     3    1   37 1   
     4    2    3 1   
     5    2   15 1   
     6    2   38 1   
     7    3    4 1   
     8    3    5 1   
     9    3   39 1   
    10    4   40 1   
    11    5    6 1   
    12    5   41 1   
    13    5   42 1   
    14    6    7 1   
    15    6    8 1   
    16    6   43 1   
    17    7   44 1   
    18    7   45 1   
    19    7   46 1   
    20    8    9 2   
    21    8   10 1   
    22   10   11 1   
    23   10   47 1   
    24   11   12 1   
    25   11   48 1   
    26   11   49 1   
    27   12   13 1   
    28   12   50 1   
    29   12   51 1   
    30   13   14 1   
    31   13   52 1   
    32   13   53 1   
    33   14   54 1   
    34   14   55 1   
    35   14   56 1   
    36   15   16 1   
    37   15   57 1   
    38   15   58 1   
    39   16   17 ar  
    40   16   21 ar  
    41   17   18 ar  
    42   17   59 1   
    43   18   19 ar  
    44   18   60 1   
    45   19   20 ar  
    46   19   61 1   
    47   20   21 ar  
    48   20   62 1   
    49   21   63 1   
    50   22   23 2   
    51   22   24 1   
    52   24   25 1   
    53   24   29 1   
    54   24   64 1   
    55   25   26 1   
    56   25   65 1   
    57   25   66 1   
    58   26   27 1   
    59   26   30 1   
    60   26   67 1   
    61   27   28 1   
    62   27   68 1   
    63   27   69 1   
    64   28   29 1   
    65   28   70 1   
    66   28   71 1   
    67   29   72 1   
    68   29   73 1   
    69   30   31 1   
    70   30   35 1   
    71   30   36 1   
    72   31   32 1   
    73   31   74 1   
    74   32   33 2   
    75   32   34 1   
    76   34   75 1   
    77   34   76 1   
    78   34   77 1   
    79   35   78 1   
    80   35   79 1   
    81   35   80 1   
    82   36   81 1   
    83   36   82 1   
    84   36   83 1   
@<TRIPOS>SUBSTRUCTURE
     1 AYH         1 TEMP              0 ****  ****    0 ROOT
