@<TRIPOS>MOLECULE
AYH
   86    87     1     0     0
SMALL
bcc


@<TRIPOS>ATOM
      1 N1         -0.2360    0.5070    0.0020 ny        1 AYH     -0.678800
      2 C3          1.2610    0.3240    0.0660 c3        1 AYH      0.100500
      3 C5          1.7790    0.0370    1.5090 c3        1 AYH      0.115100
      4 O7          0.9490    0.6800    2.4620 oh        1 AYH     -0.616800
      5 C9          1.7780   -1.4600    1.8140 c3        1 AYH     -0.087400
      6 C12         2.2810   -1.7830    3.2200 c3        1 AYH     -0.128700
      7 C14         1.8350   -3.1720    3.6300 c3        1 AYH     -0.127100
      8 C18         3.7880   -1.6230    3.2890 c         1 AYH      0.535100
      9 O19         4.4840   -0.9860    2.5110 o         1 AYH     -0.419100
     10 N20         4.4860   -2.2900    4.4450 ny        1 AYH     -0.672800
     11 C22         5.9410   -1.9370    4.5620 c3        1 AYH      0.105800
     12 C25         6.6080   -2.6410    5.7360 c3        1 AYH     -0.112400
     13 C28         8.0710   -2.2340    5.7900 c3        1 AYH     -0.075400
     14 C31         8.7680   -2.9130    6.9420 c3        1 AYH     -0.103100
     15 C35         1.9870    1.5680   -0.4770 c3        1 AYH     -0.054100
     16 C38         1.4820    2.0060   -1.8040 ca        1 AYH     -0.173300
     17 C39         0.6320    3.1170   -1.9000 ca        1 AYH     -0.135500
     18 C41         0.2300    3.5850   -3.1500 ca        1 AYH     -0.113000
     19 C43         0.6730    2.9480   -4.3120 ca        1 AYH     -0.094000
     20 C45         1.5170    1.8400   -4.2200 ca        1 AYH     -0.113000
     21 C47         1.9220    1.3700   -2.9710 ca        1 AYH     -0.135500
     22 C49        -1.0030   -0.6510   -0.5900 c         1 AYH      0.553100
     23 O50        -0.5650   -1.7710   -0.3770 o         1 AYH     -0.424100
     24 C51        -2.2440   -0.2830   -1.3790 c3        1 AYH     -0.131700
     25 C53        -2.8460   -1.5540   -1.9820 c3        1 AYH     -0.070400
     26 C56        -4.1080   -1.2310   -2.7800 c3        1 AYH     -0.080700
     27 C58        -5.1100   -0.5230   -1.8770 c3        1 AYH     -0.096400
     28 C61        -4.5110    0.7380   -1.2860 c3        1 AYH     -0.080400
     29 C64        -3.2550    0.4370   -0.4950 c3        1 AYH     -0.089400
     30 C67        -4.7000   -2.5130   -3.4440 c3        1 AYH      0.168200
     31 N68        -5.7680   -2.0790   -4.4550 ny        1 AYH     -0.700800
     32 C70        -6.5400   -3.2350   -5.0900 c         1 AYH      0.559100
     33 O71        -5.9650   -3.8090   -5.9970 o         1 AYH     -0.386100
     34 C72        -7.9110   -3.4690   -4.5570 c3        1 AYH     -0.190100
     35 C76        -3.5900   -3.2670   -4.1850 c3        1 AYH     -0.134600
     36 C80        -5.3310   -3.4460   -2.4090 c3        1 AYH     -0.134600
     37 HN1        -0.4350    1.3530   -0.5600 hn        1 AYH      0.476800
     38 H3          1.5170   -0.5620   -0.5890 hx        1 AYH      0.121700
     39 H5          2.8380    0.4250    1.5650 h1        1 AYH      0.100700
     40 HO7         1.3370    1.5420    2.6680 ho        1 AYH      0.446000
     41 H9          0.7300   -1.8540    1.7170 hc        1 AYH      0.087700
     42 H9A         2.4140   -1.9810    1.0500 hc        1 AYH      0.087700
     43 H12         1.8420   -1.0220    3.9370 hc        1 AYH      0.126700
     44 H14         2.0070   -3.3560    4.7190 hc        1 AYH      0.074367
     45 H14A        0.7340   -3.2800    3.4550 hc        1 AYH      0.074367
     46 H14B        2.3550   -3.9600    3.0320 hc        1 AYH      0.074367
     47 HN20        4.0070   -2.0320    5.3170 hn        1 AYH      0.466800
     48 H22         6.4430   -2.2250    3.5930 hx        1 AYH      0.115700
     49 H22A        6.0130   -0.8180    4.6800 hx        1 AYH      0.115700
     50 H25         6.5390   -3.7560    5.6210 hc        1 AYH      0.070200
     51 H25A        6.1110   -2.3600    6.7020 hc        1 AYH      0.070200
     52 H28         8.5760   -2.5120    4.8270 hc        1 AYH      0.058200
     53 H28A        8.1490   -1.1210    5.9040 hc        1 AYH      0.058200
     54 H31         9.8420   -2.6030    6.9680 hc        1 AYH      0.058033
     55 H31A        8.2980   -2.6300    7.9150 hc        1 AYH      0.058033
     56 H31B        8.7260   -4.0240    6.8370 hc        1 AYH      0.058033
     57 H35         3.0780    1.3000   -0.5620 hc        1 AYH      0.092700
     58 H35A        1.9040    2.4050    0.2690 hc        1 AYH      0.092700
     59 H39         0.3300    3.6660   -0.9950 ha        1 AYH      0.138000
     60 H41        -0.4110    4.4790   -3.2230 ha        1 AYH      0.165000
     61 H43         0.3790    3.3380   -5.3010 ha        1 AYH      0.168000
     62 H45         1.8900    1.3540   -5.1370 ha        1 AYH      0.165000
     63 H47         2.6190    0.5200   -2.9080 ha        1 AYH      0.138000
     64 H51        -1.9310    0.4020   -2.2220 hc        1 AYH      0.109700
     65 H53        -2.0740   -2.0280   -2.6440 hc        1 AYH      0.079700
     66 H53A       -3.0850   -2.2770   -1.1580 hc        1 AYH      0.079700
     67 H56        -3.8050   -0.5230   -3.6070 hc        1 AYH      0.067700
     68 H58        -6.0340   -0.2330   -2.4420 hc        1 AYH      0.062700
     69 H58A       -5.4220   -1.2090   -1.0440 hc        1 AYH      0.062700
     70 H61        -4.2810    1.4720   -2.1030 hc        1 AYH      0.081200
     71 H61A       -5.2640    1.2210   -0.6050 hc        1 AYH      0.081200
     72 H64        -2.8300    1.4020   -0.1140 hc        1 AYH      0.064700
     73 H64A       -3.5120   -0.2040    0.3900 hc        1 AYH      0.064700
     74 HN68       -6.4330   -1.4610   -3.9830 hn        1 AYH      0.455300
     75 H72        -7.9180   -3.5340   -3.4410 hc        1 AYH      0.121700
     76 H72A       -8.5990   -2.6470   -4.8890 hc        1 AYH      0.121700
     77 H72B       -8.2960   -4.4380   -4.9810 hc        1 AYH      0.121700
     78 H76        -2.9750   -2.5720   -4.8060 hc        1 AYH      0.081867
     79 H76A       -2.9300   -3.7700   -3.4350 hc        1 AYH      0.081867
     80 H76B       -4.0010   -4.0710   -4.8490 hc        1 AYH      0.081867
     81 H80        -4.5750   -3.6760   -1.6190 hc        1 AYH      0.081867
     82 H80A       -6.2240   -2.9890   -1.9170 hc        1 AYH      0.081867
     83 H80B       -5.6330   -4.4130   -2.8850 hc        1 AYH      0.081867
     84 H121       -0.5840    0.6670    0.9620 hn        1 AYH      0.476800
     85 H202        4.3980   -3.3100    4.3310 hn        1 AYH      0.466800
     86 H682       -5.2920   -1.5570   -5.2010 hn        1 AYH      0.455300
@<TRIPOS>BOND
     1    1    2 1   
     2    1   22 1   
     3    1   37 1   
     4    1   84 1   
     5    2    3 1   
     6    2   15 1   
     7    2   38 1   
     8    3    4 1   
     9    3    5 1   
    10    3   39 1   
    11    4   40 1   
    12    5    6 1   
    13    5   41 1   
    14    5   42 1   
    15    6    7 1   
    16    6    8 1   
    17    6   43 1   
    18    7   44 1   
    19    7   45 1   
    20    7   46 1   
    21    8    9 2   
    22    8   10 1   
    23   10   11 1   
    24   10   47 1   
    25   10   85 1   
    26   11   12 1   
    27   11   48 1   
    28   11   49 1   
    29   12   13 1   
    30   12   50 1   
    31   12   51 1   
    32   13   14 1   
    33   13   52 1   
    34   13   53 1   
    35   14   54 1   
    36   14   55 1   
    37   14   56 1   
    38   15   16 1   
    39   15   57 1   
    40   15   58 1   
    41   16   17 ar  
    42   16   21 ar  
    43   17   18 ar  
    44   17   59 1   
    45   18   19 ar  
    46   18   60 1   
    47   19   20 ar  
    48   19   61 1   
    49   20   21 ar  
    50   20   62 1   
    51   21   63 1   
    52   22   23 2   
    53   22   24 1   
    54   24   25 1   
    55   24   29 1   
    56   24   64 1   
    57   25   26 1   
    58   25   65 1   
    59   25   66 1   
    60   26   27 1   
    61   26   30 1   
    62   26   67 1   
    63   27   28 1   
    64   27   68 1   
    65   27   69 1   
    66   28   29 1   
    67   28   70 1   
    68   28   71 1   
    69   29   72 1   
    70   29   73 1   
    71   30   31 1   
    72   30   35 1   
    73   30   36 1   
    74   31   32 1   
    75   31   74 1   
    76   31   86 1   
    77   32   33 2   
    78   32   34 1   
    79   34   75 1   
    80   34   76 1   
    81   34   77 1   
    82   35   78 1   
    83   35   79 1   
    84   35   80 1   
    85   36   81 1   
    86   36   82 1   
    87   36   83 1   
@<TRIPOS>SUBSTRUCTURE
     1 AYH         1 TEMP              0 ****  ****    0 ROOT
