@<TRIPOS>MOLECULE
AYH
   86    87     1     0     0
SMALL
bcc


@<TRIPOS>ATOM
      1 N1         -0.2490    0.5060    0.0130 n4        1 AYH     -0.678800
      2 C3          1.2490    0.3370    0.0770 c3        1 AYH      0.100500
      3 C5          1.7690    0.0450    1.5180 c3        1 AYH      0.115100
      4 O7          0.9330    0.6730    2.4750 oh        1 AYH     -0.616800
      5 C9          1.7820   -1.4540    1.8130 c3        1 AYH     -0.087400
      6 C12         2.2870   -1.7820    3.2180 c3        1 AYH     -0.128700
      7 C14         1.8540   -3.1780    3.6190 c3        1 AYH     -0.127100
      8 C18         3.7920   -1.6090    3.2890 c         1 AYH      0.535100
      9 O19         4.4820   -0.9610    2.5160 o         1 AYH     -0.419100
     10 N20         4.4960   -2.2770    4.4410 n4        1 AYH     -0.672800
     11 C22         5.9480   -1.9130    4.5600 c3        1 AYH      0.105800
     12 C25         6.6210   -2.6200    5.7290 c3        1 AYH     -0.112400
     13 C28         8.0800   -2.2010    5.7860 c3        1 AYH     -0.075400
     14 C31         8.7830   -2.8820    6.9340 c3        1 AYH     -0.103100
     15 C35         1.9640    1.5910   -0.4570 c3        1 AYH     -0.054100
     16 C38         1.4560    2.0330   -1.7810 ca        1 AYH     -0.173300
     17 C39         0.5960    3.1360   -1.8710 ca        1 AYH     -0.135500
     18 C41         0.1900    3.6090   -3.1180 ca        1 AYH     -0.113000
     19 C43         0.6400    2.9850   -4.2830 ca        1 AYH     -0.094000
     20 C45         1.4940    1.8840   -4.1990 ca        1 AYH     -0.113000
     21 C47         1.9030    1.4100   -2.9530 ca        1 AYH     -0.135500
     22 C49        -1.0040   -0.6550   -0.5870 c         1 AYH      0.553100
     23 O50        -0.5560   -1.7730   -0.3820 o         1 AYH     -0.424100
     24 C51        -2.2480   -0.2940   -1.3750 c3        1 AYH     -0.131700
     25 C53        -2.8370   -1.5660   -1.9880 c3        1 AYH     -0.070400
     26 C56        -4.1020   -1.2500   -2.7840 c3        1 AYH     -0.080700
     27 C58        -5.1120   -0.5590   -1.8760 c3        1 AYH     -0.096400
     28 C61        -4.5270    0.7030   -1.2750 c3        1 AYH     -0.080400
     29 C64        -3.2670    0.4080   -0.4860 c3        1 AYH     -0.089400
     30 C67        -4.6810   -2.5320   -3.4590 c3        1 AYH      0.168200
     31 N68        -5.7520   -2.1010   -4.4680 n4        1 AYH     -0.700800
     32 C70        -6.5130   -3.2600   -5.1120 c         1 AYH      0.559100
     33 O71        -5.9300   -3.8210   -6.0230 o         1 AYH     -0.386100
     34 C72        -7.8810   -3.5120   -4.5820 c3        1 AYH     -0.190100
     35 C76        -3.5620   -3.2690   -4.2060 c3        1 AYH     -0.134600
     36 C80        -5.3020   -3.4800   -2.4330 c3        1 AYH     -0.134600
     37 HN1        -0.4560    1.3530   -0.5430 hn        1 AYH      0.476800
     38 H3          1.5140   -0.5430   -0.5840 hx        1 AYH      0.121700
     39 H5          2.8250    0.4420    1.5780 h1        1 AYH      0.100700
     40 HO7         1.3120    1.5380    2.6880 ho        1 AYH      0.446000
     41 H9          0.7370   -1.8570    1.7140 hc        1 AYH      0.087700
     42 H9A         2.4230   -1.9650    1.0470 hc        1 AYH      0.087700
     43 H12         1.8410   -1.0300    3.9390 hc        1 AYH      0.126700
     44 H14         2.0270   -3.3660    4.7070 hc        1 AYH      0.074367
     45 H14A        2.3800   -3.9570    3.0160 hc        1 AYH      0.074367
     46 H14B        0.7530   -3.2940    3.4420 hc        1 AYH      0.074367
     47 HN20        4.0140   -2.0290    5.3140 hn        1 AYH      0.466800
     48 H22         6.0100   -0.7940    4.6860 hx        1 AYH      0.115700
     49 H22A        6.4520   -2.1900    3.5890 hx        1 AYH      0.115700
     50 H25         6.1210   -2.3490    6.6970 hc        1 AYH      0.070200
     51 H25A        6.5610   -3.7340    5.6070 hc        1 AYH      0.070200
     52 H28         8.5870   -2.4690    4.8210 hc        1 AYH      0.058200
     53 H28A        8.1490   -1.0880    5.9070 hc        1 AYH      0.058200
     54 H31         8.3110   -2.6100    7.9090 hc        1 AYH      0.058033
     55 H31A        8.7490   -3.9930    6.8210 hc        1 AYH      0.058033
     56 H31B        9.8540   -2.5640    6.9620 hc        1 AYH      0.058033
     57 H35         1.8730    2.4220    0.2940 hc        1 AYH      0.092700
     58 H35A        3.0580    1.3340   -0.5430 hc        1 AYH      0.092700
     59 H39         0.2870    3.6760   -0.9610 ha        1 AYH      0.138000
     60 H41        -0.4600    4.4970   -3.1840 ha        1 AYH      0.165000
     61 H43         0.3430    3.3790   -5.2690 ha        1 AYH      0.168000
     62 H45         1.8720    1.4070   -5.1180 ha        1 AYH      0.165000
     63 H47         2.6080    0.5660   -2.8940 ha        1 AYH      0.138000
     64 H51        -1.9420    0.4010   -2.2120 hc        1 AYH      0.109700
     65 H53        -2.0590   -2.0270   -2.6530 hc        1 AYH      0.079200
     66 H53A       -3.0690   -2.2990   -1.1700 hc        1 AYH      0.079200
     67 H56        -3.8060   -0.5320   -3.6050 hc        1 AYH      0.067700
     68 H58        -5.4170   -1.2550   -1.0490 hc        1 AYH      0.062700
     69 H58A       -6.0380   -0.2740   -2.4390 hc        1 AYH      0.062700
     70 H61        -4.3030    1.4460   -2.0860 hc        1 AYH      0.081200
     71 H61A       -5.2850    1.1730   -0.5910 hc        1 AYH      0.081200
     72 H64        -3.5190   -0.2420    0.3940 hc        1 AYH      0.064700
     73 H64A       -2.8530    1.3750   -0.0960 hc        1 AYH      0.064700
     74 HN68       -6.4230   -1.4930   -3.9910 hn        1 AYH      0.455300
     75 H72        -8.5770   -2.6940   -4.9080 hc        1 AYH      0.121700
     76 H72A       -8.2550   -4.4810   -5.0130 hc        1 AYH      0.121700
     77 H72B       -7.8880   -3.5850   -3.4660 hc        1 AYH      0.121700
     78 H76        -2.9540   -2.5620   -4.8210 hc        1 AYH      0.081867
     79 H76A       -3.9640   -4.0710   -4.8760 hc        1 AYH      0.081867
     80 H76B       -2.8980   -3.7710   -3.4590 hc        1 AYH      0.081867
     81 H80        -4.5440   -3.7090   -1.6430 hc        1 AYH      0.081867
     82 H80A       -5.5940   -4.4460   -2.9160 hc        1 AYH      0.081867
     83 H80B       -6.2000   -3.0360   -1.9370 hc        1 AYH      0.081867
     84 H121       -0.6000    0.6560    0.9740 hn        1 AYH      0.476800
     85 H202        4.4160   -3.2970    4.3210 hn        1 AYH      0.466800
     86 H682       -5.2810   -1.5680   -5.2080 hn        1 AYH      0.455300
@<TRIPOS>BOND
     1    1    2 1   
     2    1   22 1   
     3    1   37 1   
     4    1   84 1   
     5    2    3 1   
     6    2   15 1   
     7    2   38 1   
     8    3    4 1   
     9    3    5 1   
    10    3   39 1   
    11    4   40 1   
    12    5    6 1   
    13    5   41 1   
    14    5   42 1   
    15    6    7 1   
    16    6    8 1   
    17    6   43 1   
    18    7   44 1   
    19    7   45 1   
    20    7   46 1   
    21    8    9 2   
    22    8   10 1   
    23   10   11 1   
    24   10   47 1   
    25   10   85 1   
    26   11   12 1   
    27   11   48 1   
    28   11   49 1   
    29   12   13 1   
    30   12   50 1   
    31   12   51 1   
    32   13   14 1   
    33   13   52 1   
    34   13   53 1   
    35   14   54 1   
    36   14   55 1   
    37   14   56 1   
    38   15   16 1   
    39   15   57 1   
    40   15   58 1   
    41   16   17 ar  
    42   16   21 ar  
    43   17   18 ar  
    44   17   59 1   
    45   18   19 ar  
    46   18   60 1   
    47   19   20 ar  
    48   19   61 1   
    49   20   21 ar  
    50   20   62 1   
    51   21   63 1   
    52   22   23 2   
    53   22   24 1   
    54   24   25 1   
    55   24   29 1   
    56   24   64 1   
    57   25   26 1   
    58   25   65 1   
    59   25   66 1   
    60   26   27 1   
    61   26   30 1   
    62   26   67 1   
    63   27   28 1   
    64   27   68 1   
    65   27   69 1   
    66   28   29 1   
    67   28   70 1   
    68   28   71 1   
    69   29   72 1   
    70   29   73 1   
    71   30   31 1   
    72   30   35 1   
    73   30   36 1   
    74   31   32 1   
    75   31   74 1   
    76   31   86 1   
    77   32   33 2   
    78   32   34 1   
    79   34   75 1   
    80   34   76 1   
    81   34   77 1   
    82   35   78 1   
    83   35   79 1   
    84   35   80 1   
    85   36   81 1   
    86   36   82 1   
    87   36   83 1   
@<TRIPOS>SUBSTRUCTURE
     1 AYH         1 TEMP              0 ****  ****    0 ROOT
