@<TRIPOS>MOLECULE
AYH
   83    82     1     0     0
SMALL
bcc


@<TRIPOS>ATOM
      1 N1         -0.4490    1.3580    0.1360 n         1 AYH     -0.362000
      2 C3          0.9920    1.2930    0.1680 c3        1 AYH      0.003000
      3 C5          1.4620    1.2780    1.5970 c3        1 AYH      0.011000
      4 O7          0.4540    0.7240    2.4210 oh        1 AYH     -0.335000
      5 C9          2.7240    0.4360    1.7060 c3        1 AYH     -0.180000
      6 C12         2.7270   -0.3010    3.0180 c3        1 AYH     -0.124000
      7 C14         2.2260   -1.6940    2.8100 c3        1 AYH     -0.210000
      8 C18         4.1680   -0.3490    3.5730 c2        1 AYH      0.302000
      9 O19         5.1130   -0.0310    2.8540 o         1 AYH     -0.383000
     10 N20         4.4130   -0.8160    4.9310 n         1 AYH     -0.375000
     11 C22         5.6520   -1.5290    5.2430 c3        1 AYH     -0.032000
     12 C25         5.3490   -2.6910    6.2190 c3        1 AYH     -0.184000
     13 C28         6.6820   -3.3000    6.7250 c3        1 AYH     -0.157000
     14 C31         6.4190   -4.6790    7.3040 c3        1 AYH     -0.211000
     15 C35         1.5720    2.5070   -0.5480 c3        1 AYH     -0.141000
     16 C38         2.2110    2.0660   -1.8490 c2        1 AYH     -0.066000
     17 C39         1.6050    2.3870   -3.0630 c2        1 AYH     -0.128000
     18 C41         2.2560    2.1220   -4.2500 c1        1 AYH     -0.127000
     19 C43         3.5220    1.5320   -4.2350 c1        1 AYH     -0.129500
     20 C45         4.1190    1.2170   -3.0390 c1        1 AYH     -0.129500
     21 C47         3.4590    1.4850   -1.8350 c1        1 AYH     -0.124000
     22 C49        -1.2170    0.2920   -0.5210 c2        1 AYH      0.311000
     23 O50        -0.6340   -0.6600   -1.0310 o         1 AYH     -0.401000
     24 C51        -2.7390    0.3460   -0.5300 c3        1 AYH     -0.119000
     25 C53        -3.2950    0.4870   -1.9650 c3        1 AYH     -0.143000
     26 C56        -4.8110    0.4370   -2.0230 c3        1 AYH     -0.126000
     27 C58        -5.3830   -0.7710   -1.3360 c3        1 AYH     -0.151000
     28 C61        -4.8790   -0.9510    0.0500 c3        1 AYH     -0.156000
     29 C64        -3.3620   -0.9200    0.1370 c3        1 AYH     -0.153000
     30 C67        -5.2560    0.4180   -3.5290 c3        1 AYH      0.097000
     31 N68        -4.8890    1.6630   -4.1590 n         1 AYH     -0.378000
     32 C70        -5.7610    2.2500   -5.1820 c2        1 AYH      0.302000
     33 O71        -6.9530    2.3120   -4.9940 o         1 AYH     -0.376000
     34 C72        -5.1820    2.6820   -6.5160 c3        1 AYH     -0.246000
     35 C76        -6.7590    0.2360   -3.6080 c3        1 AYH     -0.222000
     36 C80        -4.5460   -0.7700   -4.2650 c3        1 AYH     -0.222000
     37 HN1        -0.8890    2.0400    0.5700 hn        1 AYH      0.225000
     38 H3          1.2970    0.4600   -0.2900 h1        1 AYH      0.116000
     39 H5          1.6540    2.1900    1.8860 h1        1 AYH      0.120000
     40 HO7         0.1950    1.3410    3.0400 ho        1 AYH      0.220000
     41 H9          2.7510   -0.2060    0.9720 hc        1 AYH      0.102000
     42 H9A         3.4990    1.0110    1.6590 hc        1 AYH      0.102000
     43 H12         2.1400    0.1670    3.6620 hc        1 AYH      0.122000
     44 H14         1.3530   -1.6650    2.3990 hc        1 AYH      0.081667
     45 H14A        2.1660   -2.1450    3.6600 hc        1 AYH      0.081667
     46 H14B        2.8540   -2.1870    2.2160 hc        1 AYH      0.081667
     47 HN20        3.8230   -0.6050    5.6020 hn        1 AYH      0.219000
     48 H22         6.2950   -0.9050    5.6620 h1        1 AYH      0.101500
     49 H22A        6.0390   -1.8890    4.4170 h1        1 AYH      0.101500
     50 H25         4.8200   -3.3940    5.7460 hc        1 AYH      0.083000
     51 H25A        4.8310   -2.3490    6.9880 hc        1 AYH      0.083000
     52 H28         7.3180   -3.3760    5.9700 hc        1 AYH      0.081500
     53 H28A        7.0650   -2.7220    7.4190 hc        1 AYH      0.081500
     54 H31         6.0310   -5.2570    6.6120 hc        1 AYH      0.073667
     55 H31A        5.7920   -4.6030    8.0560 hc        1 AYH      0.073667
     56 H31B        7.2690   -5.0720    7.6220 hc        1 AYH      0.073667
     57 H35         2.2310    2.9200    0.0080 hc        1 AYH      0.112000
     58 H35A        0.8600    3.1440   -0.7360 hc        1 AYH      0.112000
     59 H39         0.7300    2.7960   -3.0740 ha        1 AYH      0.127000
     60 H41         1.8280    2.3490   -5.1070 ha        1 AYH      0.130000
     61 H43         3.9890    1.3420   -5.0850 ha        1 AYH      0.130000
     62 H45         4.9980    0.8070   -3.0290 ha        1 AYH      0.130000
     63 H47         3.8960    1.2540   -0.9590 ha        1 AYH      0.131000
     64 H51        -2.9090    1.1670    0.0110 hc        1 AYH      0.111000
     65 H53        -2.9380   -0.2390   -2.5110 hc        1 AYH      0.094000
     66 H53A       -2.9890    1.3490   -2.3420 hc        1 AYH      0.094000
     67 H56        -5.1720    1.2480   -1.5930 hc        1 AYH      0.115000
     68 H58        -5.1590   -1.5640   -1.8580 hc        1 AYH      0.084000
     69 H58A       -6.3630   -0.6800   -1.3050 hc        1 AYH      0.084000
     70 H61        -5.2410   -0.2420    0.6110 hc        1 AYH      0.083000
     71 H61A       -5.2010   -1.8310    0.3970 hc        1 AYH      0.083000
     72 H64        -3.1040   -0.9400    1.0650 hc        1 AYH      0.087500
     73 H64A       -3.0040   -1.7210   -0.3090 hc        1 AYH      0.087500
     74 HN68       -4.1230    2.0830   -3.9200 hn        1 AYH      0.219000
     75 H72        -5.5910    2.1500   -7.2410 hc        1 AYH      0.104000
     76 H72A       -5.3730    3.6380   -6.6630 hc        1 AYH      0.104000
     77 H72B       -4.2310    2.5420   -6.5130 hc        1 AYH      0.104000
     78 H76        -7.0070   -0.5990   -3.1770 hc        1 AYH      0.085667
     79 H76A       -7.2010    0.9800   -3.1560 hc        1 AYH      0.085667
     80 H76B       -7.0380    0.2130   -4.5520 hc        1 AYH      0.085667
     81 H80        -3.5990   -0.5670   -4.3700 hc        1 AYH      0.085667
     82 H80A       -4.9520   -0.8980   -5.1440 hc        1 AYH      0.085667
     83 H80B       -4.6500   -1.5990   -3.7280 hc        1 AYH      0.085667
@<TRIPOS>BOND
     1    1    2 1   
     2    1   22 1   
     3    1   37 1   
     4    2    3 1   
     5    2   15 1   
     6    2   38 1   
     7    3    4 1   
     8    3    5 1   
     9    3   39 1   
    10    4   40 1   
    11    5    6 1   
    12    5   41 1   
    13    5   42 1   
    14    6    7 1   
    15    6    8 1   
    16    6   43 1   
    17    7   44 1   
    18    7   45 1   
    19    7   46 1   
    20    8    9 1   
    21    8   10 1   
    22   10   11 1   
    23   10   47 1   
    24   11   12 1   
    25   11   48 1   
    26   11   49 1   
    27   12   13 1   
    28   12   50 1   
    29   12   51 1   
    30   13   14 1   
    31   13   52 1   
    32   13   53 1   
    33   14   54 1   
    34   14   55 1   
    35   14   56 1   
    36   15   16 1   
    37   15   57 1   
    38   15   58 1   
    39   16   17 1   
    40   16   21 1   
    41   17   18 1   
    42   17   59 1   
    43   18   60 1   
    44   19   20 1   
    45   19   61 1   
    46   20   62 1   
    47   21   63 1   
    48   22   23 1   
    49   22   24 1   
    50   24   25 1   
    51   24   29 1   
    52   24   64 1   
    53   25   26 1   
    54   25   65 1   
    55   25   66 1   
    56   26   27 1   
    57   26   30 1   
    58   26   67 1   
    59   27   28 1   
    60   27   68 1   
    61   27   69 1   
    62   28   29 1   
    63   28   70 1   
    64   28   71 1   
    65   29   72 1   
    66   29   73 1   
    67   30   31 1   
    68   30   35 1   
    69   30   36 1   
    70   31   32 1   
    71   31   74 1   
    72   32   33 1   
    73   32   34 1   
    74   34   75 1   
    75   34   76 1   
    76   34   77 1   
    77   35   78 1   
    78   35   79 1   
    79   35   80 1   
    80   36   81 1   
    81   36   82 1   
    82   36   83 1   
@<TRIPOS>SUBSTRUCTURE
     1 AYH         1 TEMP              0 ****  ****    0 ROOT
