@<TRIPOS>MOLECULE
AYI
   67    62     1     0     0
SMALL
bcc


@<TRIPOS>ATOM
      1 CAB        -5.1410   -2.1130   -3.2840 c3        1 AYI     -0.076000
      2 OAH        -4.0940    0.3800   -2.0060 o         1 AYI     -0.425000
      3 OAJ        -0.6890    0.3820    0.2090 o         1 AYI     -0.377000
      4 OAK        -4.9420    5.9970    3.8530 o         1 AYI     -0.849833
      5 OAL        -5.7370    3.9150    2.7910 o         1 AYI     -0.849833
      6 OAM        -6.3380    6.1040    1.8180 o         1 AYI     -0.849833
      7 CAN        -3.5290    3.8240   -0.2630 c1        1 AYI     -0.313000
      8 CAO        -3.0140    3.0660    1.9680 c1        1 AYI     -0.197000
      9 CAP        -3.0190    2.6380   -0.7840 c1        1 AYI     -0.040000
     10 CAQ        -2.5040    1.8790    1.4460 c1        1 AYI     -0.197000
     11 NAT        -3.9500   -1.3440   -3.5210 n         1 AYI     -0.358000
     12 OAW        -3.9480    5.2840    1.6350 os        1 AYI     -0.511000
     13 CAZ        -3.4150   -0.5110   -2.4820 c2        1 AYI      0.333000
     14 CBB        -0.7820   -0.3870   -0.7440 c1        1 AYI      0.329000
     15 CBC        -3.5260    4.0380    1.1140 c1        1 AYI      0.316000
     16 CBD        -2.5070    1.6650    0.0710 c1        1 AYI     -0.349000
     17 CBH        -1.6130   -0.7390   -1.9150 cx        1 AYI     -0.195000
     18 CBI        -0.9250   -0.4530   -0.7810 cx        1 AYI     -0.201000
     19 CBJ        -1.3620    0.5390   -1.5100 cx        1 AYI      0.009000
     20 PBK        -5.2570    5.3250    2.5350 p5        1 AYI      1.538500
     21 CAA         3.3220   -1.1990   -4.2780 c3        1 AYI     -0.204000
     22 OAI         1.8110    0.5150    0.3600 o         1 AYI     -0.383000
     23 CAR         2.1610   -1.0790   -3.2760 c3        1 AYI     -0.160000
     24 CAC         2.8730   -3.1410   -2.0850 c3        1 AYI     -0.207000
     25 NAV         0.4060   -0.7270   -1.5270 n2        1 AYI     -0.355000
     26 CBA         2.0130   -0.6820    0.2740 c1        1 AYI      0.272000
     27 CBE         2.5880   -1.6580   -1.9310 c3        1 AYI     -0.094000
     28 CBG         1.4790   -1.4590   -0.9210 c3        1 AYI     -0.002000
     29 C           4.7220   -0.4360    2.3980 c1        1 AYI      0.277000
     30 N           2.8110   -1.3580    1.2800 n2        1 AYI     -0.355000
     31 O           5.4280   -1.2010    1.7630 o         1 AYI     -0.416000
     32 CA          3.2300   -0.6550    2.4490 c3        1 AYI      0.021000
     33 CB          2.8790   -1.4700    3.6820 c3        1 AYI     -0.210000
     34 CG          2.2100   -0.5650    4.7190 c2        1 AYI      0.290000
     35 NAE         5.3170    0.6290    3.1520 n2        1 AYI     -0.410000
     36 OD1         1.9820    0.6010    4.4530 o         1 AYI     -0.496000
     37 ND2         1.8380   -1.0940    5.9990 n         1 AYI     -0.348000
     38 HAB        -4.9710   -3.0550   -3.5050 h1        1 AYI      0.073333
     39 HABA       -5.3950   -2.0390   -2.3380 h1        1 AYI      0.073333
     40 HAN        -3.8830    4.5120   -0.8660 ha        1 AYI      0.120000
     41 HAO        -2.9780    3.2320    2.9330 ha        1 AYI      0.111500
     42 HAP        -3.0210    2.4880   -1.7510 ha        1 AYI      0.083000
     43 HAQ        -2.1430    1.1940    2.0480 ha        1 AYI      0.111500
     44 HBH        -1.4600   -1.3980   -2.6280 hc        1 AYI      0.131000
     45 HBI        -0.9670   -0.8700    0.1260 hc        1 AYI      0.164000
     46 HBJ        -0.5960    0.9990   -1.9220 hc        1 AYI      0.097000
     47 H31        -5.8700   -1.7700   -3.8470 h1        1 AYI      0.073333
     48 H32        -3.5570   -1.3520   -4.3520 hn        1 AYI      0.268000
     49 HAC         2.6760   -3.6020   -1.2380 hc        1 AYI      0.072333
     50 HAA         3.2690   -0.4640   -4.9310 hc        1 AYI      0.067000
     51 HAAA        3.2610   -2.0610   -4.7490 hc        1 AYI      0.067000
     52 HAAB        4.1770   -1.1490   -3.7970 hc        1 AYI      0.067000
     53 HACA        2.3070   -3.5110   -2.7990 hc        1 AYI      0.072333
     54 HACB        3.8200   -3.2710   -2.3160 hc        1 AYI      0.072333
     55 HAR         1.9210   -0.1320   -3.1640 hc        1 AYI      0.090000
     56 HARA        1.3830   -1.5770   -3.6150 hc        1 AYI      0.090000
     57 HNAV        0.4480   -0.5060   -2.4150 hn        1 AYI      0.217000
     58 HBE         3.4000   -1.1990   -1.6200 hc        1 AYI      0.111000
     59 HBG         1.1480   -2.3350   -0.6200 h1        1 AYI      0.136000
     60 HN          3.0660   -2.2320    1.1530 hn        1 AYI      0.251000
     61 HA          2.7730    0.2130    2.4900 h1        1 AYI      0.161000
     62 HB          2.2640   -2.1930    3.4320 hc        1 AYI      0.127000
     63 HBA         3.7000   -1.8560    4.0640 hc        1 AYI      0.127000
     64 HNAE        6.2080    0.5940    3.3730 hn        1 AYI      0.231000
     65 HNAA        4.8180    1.3620    3.3800 hn        1 AYI      0.231000
     66 HND2        1.4540   -0.5480    6.6270 hn        1 AYI      0.274000
     67 HNDA        1.9720   -1.9840    6.1850 hn        1 AYI      0.274000
@<TRIPOS>BOND
     1    1   11 1   
     2    1   38 1   
     3    1   39 1   
     4    1   47 1   
     5    2   13 1   
     6    3   14 1   
     7    4   20 1   
     8    5   20 1   
     9    6   20 1   
    10    7   15 1   
    11    7   40 1   
    12    8   10 1   
    13    8   41 1   
    14    9   16 1   
    15    9   42 1   
    16   10   43 1   
    17   11   13 1   
    18   11   48 1   
    19   12   15 1   
    20   12   20 1   
    21   13   17 1   
    22   14   18 1   
    23   16   19 1   
    24   17   18 1   
    25   17   19 1   
    26   17   44 1   
    27   18   19 1   
    28   18   45 1   
    29   19   46 1   
    30   21   23 1   
    31   21   50 1   
    32   21   51 1   
    33   21   52 1   
    34   22   26 1   
    35   23   27 1   
    36   23   55 1   
    37   23   56 1   
    38   24   27 1   
    39   24   49 1   
    40   24   53 1   
    41   24   54 1   
    42   25   28 1   
    43   25   57 1   
    44   26   28 1   
    45   27   28 1   
    46   27   58 1   
    47   28   59 1   
    48   29   31 1   
    49   29   32 1   
    50   30   32 1   
    51   30   60 1   
    52   32   33 1   
    53   32   61 1   
    54   33   34 1   
    55   33   62 1   
    56   33   63 1   
    57   34   36 1   
    58   34   37 1   
    59   35   64 1   
    60   35   65 1   
    61   37   66 1   
    62   37   67 1   
@<TRIPOS>SUBSTRUCTURE
     1 AYI         1 TEMP              0 ****  ****    0 ROOT
