@<TRIPOS>MOLECULE
AYI
   67    67     1     0     0
SMALL
bcc


@<TRIPOS>ATOM
      1 CAB        -3.5930   -2.6120   -1.2080 c3        1 AYI     -0.081000
      2 OAH        -0.8590   -3.1620   -0.8270 o         1 AYI     -0.451000
      3 OAJ         2.2000    0.7030    1.3560 o         1 AYI     -0.420000
      4 OAK        -8.2730    2.2400   -0.8500 o         1 AYI     -1.164667
      5 OAL        -6.3110    3.0470   -2.2640 o         1 AYI     -1.164667
      6 OAM        -7.4650    4.6460   -0.6440 o         1 AYI     -1.164667
      7 CAN        -4.1380    1.6170    1.9930 ca        1 AYI     -0.315000
      8 CAO        -3.6370    1.7550   -0.4040 ca        1 AYI     -0.315000
      9 CAP        -2.9470    0.9690    2.1840 ca        1 AYI     -0.049500
     10 CAQ        -2.4570    1.1050   -0.1780 ca        1 AYI     -0.049500
     11 NAT        -2.7480   -1.9900   -0.2390 n         1 AYI     -0.345000
     12 OAW        -5.6900    2.5790    0.4760 o         1 AYI     -0.494000
     13 CAZ        -1.4080   -2.2530   -0.1530 c2        1 AYI      0.332000
     14 CBC        -4.5700    2.0260    0.6730 ca        1 AYI      0.314000
     15 CBD        -2.0820    0.6570    1.1120 ca        1 AYI     -0.356000
     16 CBH        -0.5850   -1.4840    0.8350 cx        1 AYI     -0.229000
     17 CBI         0.2220   -0.3010    0.3630 cx        1 AYI     -0.211000
     18 CBJ        -0.8730   -0.0950    1.3880 cx        1 AYI      0.057000
     19 PBK        -7.2500    3.2690   -1.1420 p3        1 AYI      2.475000
     20 CAA         4.6100   -5.1260   -0.4700 c3        1 AYI     -0.203000
     21 OAI         5.6400   -1.4570   -0.6890 o         1 AYI     -0.408000
     22 CAR         3.8040   -3.8570   -0.3550 c3        1 AYI     -0.166000
     23 CAC         3.3590   -3.7510    2.1080 c3        1 AYI     -0.216000
     24 NAV         2.4180   -1.3550    0.3760 n         1 AYI     -0.385000
     25 CBA         4.8250   -0.8640    0.0500 c2        1 AYI      0.294000
     26 CBE         4.0930   -3.1170    0.9440 c3        1 AYI     -0.101000
     27 CBG         3.7380   -1.6140    0.8710 c3        1 AYI      0.029000
     28 C           7.1690    1.4310    0.0950 c2        1 AYI      0.285000
     29 N           4.8780    0.4980    0.2300 n         1 AYI     -0.375000
     30 CA          5.7490    1.3610   -0.5250 c3        1 AYI      0.024000
     31 CB          5.2100    2.7930   -0.6370 c3        1 AYI     -0.187000
     32 CG          3.9930    2.8430   -1.5430 c2        1 AYI      0.295000
     33 OD1         4.1250    3.1080   -2.7590 o         1 AYI     -0.398000
     34 ND2         2.7600    2.6040   -1.0080 n         1 AYI     -0.419000
     35 HAB        -2.9830   -3.1530   -1.9800 h1        1 AYI      0.080333
     36 HABA       -4.2660   -3.3550   -0.7000 h1        1 AYI      0.080333
     37 HAN        -4.8050    1.8420    2.8340 ha        1 AYI      0.139000
     38 HAO        -3.9380    2.0950   -1.4070 ha        1 AYI      0.139000
     39 HAP        -2.6510    0.6650    3.2020 ha        1 AYI      0.073000
     40 HAQ        -1.7770    0.9160   -1.0230 ha        1 AYI      0.073000
     41 HBH        -0.0920   -2.2020    1.5260 hc        1 AYI      0.116000
     42 HBI         0.0660    0.0930   -0.6610 hc        1 AYI      0.162000
     43 HBJ        -0.5240    0.0400    2.4390 hc        1 AYI      0.102000
     44 H31        -4.2320   -1.8370   -1.7130 h1        1 AYI      0.080333
     45 H32        -3.1090   -1.1840    0.2370 hn        1 AYI      0.280000
     46 HAC         2.2530   -3.6920    1.9610 hc        1 AYI      0.078333
     47 HAA         4.3680   -5.6440   -1.4290 hc        1 AYI      0.067667
     48 HAAA        5.7040   -4.9000   -0.4570 hc        1 AYI      0.067667
     49 HAAB        4.3840   -5.8230    0.3730 hc        1 AYI      0.067667
     50 HACA        3.6450   -4.8270    2.1980 hc        1 AYI      0.078333
     51 HACB        3.6180   -3.2350    3.0640 hc        1 AYI      0.078333
     52 HAR         4.0570   -3.1850   -1.2190 hc        1 AYI      0.101000
     53 HARA        2.7110   -4.1070   -0.4210 hc        1 AYI      0.101000
     54 HNAV        1.9630   -2.0850   -0.1270 hn        1 AYI      0.254000
     55 HBE         5.2020   -3.1670    1.1380 hc        1 AYI      0.100000
     56 HBG         3.8050   -1.2030    1.9300 h1        1 AYI      0.112000
     57 HN          4.2070    0.9330    0.8300 hn        1 AYI      0.265000
     58 HA          5.8640    0.9350   -1.5710 h1        1 AYI      0.135000
     59 HB          4.9920    3.2170    0.3770 hc        1 AYI      0.128000
     60 HBA         6.0110    3.4290   -1.1010 hc        1 AYI      0.128000
     61 HNAE        7.5380   -0.5630   -0.2710 hn        1 AYI      0.233000
     62 HNAA        8.8180    0.2840    0.4820 hn        1 AYI      0.233000
     63 HND2        2.6340    2.3800   -0.0510 hn        1 AYI      0.242500
     64 HNDA        1.9570    2.6570   -1.5880 hn        1 AYI      0.242500
     65 CBB         1.6620   -0.2540    0.7550 c2        1 AYI      0.352000
     66 O           7.6380    2.4920    0.5570 o         1 AYI     -0.396000
     67 NAE         7.9090    0.2820    0.0940 n         1 AYI     -0.431000
@<TRIPOS>BOND
     1    1   11 1   
     2    1   35 1   
     3    1   36 1   
     4    1   44 1   
     5    2   13 1   
     6    3   65 1   
     7    4   19 1   
     8    5   19 1   
     9    6   19 1   
    10    7    9 1   
    11    7   14 1   
    12    7   37 1   
    13    8   10 1   
    14    8   14 1   
    15    8   38 1   
    16    9   15 1   
    17    9   39 1   
    18   10   15 1   
    19   10   40 1   
    20   11   13 1   
    21   11   45 1   
    22   12   14 1   
    23   13   16 1   
    24   15   18 1   
    25   16   17 1   
    26   16   18 1   
    27   16   41 1   
    28   17   18 1   
    29   17   42 1   
    30   17   65 1   
    31   18   43 1   
    32   20   22 1   
    33   20   47 1   
    34   20   48 1   
    35   20   49 1   
    36   21   25 1   
    37   22   26 1   
    38   22   52 1   
    39   22   53 1   
    40   23   26 1   
    41   23   46 1   
    42   23   50 1   
    43   23   51 1   
    44   24   27 1   
    45   24   54 1   
    46   24   65 1   
    47   25   27 1   
    48   25   29 1   
    49   26   27 1   
    50   26   55 1   
    51   27   56 1   
    52   28   30 1   
    53   28   66 1   
    54   28   67 1   
    55   29   30 1   
    56   29   57 1   
    57   30   31 1   
    58   30   58 1   
    59   31   32 1   
    60   31   59 1   
    61   31   60 1   
    62   32   33 1   
    63   32   34 1   
    64   34   63 1   
    65   34   64 1   
    66   61   67 1   
    67   62   67 1   
@<TRIPOS>SUBSTRUCTURE
     1 AYI         1 TEMP              0 ****  ****    0 ROOT
