@<TRIPOS>MOLECULE
AYL
   56    59     1     0     0
SMALL
bcc


@<TRIPOS>ATOM
      1 P           0.5830    2.4950    1.2830 p5        1 AYL      1.435800
      2 N1         -5.2420   -3.7970   -0.0420 nb        1 AYL     -0.797000
      3 C2         -5.4090   -2.9590   -1.1020 ca        1 AYL      0.656900
      4 N3         -4.9280   -1.7150   -1.3170 nb        1 AYL     -0.718000
      5 C4         -4.1520   -1.2620   -0.2860 ca        1 AYL      0.449800
      6 C5         -3.8920   -2.0410    0.9220 ca        1 AYL     -0.209200
      7 C6         -4.4880   -3.3370    1.0090 ca        1 AYL      0.715200
      8 N6         -4.3510   -4.0860    2.1700 nh        1 AYL     -0.937500
      9 N7         -3.0610   -1.3130    1.7890 nc        1 AYL     -0.578100
     10 C8         -2.8190   -0.1530    1.1600 cd        1 AYL      0.442700
     11 N9         -3.4720   -0.0470   -0.0980 na        1 AYL     -0.275000
     12 C1'        -3.3780    1.0040   -1.0830 c3        1 AYL      0.250800
     13 O1P        -0.8500    2.2720    1.5900 o         1 AYL     -0.830000
     14 C2'        -3.2500    2.4350   -0.4720 c3        1 AYL      0.075100
     15 O2'        -4.4130    3.1390   -0.8700 oh        1 AYL     -0.610800
     16 O2P         1.3820    1.1370    1.7500 os        1 AYL     -0.579200
     17 C3'        -1.9730    3.0280   -1.1070 c3        1 AYL      0.091100
     18 O3'        -2.3010    4.0380   -2.0380 oh        1 AYL     -0.596800
     19 O3P         1.3900    3.6740    1.6320 o         1 AYL     -0.830000
     20 C4'        -1.2580    1.8300   -1.7490 c3        1 AYL      0.081100
     21 O4'        -2.2540    0.8130   -1.9570 os        1 AYL     -0.427600
     22 C5'        -0.1220    1.2560   -0.8840 c3        1 AYL      0.187400
     23 O5'         0.6820    2.2600   -0.3550 os        1 AYL     -0.572200
     24 CAC         7.0510   -2.4590   -1.3640 ca        1 AYL      0.105100
     25 CAD         6.1870   -2.9380   -0.3690 ca        1 AYL     -0.184500
     26 CAH         6.5460   -0.1900   -0.7370 ca        1 AYL     -0.094500
     27 CAJ         5.5090   -2.0280    0.4370 ca        1 AYL     -0.094500
     28 CAK         5.6820   -0.6490    0.2640 ca        1 AYL     -0.092300
     29 CAP         4.9620    0.3110    1.1440 c3        1 AYL     -0.035100
     30 CAQ         3.4630    0.2850    0.9210 c3        1 AYL     -0.103400
     31 CAR         2.7660    1.2210    1.9040 c3        1 AYL      0.181400
     32 CAS         7.2350   -1.0820   -1.5540 ca        1 AYL     -0.184500
     33 HN6        -4.5430   -5.0580    2.1140 hn        1 AYL      0.420800
     34 HN6A       -3.6010   -3.8170    2.7650 hn        1 AYL      0.420800
     35 H8         -2.1870    0.6750    1.5570 h5        1 AYL      0.157800
     36 H1'        -4.2890    0.9300   -1.7520 h2        1 AYL      0.111700
     37 H2'        -3.1550    2.4350    0.6480 h1        1 AYL      0.116700
     38 HO2'       -4.2080    4.0800   -0.7750 ho        1 AYL      0.420000
     39 H3'        -1.3190    3.5220   -0.3320 h1        1 AYL      0.137700
     40 HO3'       -2.8310    3.6240   -2.7310 ho        1 AYL      0.399000
     41 H4'        -0.8800    2.0850   -2.7740 h1        1 AYL      0.075700
     42 H5'        -0.5650    0.6270   -0.0600 h1        1 AYL      0.037700
     43 H5'A        0.5170    0.6050   -1.5440 h1        1 AYL      0.037700
     44 HAD         6.0430   -4.0180   -0.2320 ha        1 AYL      0.134000
     45 HAH         6.6800    0.8930   -0.8860 ha        1 AYL      0.138000
     46 HAJ         4.8220   -2.3940    1.2160 ha        1 AYL      0.138000
     47 HAP         5.1820    0.0550    2.2170 hc        1 AYL      0.045200
     48 HAPA        5.3420    1.3540    0.9690 hc        1 AYL      0.045200
     49 HAQ         3.2230    0.5950   -0.1290 hc        1 AYL      0.050700
     50 HAQA        3.0690   -0.7550    1.0590 hc        1 AYL      0.050700
     51 HAR         3.1150    2.2820    1.7550 h1        1 AYL      0.035200
     52 HARA        3.0180    0.8980    2.9550 h1        1 AYL      0.035200
     53 HAS         7.9120   -0.7270   -2.3420 ha        1 AYL      0.134000
     54 HOBF        7.4960   -4.2070   -1.9900 ho        1 AYL      0.412000
     55 OBF         7.7630   -3.3000   -2.1950 oh        1 AYL     -0.508100
     56 H2         -6.0360   -3.3720   -1.9200 h5        1 AYL      0.037100
@<TRIPOS>BOND
     1    1   13 1   
     2    1   16 1   
     3    1   19 1   
     4    1   23 1   
     5    2    3 ar  
     6    2    7 ar  
     7    3    4 ar  
     8    3   56 1   
     9    4    5 ar  
    10    5    6 ar  
    11    5   11 1   
    12    6    7 ar  
    13    6    9 1   
    14    7    8 1   
    15    8   33 1   
    16    8   34 1   
    17    9   10 2   
    18   10   11 1   
    19   10   35 1   
    20   11   12 1   
    21   12   14 1   
    22   12   21 1   
    23   12   36 1   
    24   14   15 1   
    25   14   17 1   
    26   14   37 1   
    27   15   38 1   
    28   16   31 1   
    29   17   18 1   
    30   17   20 1   
    31   17   39 1   
    32   18   40 1   
    33   20   21 1   
    34   20   22 1   
    35   20   41 1   
    36   22   23 1   
    37   22   42 1   
    38   22   43 1   
    39   24   25 ar  
    40   24   32 ar  
    41   24   55 1   
    42   25   27 ar  
    43   25   44 1   
    44   26   28 ar  
    45   26   32 ar  
    46   26   45 1   
    47   27   28 ar  
    48   27   46 1   
    49   28   29 1   
    50   29   30 1   
    51   29   47 1   
    52   29   48 1   
    53   30   31 1   
    54   30   49 1   
    55   30   50 1   
    56   31   51 1   
    57   31   52 1   
    58   32   53 1   
    59   54   55 1   
@<TRIPOS>SUBSTRUCTURE
     1 AYL         1 TEMP              0 ****  ****    0 ROOT
