@<TRIPOS>MOLECULE
AYL
   56    48     1     0     0
SMALL
bcc


@<TRIPOS>ATOM
      1 P          -0.5140   -2.3430    0.7720 p3        1 AYL      2.551000
      2 N1         -1.0050    3.4830   -3.8930 n1        1 AYL     -0.270000
      3 C2         -0.8580    3.2850   -2.5450 c1        1 AYL     -0.004000
      4 N3         -1.8730    2.7060   -1.8200 n1        1 AYL     -0.193000
      5 C4         -3.0340    2.3250   -2.4470 c1        1 AYL     -0.083000
      6 C5         -3.1780    2.5210   -3.7770 c1        1 AYL     -0.083000
      7 C6         -2.1480    3.1080   -4.5110 c1        1 AYL      0.197000
      8 N6         -2.2000    3.7740   -5.7490 n3        1 AYL     -0.335000
      9 N7         -4.4210    2.0530   -4.1430 n1        1 AYL     -0.174500
     10 C8         -5.0340    1.5720   -3.0300 c1        1 AYL     -0.026000
     11 N9         -4.1830    1.7360   -1.9770 n1        1 AYL     -0.174500
     12 C1'        -4.2600    1.6540   -0.6820 c2        1 AYL      0.131000
     13 O1P        -0.1960   -2.3220   -0.7110 os        1 AYL     -1.202000
     14 C2'        -5.5390    0.9360   -0.2770 c3        1 AYL     -0.047000
     15 O2'        -6.2050    1.6670    0.8170 oh        1 AYL     -0.326000
     16 O2P         0.8310   -2.0600    1.6150 os        1 AYL     -0.738000
     17 C3'        -5.1430   -0.2610    0.1440 c3        1 AYL      0.024000
     18 O3'        -5.9930   -0.7160    1.2030 oh        1 AYL     -0.322000
     19 O3P        -1.0770   -3.7140    1.1540 o         1 AYL     -1.107000
     20 C4'        -3.6340   -0.0720    0.6820 c3        1 AYL      0.002000
     21 O4'        -3.0690    0.7670   -0.1140 os        1 AYL     -0.279000
     22 C5'        -2.8910   -1.4060    0.6540 c3        1 AYL      0.033000
     23 O5'        -1.5880   -1.2220    1.0980 os        1 AYL     -0.726000
     24 CAC         7.9130   -0.1540    2.7810 c1        1 AYL      0.059000
     25 CAD         7.4210   -0.0460    1.4870 c1        1 AYL     -0.147500
     26 CAH         6.2200   -1.7750    3.2800 c1        1 AYL     -0.103000
     27 CAJ         6.3190   -0.8120    1.0950 c1        1 AYL     -0.147500
     28 CAK         5.7270   -1.6690    1.9900 c1        1 AYL     -0.086000
     29 CAP         4.5280   -2.5750    1.5350 c3        1 AYL     -0.126000
     30 CAQ         3.2290   -1.8970    1.8990 c3        1 AYL     -0.181000
     31 CAR         2.0600   -2.5550    1.1190 c3        1 AYL      0.032000
     32 CAS         7.3180   -1.0130    3.6730 c1        1 AYL     -0.161000
     33 OBF         9.0050    0.6890    3.2110 oh        1 AYL     -0.263000
     34 H2          0.0550    3.5290   -2.1980 ha        1 AYL      0.176000
     35 HN6        -1.4680    4.2470   -6.0500 hn        1 AYL      0.218000
     36 HN6A       -2.9770    3.7770   -6.2360 hn        1 AYL      0.218000
     37 H8         -5.9400    1.1210   -2.9980 DU        1 AYL      0.285000
     38 H1'        -4.2370    2.5240   -0.2960 h4        1 AYL      0.145000
     39 H2'        -6.1150    0.8520   -1.0120 h1        1 AYL      0.162000
     40 HO2'       -6.9380    2.1300    0.4810 ho        1 AYL      0.206000
     41 H3'        -5.1580   -0.9030   -0.6030 h1        1 AYL      0.133000
     42 HO3'       -6.6370   -1.2810    0.8570 ho        1 AYL      0.212000
     43 H4'        -3.6450    0.2870    1.5990 h1        1 AYL      0.128000
     44 H5'        -2.8780   -1.7360   -0.2140 h1        1 AYL      0.070000
     45 H5'A       -3.3470   -2.0450    1.2360 h1        1 AYL      0.070000
     46 HAD         7.7550    0.6570    0.9000 ha        1 AYL      0.139000
     47 HAH         5.8140   -2.3600    3.8900 ha        1 AYL      0.131000
     48 HAJ         5.9570   -0.7360    0.1530 ha        1 AYL      0.139000
     49 HAP         4.5840   -3.4470    1.9940 hc        1 AYL      0.089500
     50 HAPA        4.5700   -2.7090    0.5850 hc        1 AYL      0.089500
     51 HAQ         3.2800   -0.9470    1.6670 hc        1 AYL      0.087500
     52 HAQA        3.0710   -1.9930    2.8780 hc        1 AYL      0.087500
     53 HAR         2.0920   -3.5080    1.2330 h1        1 AYL      0.070500
     54 HARA        2.1370   -2.3390    0.1740 h1        1 AYL      0.070500
     55 HAS         7.7240   -1.1640    4.5510 ha        1 AYL      0.139000
     56 HOBF        9.7700    0.3790    2.8750 ho        1 AYL      0.212000
@<TRIPOS>BOND
     1    1   16 1   
     2    1   19 1   
     3    1   23 1   
     4    2    7 1   
     5    3    4 1   
     6    3   34 1   
     7    5    6 1   
     8    7    8 1   
     9    8   35 1   
    10    8   36 1   
    11    9   10 1   
    12   10   11 1   
    13   12   14 1   
    14   12   21 1   
    15   12   38 1   
    16   14   15 1   
    17   14   17 1   
    18   14   39 1   
    19   15   40 1   
    20   16   31 1   
    21   17   18 1   
    22   17   20 1   
    23   17   41 1   
    24   18   42 1   
    25   20   21 1   
    26   20   22 1   
    27   20   43 1   
    28   22   23 1   
    29   22   44 1   
    30   22   45 1   
    31   24   32 1   
    32   24   33 1   
    33   25   27 1   
    34   25   46 1   
    35   26   28 1   
    36   26   47 1   
    37   27   48 1   
    38   28   29 1   
    39   29   30 1   
    40   29   49 1   
    41   29   50 1   
    42   30   31 1   
    43   30   51 1   
    44   30   52 1   
    45   31   53 1   
    46   31   54 1   
    47   32   55 1   
    48   33   56 1   
@<TRIPOS>SUBSTRUCTURE
     1 AYL         1 TEMP              0 ****  ****    0 ROOT
