@<TRIPOS>MOLECULE
AYL
   56    56     1     0     0
SMALL
bcc


@<TRIPOS>ATOM
      1 P           0.4490   -0.2950    0.2110 p5        1 AYL      1.871000
      2 N1          0.9040   10.3760   -4.5740 n2        1 AYL     -0.232000
      3 C2          0.0280    9.5050   -4.0160 c2        1 AYL     -0.003000
      4 N3          0.2190    8.2240   -3.6070 n2        1 AYL     -0.174000
      5 C4          1.4940    7.7860   -3.7790 c2        1 AYL      0.052000
      6 C5          2.5390    8.6270   -4.3550 c2        1 AYL     -0.198000
      7 C6          2.1980    9.9470   -4.7510 c2        1 AYL      0.148000
      8 N6          3.1850   10.8130   -5.2390 nh        1 AYL     -0.318000
      9 N7          3.7150    7.8560   -4.3700 nh        1 AYL     -0.244000
     10 C8          3.4670    6.6050   -3.8350 c1        1 AYL      0.074000
     11 N9          2.1110    6.5400   -3.4880 nh        1 AYL     -0.151000
     12 C1'         1.5300    5.4630   -2.8040 c2        1 AYL     -0.162000
     13 O1P         1.7030   -0.7050    0.8430 o         1 AYL     -0.755000
     14 C2'         0.3660    4.8300   -3.1110 c2        1 AYL      0.130000
     15 O2'        -0.4570    5.1550   -4.1750 oh        1 AYL     -0.287000
     16 O2P        -0.6340   -0.4870    1.5780 os        1 AYL     -0.531000
     17 C3'        -0.2070    3.7270   -2.3690 c2        1 AYL     -0.244000
     18 O3'        -2.9890    4.4180   -4.3580 oh        1 AYL     -0.407000
     19 O3P        -0.2880   -0.7640   -0.9560 o         1 AYL     -0.755000
     20 C4'         0.2760    3.1330   -1.2530 c2        1 AYL      0.083000
     21 O4'         1.4410    3.5540   -0.6780 oh        1 AYL     -0.260000
     22 C5'        -0.4810    2.0120   -0.5870 c3        1 AYL      0.013000
     23 O5'         0.3690    1.3380    0.2980 os        1 AYL     -0.752000
     24 CAC        -3.3940   -2.5590    8.2520 c2        1 AYL      0.213000
     25 CAD        -2.2840   -2.0080    8.7290 c1        1 AYL     -0.319000
     26 CAH        -2.9010   -2.7690    5.7930 c2        1 AYL      0.046000
     27 CAJ        -1.2020   -1.4750    9.1920 c2        1 AYL     -0.150000
     28 CAK        -1.6090   -2.3110    5.7210 c2        1 AYL     -0.460000
     29 CAP        -0.8840   -2.1930    4.4690 c3        1 AYL     -0.019000
     30 CAQ        -1.0120   -0.7300    3.9240 c3        1 AYL     -0.253000
     31 CAR        -0.1480   -0.5490    2.7660 c2        1 AYL      0.267000
     32 CAS        -3.7090   -2.9060    6.9060 c2        1 AYL     -0.448000
     33 HN6         3.8580   10.3650   -5.8210 hn        1 AYL      0.199500
     34 HN6A        2.8530   11.6800   -5.6040 hn        1 AYL      0.199500
     35 H8          4.5980    8.1980   -4.6400 hn        1 AYL      0.258000
     36 H1'         1.6260    3.0010    0.1020 ho        1 AYL      0.255000
     37 H2'         2.1520    5.1060   -1.9590 h4        1 AYL      0.194000
     38 HO2'       -0.0650    5.8730   -4.6860 ho        1 AYL      0.228000
     39 H3'        -1.1570    3.3440   -2.7870 ha        1 AYL      0.157000
     40 HO3'       -2.2250    4.0080   -4.7770 ho        1 AYL      0.201500
     41 H4'        -2.5960    5.0640   -3.7620 ho        1 AYL      0.201500
     42 H5'        -1.3250    2.4710    0.0050 h1        1 AYL      0.121500
     43 H5'A       -0.8960    1.3000   -1.3570 h1        1 AYL      0.121500
     44 HAD        -1.0560   -0.3860    9.2640 ha        1 AYL      0.074500
     45 HAH        -4.7120   -3.3320    6.7470 ha        1 AYL      0.085000
     46 HAJ        -1.0860   -1.9840    6.6290 ha        1 AYL      0.130000
     47 HAP        -0.3410   -2.0700    9.5330 ha        1 AYL      0.074500
     48 HAPA        0.2100   -2.4000    4.6070 hc        1 AYL      0.060500
     49 HAQ        -1.2810   -2.8760    3.6740 hc        1 AYL      0.060500
     50 HAQA       -2.0900   -0.5380    3.6920 hc        1 AYL      0.133500
     51 HAR        -0.6830   -0.0460    4.7520 hc        1 AYL      0.133500
     52 HARA        0.9640   -0.5260    2.8760 h4        1 AYL      0.179000
     53 HAS        -3.3700   -3.0860    4.8370 ha        1 AYL      0.066000
     54 HOBF       -5.1220   -3.2320    8.7600 ho        1 AYL      0.196000
     55 OBF        -4.3790   -2.8180    9.2160 oh        1 AYL     -0.298000
     56 H2         -1.0040    9.8950   -3.8810 h5        1 AYL      0.194000
@<TRIPOS>BOND
     1    1   13 1   
     2    1   16 1   
     3    1   19 1   
     4    1   23 1   
     5    2    3 1   
     6    2    7 1   
     7    3    4 1   
     8    3   56 1   
     9    4    5 1   
    10    5    6 1   
    11    5   11 1   
    12    6    7 1   
    13    6    9 1   
    14    7    8 1   
    15    8   33 1   
    16    8   34 1   
    17    9   10 1   
    18    9   35 1   
    19   10   11 1   
    20   11   12 1   
    21   12   14 1   
    22   12   37 1   
    23   14   15 1   
    24   14   17 1   
    25   15   38 1   
    26   16   31 1   
    27   17   20 1   
    28   17   39 1   
    29   18   40 1   
    30   18   41 1   
    31   20   21 1   
    32   20   22 1   
    33   21   36 1   
    34   22   23 1   
    35   22   42 1   
    36   22   43 1   
    37   24   25 1   
    38   24   32 1   
    39   24   55 1   
    40   25   27 1   
    41   26   28 1   
    42   26   32 1   
    43   26   53 1   
    44   27   44 1   
    45   27   47 1   
    46   28   29 1   
    47   28   46 1   
    48   29   30 1   
    49   29   48 1   
    50   29   49 1   
    51   30   31 1   
    52   30   50 1   
    53   30   51 1   
    54   31   52 1   
    55   32   45 1   
    56   54   55 1   
@<TRIPOS>SUBSTRUCTURE
     1 AYL         1 TEMP              0 ****  ****    0 ROOT
