@<TRIPOS>MOLECULE
AYL
   56    73     1     0     0
SMALL
bcc


@<TRIPOS>ATOM
      1 P           0.0000    0.0000    0.0000 p5        1 AYL      1.403000
      2 N1          1.5430    9.9160   -3.3770 n2        1 AYL     -0.129000
      3 C2          0.4250    9.3980   -3.8510 c2        1 AYL      0.022000
      4 N3          0.0800    8.1470   -3.6350 n2        1 AYL     -0.049000
      5 C4          0.8580    7.3430   -2.9180 c2        1 AYL     -0.056000
      6 C5          2.0590    7.8470   -2.3910 c2        1 AYL     -0.485000
      7 C6          2.3850    9.1900   -2.6500 c2        1 AYL      0.063000
      8 N6          3.5550    9.7420   -2.1580 nv        1 AYL     -0.022000
      9 N7          2.6540    6.8370   -1.7120 n2        1 AYL      0.364000
     10 C8          1.9110    5.7710   -1.7860 c2        1 AYL     -0.306000
     11 N9          0.7930    6.0320   -2.5200 nx        1 AYL      0.112000
     12 C1'        -0.2840    5.0860   -2.8250 DU        1 AYL     -0.014000
     13 O1P         1.6100    0.0000    0.0000 o         1 AYL     -0.618500
     14 C2'        -0.0520    4.4240   -4.2070 DU        1 AYL     -0.499000
     15 O2'        -0.5940    5.2290   -5.2560 oh        1 AYL     -0.513000
     16 O2P        -0.5350    0.0000    1.5180 os        1 AYL     -0.586000
     17 C3'        -0.8360    3.0960   -4.0670 DU        1 AYL     -0.394000
     18 O3'        -2.1320    3.2160   -4.6590 oh        1 AYL     -0.529000
     19 O3P        -0.4940   -1.2070   -0.6980 o         1 AYL     -0.618500
     20 C4'        -0.9560    2.8880   -2.5450 DU        1 AYL     -0.255000
     21 O4'        -0.2580    3.9710   -1.9090 os        1 AYL     -0.182000
     22 C5'        -0.3180    1.5550   -2.1500 c3        1 AYL     -0.057000
     23 O5'        -0.5360    1.3150   -0.7580 os        1 AYL     -0.627000
     24 CAC        -2.5050   -1.0220    8.5160 c3        1 AYL     -0.008000
     25 CAD        -1.1890   -0.6610    8.2640 c2        1 AYL     -0.159000
     26 CAH        -2.6640   -1.9670    6.3190 c2        1 AYL      0.276000
     27 CAJ        -0.6150   -0.9550    7.0430 c3        1 AYL     -0.270000
     28 CAK        -1.3510   -1.6070    6.0700 DU        1 AYL      0.313000
     29 CAP        -0.7220   -1.9260    4.7380 DU        1 AYL     -0.236000
     30 CAQ        -0.9560   -0.7630    3.7720 DU        1 AYL     -0.451000
     31 CAR        -0.3180   -1.0870    2.4200 c3        1 AYL      0.015000
     32 CAS        -3.2420   -1.6750    7.5380 c3        1 AYL     -0.397000
     33 HN6         3.1590    9.1310   -1.4710 hn        1 AYL      0.115000
     34 HN6A        4.3450    9.8590   -2.7610 hn        1 AYL      0.115000
     35 H8          2.3030    6.7720   -1.6520 hx        1 AYL      0.083000
     36 H1'         0.6340    4.9830   -2.2600 DU        1 AYL      0.399000
     37 H2'        -0.6490    4.9970   -3.5080 DU        1 AYL      0.206000
     38 HO2'        0.1300    4.7770   -4.8550 DU        1 AYL      0.337000
     39 H3'        -0.5600    3.8390   -4.8050 DU        1 AYL      0.457000
     40 HO3'       -1.2920    2.7910   -4.5950 DU        1 AYL      0.343000
     41 H4'        -1.4150    2.7600   -3.5180 DU        1 AYL      0.379000
     42 H5'        -1.1640    2.2310   -2.2010 DU        1 AYL      0.320000
     43 H5'A        0.7460    1.5920   -2.3480 h1        1 AYL      0.093000
     44 HAD        -1.1480   -0.5230    7.1900 DU        1 AYL      0.160000
     45 HAH        -2.0830   -1.4660    7.0840 DU        1 AYL      0.208000
     46 HAJ        -1.4560   -1.4430    6.5650 hc        1 AYL     -0.591000
     47 HAP        -0.2660   -1.4240    5.5830 DU        1 AYL      0.425000
     48 HAPA       -1.1690   -2.8270    4.3340 ha        1 AYL      0.172000
     49 HAQ        -0.3010   -1.4250    4.3240 DU        1 AYL      0.285000
     50 HAQA       -0.5090    0.1370    4.1760 ha        1 AYL      0.114000
     51 HAR        -1.1780   -0.8470    3.0340 DU        1 AYL      0.226000
     52 HARA        0.7460   -1.2410    2.5500 h1        1 AYL      0.064000
     53 HAS        -2.8000   -1.7320    6.5510 hc        1 AYL     -0.167000
     54 HOBF       -3.4980   -1.1910    9.0110 DU        1 AYL      0.305000
     55 OBF        -3.0700   -0.7390    9.7190 oh        1 AYL     -0.299000
     56 H2         -0.1770   10.0220   -4.5010 h5        1 AYL      0.144000
@<TRIPOS>BOND
     1    1   13 1   
     2    1   16 1   
     3    1   19 1   
     4    1   23 1   
     5    2    3 1   
     6    2    7 1   
     7    3    4 1   
     8    3   56 1   
     9    4    5 1   
    10    5    6 1   
    11    5   11 1   
    12    6    7 1   
    13    6    9 1   
    14    7    8 1   
    15    8   33 1   
    16    8   34 1   
    17    9   10 1   
    18   10   11 1   
    19   10   35 1   
    20   11   12 1   
    21   11   36 1   
    22   12   14 1   
    23   12   21 1   
    24   12   36 1   
    25   12   37 1   
    26   14   15 1   
    27   14   17 1   
    28   14   37 1   
    29   14   38 1   
    30   14   39 1   
    31   15   38 1   
    32   16   31 1   
    33   17   18 1   
    34   17   20 1   
    35   17   39 1   
    36   17   40 1   
    37   17   41 1   
    38   18   40 1   
    39   20   21 1   
    40   20   22 1   
    41   20   41 1   
    42   20   42 1   
    43   22   23 1   
    44   22   42 1   
    45   22   43 1   
    46   24   25 1   
    47   24   32 1   
    48   24   54 1   
    49   24   55 1   
    50   25   27 1   
    51   25   44 1   
    52   26   28 1   
    53   26   32 1   
    54   26   45 1   
    55   27   28 1   
    56   27   44 1   
    57   27   46 1   
    58   28   29 1   
    59   28   45 1   
    60   28   47 1   
    61   29   30 1   
    62   29   47 1   
    63   29   48 1   
    64   29   49 1   
    65   30   31 1   
    66   30   49 1   
    67   30   50 1   
    68   30   51 1   
    69   31   51 1   
    70   31   52 1   
    71   32   45 1   
    72   32   53 1   
    73   54   55 1   
@<TRIPOS>SUBSTRUCTURE
     1 AYL         1 TEMP              0 ****  ****    0 ROOT
