@<TRIPOS>MOLECULE
AYM
   44    46     1     0     0
SMALL
bcc


@<TRIPOS>ATOM
      1 N01        -2.6860   -0.0420   -5.9170 nh        1 AYM     -0.934500
      2 C02        -1.6600    0.1580   -4.9950 ca        1 AYM      0.652200
      3 N03        -1.8920   -0.1110   -3.6640 nb        1 AYM     -0.730000
      4 C04        -0.8620   -0.0050   -2.8190 ca        1 AYM      0.463200
      5 C05         0.4490    0.3750   -3.1850 ca        1 AYM     -0.249100
      6 C06         0.6710    0.6680   -4.5430 ca        1 AYM     -0.033000
      7 C07        -0.3680    0.5690   -5.4540 ca        1 AYM     -0.311300
      8 C08         1.5350    0.4760   -2.2360 ce        1 AYM     -0.011200
      9 C09         1.4660    0.1390   -0.9380 cf        1 AYM     -0.251200
     10 C10         2.6500    0.3040   -0.0630 c         1 AYM      0.669300
     11 O11         3.5580    1.1210   -0.3340 o         1 AYM     -0.612100
     12 N12         2.7640   -0.4770    1.0880 n         1 AYM     -0.485800
     13 C13         3.9080   -0.2910    1.9370 c3        1 AYM      0.082300
     14 C14         1.7930   -1.4800    1.4340 c3        1 AYM      0.162200
     15 C15         0.4850   -0.9960    1.9800 cc        1 AYM     -0.090300
     16 C16        -0.7690   -1.2640    1.4250 cd        1 AYM     -0.186200
     17 C17        -1.7600   -0.6650    2.2840 ca        1 AYM     -0.095800
     18 C18        -1.0360   -0.0320    3.3640 ca        1 AYM     -0.040200
     19 N19         0.3330   -0.2570    3.1670 na        1 AYM     -0.062400
     20 C20         1.3760    0.2400    3.9980 c3        1 AYM      0.030600
     21 C21        -3.1540   -0.5970    2.2550 ca        1 AYM     -0.081000
     22 C22        -3.8130    0.0810    3.2670 ca        1 AYM     -0.158000
     23 C23        -3.1030    0.6970    4.3160 ca        1 AYM     -0.112000
     24 C24        -1.7200    0.6530    4.3830 ca        1 AYM     -0.143000
     25 H011       -3.6070   -0.1490   -5.5560 hn        1 AYM      0.414300
     26 H012       -2.6140    0.4970   -6.7480 hn        1 AYM      0.414300
     27 H04        -1.1100   -0.2320   -1.7630 h4        1 AYM      0.027100
     28 H06         1.6720    0.9790   -4.8810 ha        1 AYM      0.141000
     29 H07        -0.2010    0.7920   -6.5160 ha        1 AYM      0.144000
     30 H08         2.4890    0.8640   -2.6450 ha        1 AYM      0.146000
     31 H09         0.5420   -0.2320   -0.4670 ha        1 AYM      0.150000
     32 H131        4.8060   -0.0330    1.3110 h1        1 AYM      0.043367
     33 H132        3.7310    0.5530    2.6570 h1        1 AYM      0.043367
     34 H133        4.1230   -1.2270    2.5170 h1        1 AYM      0.043367
     35 H141        1.5520   -2.0880    0.5100 h1        1 AYM      0.064200
     36 H142        2.2520   -2.1820    2.1930 h1        1 AYM      0.064200
     37 H16        -0.9700   -1.8270    0.5180 ha        1 AYM      0.155000
     38 H201        0.9870    0.3890    5.0410 h1        1 AYM      0.050700
     39 H202        2.2250   -0.4950    4.0210 h1        1 AYM      0.050700
     40 H203        1.7590    1.2240    3.6100 h1        1 AYM      0.050700
     41 H21        -3.7110   -1.0760    1.4370 ha        1 AYM      0.135000
     42 H22        -4.9110    0.1450    3.2590 ha        1 AYM      0.130000
     43 H23        -3.6650    1.2270    5.0990 ha        1 AYM      0.129000
     44 H24        -1.1760    1.1390    5.2030 ha        1 AYM      0.131000
@<TRIPOS>BOND
     1    1    2 1   
     2    1   25 1   
     3    1   26 1   
     4    2    3 ar  
     5    2    7 ar  
     6    3    4 ar  
     7    4    5 ar  
     8    4   27 1   
     9    5    6 ar  
    10    5    8 1   
    11    6    7 ar  
    12    6   28 1   
    13    7   29 1   
    14    8    9 2   
    15    8   30 1   
    16    9   10 1   
    17    9   31 1   
    18   10   11 2   
    19   10   12 1   
    20   12   13 1   
    21   12   14 1   
    22   13   32 1   
    23   13   33 1   
    24   13   34 1   
    25   14   15 1   
    26   14   35 1   
    27   14   36 1   
    28   15   16 2   
    29   15   19 1   
    30   16   17 1   
    31   16   37 1   
    32   17   18 ar  
    33   17   21 ar  
    34   18   19 1   
    35   18   24 ar  
    36   19   20 1   
    37   20   38 1   
    38   20   39 1   
    39   20   40 1   
    40   21   22 ar  
    41   21   41 1   
    42   22   23 ar  
    43   22   42 1   
    44   23   24 ar  
    45   23   43 1   
    46   24   44 1   
@<TRIPOS>SUBSTRUCTURE
     1 AYM         1 TEMP              0 ****  ****    0 ROOT
