@<TRIPOS>MOLECULE
AYM
   46    48     1     0     0
SMALL
bcc


@<TRIPOS>ATOM
      1 N01         0.6090    1.1710   -1.1480 n4        1 AYM     -0.820300
      2 C02         1.7320    0.4470   -0.5140 ca        1 AYM      0.464200
      3 N03         1.4190   -0.3150    0.5790 nb        1 AYM     -0.633000
      4 C04         2.4120   -0.9990    1.1500 ca        1 AYM      0.466200
      5 C05         3.7640   -0.9610    0.6950 ca        1 AYM     -0.176100
      6 C06         4.0550   -0.1650   -0.4130 ca        1 AYM     -0.027000
      7 C07         3.0290    0.5590   -1.0450 ca        1 AYM     -0.189300
      8 C08         4.7290   -1.8210    1.3600 ce        1 AYM      0.038800
      9 C09         5.9860   -1.5760    1.7690 cf        1 AYM     -0.256200
     10 C10         6.7130   -0.3100    1.6350 c         1 AYM      0.552300
     11 O11         6.3640    0.6890    1.0140 o         1 AYM     -0.441100
     12 N12         8.0660   -0.2650    2.3140 n4        1 AYM     -0.592200
     13 C13         8.8780    0.8830    1.8400 c3        1 AYM      0.088100
     14 C14         7.9330   -0.2830    3.8300 c3        1 AYM      0.212000
     15 C15         7.4810    0.9900    4.4130 cc        1 AYM     -0.210300
     16 C16         6.1520    1.3920    4.5920 cd        1 AYM     -0.081200
     17 C17         6.1720    2.6720    5.2430 ca        1 AYM     -0.124800
     18 C18         7.5620    3.0110    5.4430 ca        1 AYM     -0.012200
     19 N19         8.3640    2.0030    4.8750 na        1 AYM     -0.052400
     20 C20         9.7070    1.7420    5.3010 c3        1 AYM      0.005600
     21 C21         5.1710    3.5490    5.6790 ca        1 AYM     -0.072000
     22 C22         5.5430    4.7270    6.2990 ca        1 AYM     -0.135000
     23 C23         6.9020    5.0540    6.4920 ca        1 AYM     -0.066000
     24 C24         7.9220    4.2170    6.0730 ca        1 AYM     -0.142000
     25 H011       -0.0670    0.4940   -1.5320 hn        1 AYM      0.482133
     26 H012        0.9670    1.7660   -1.9040 hn        1 AYM      0.482133
     27 H04         2.1150   -1.6140    2.0270 h4        1 AYM      0.076100
     28 H06         5.0830   -0.0920   -0.8110 ha        1 AYM      0.186000
     29 H07         3.2630    1.1820   -1.9230 ha        1 AYM      0.185000
     30 H08         4.3290   -2.8420    1.5620 ha        1 AYM      0.184000
     31 H09         6.5340   -2.4060    2.2590 ha        1 AYM      0.176000
     32 H131        9.0180    0.8050    0.7290 hx        1 AYM      0.113033
     33 H132        9.8740    0.8620    2.3580 hx        1 AYM      0.113033
     34 H133        8.3490    1.8460    2.0800 hx        1 AYM      0.113033
     35 H141        7.1890   -1.0950    4.0800 hx        1 AYM      0.108200
     36 H142        8.9500   -0.5780    4.2270 hx        1 AYM      0.108200
     37 H16         5.2610    0.8420    4.3030 ha        1 AYM      0.147000
     38 H201        9.7420    0.9860    6.1330 h1        1 AYM      0.061700
     39 H202       10.1730    2.6980    5.6620 h1        1 AYM      0.061700
     40 H203       10.3030    1.3560    4.4300 h1        1 AYM      0.061700
     41 H21         4.1110    3.2940    5.5320 ha        1 AYM      0.142000
     42 H22         4.7730    5.4290    6.6570 ha        1 AYM      0.157000
     43 H23         7.1540    6.0030    6.9960 ha        1 AYM      0.160000
     44 H24         8.9760    4.4860    6.2330 ha        1 AYM      0.155000
     45 H013        0.1250    1.7560   -0.4500 hn        1 AYM      0.482133
     46 H121        8.5560   -1.1320    2.0500 hn        1 AYM      0.450800
@<TRIPOS>BOND
     1    1    2 1   
     2    1   25 1   
     3    1   26 1   
     4    1   45 1   
     5    2    3 ar  
     6    2    7 ar  
     7    3    4 ar  
     8    4    5 ar  
     9    4   27 1   
    10    5    6 ar  
    11    5    8 1   
    12    6    7 ar  
    13    6   28 1   
    14    7   29 1   
    15    8    9 2   
    16    8   30 1   
    17    9   10 1   
    18    9   31 1   
    19   10   11 2   
    20   10   12 1   
    21   12   13 1   
    22   12   14 1   
    23   12   46 1   
    24   13   32 1   
    25   13   33 1   
    26   13   34 1   
    27   14   15 1   
    28   14   35 1   
    29   14   36 1   
    30   15   16 2   
    31   15   19 1   
    32   16   17 1   
    33   16   37 1   
    34   17   18 ar  
    35   17   21 ar  
    36   18   19 1   
    37   18   24 ar  
    38   19   20 1   
    39   20   38 1   
    40   20   39 1   
    41   20   40 1   
    42   21   22 ar  
    43   21   41 1   
    44   22   23 ar  
    45   22   42 1   
    46   23   24 ar  
    47   23   43 1   
    48   24   44 1   
@<TRIPOS>SUBSTRUCTURE
     1 AYM         1 TEMP              0 ****  ****    0 ROOT
