@<TRIPOS>MOLECULE
AYM
   45    47     1     0     0
SMALL
bcc


@<TRIPOS>ATOM
      1 N01         0.8460    1.5800   -1.3430 nh        1 AYM     -0.932500
      2 C02         1.8480    0.8190   -0.8200 ca        1 AYM      0.739200
      3 N03         2.7440    1.3990    0.0680 nb        1 AYM     -0.745000
      4 C04         3.7280    0.6460    0.5430 ca        1 AYM      0.533200
      5 C05         3.9410   -0.7240    0.2290 ca        1 AYM     -0.355100
      6 C06         2.9930   -1.3180   -0.6500 ca        1 AYM      0.013000
      7 C07         1.9670   -0.5750   -1.1810 ca        1 AYM     -0.335300
      8 C08         4.9790   -1.5380    0.7540 ce        1 AYM      0.146800
      9 C09         6.1780   -1.2590    1.3370 cf        1 AYM     -0.391200
     10 C10         6.8210    0.0210    1.4520 c         1 AYM      0.574300
     11 O11         6.5310    1.1210    0.9930 o         1 AYM     -0.466100
     12 N12         8.1470   -0.0180    2.2390 n4        1 AYM     -0.599200
     13 C13         8.9700    1.1850    1.9870 c3        1 AYM      0.091100
     14 C14         7.8900   -0.2410    3.7090 c3        1 AYM      0.202000
     15 C15         7.4420    0.9660    4.4350 cc        1 AYM     -0.187300
     16 C16         6.1350    1.4460    4.5110 cd        1 AYM     -0.084200
     17 C17         6.1540    2.6180    5.3490 ca        1 AYM     -0.118800
     18 C18         7.5240    2.8070    5.7620 ca        1 AYM     -0.020200
     19 N19         8.3240    1.8250    5.1450 na        1 AYM     -0.060400
     20 C20         9.5910    1.4050    5.6590 c3        1 AYM      0.011600
     21 C21         5.1660    3.5100    5.7770 ca        1 AYM     -0.065000
     22 C22         5.5320    4.5590    6.6050 ca        1 AYM     -0.144000
     23 C23         6.8700    4.7360    7.0100 ca        1 AYM     -0.079000
     24 C24         7.8780    3.8780    6.6010 ca        1 AYM     -0.145000
     25 H011        0.2010    1.1690   -1.9720 hn        1 AYM      0.458300
     26 H012        0.7500    2.5390   -1.1050 hn        1 AYM      0.458300
     27 H04         4.3910    1.1740    1.2580 h4        1 AYM      0.036100
     28 H06         3.0910   -2.3850   -0.9140 ha        1 AYM      0.147000
     29 H07         1.2410   -1.0290   -1.8710 ha        1 AYM      0.161000
     30 H08         4.7660   -2.6310    0.6670 ha        1 AYM      0.144000
     31 H09         6.7440   -2.1300    1.7190 ha        1 AYM      0.146000
     32 H131        9.1990    1.2500    0.8900 hx        1 AYM      0.104033
     33 H132        8.3980    2.1040    2.2940 hx        1 AYM      0.104033
     34 H133        9.9180    1.1160    2.5810 hx        1 AYM      0.104033
     35 H141        7.0880   -1.0340    3.7850 hx        1 AYM      0.101700
     36 H142        8.8480   -0.6470    4.1500 hx        1 AYM      0.101700
     37 H16         5.2550    1.0280    4.0260 ha        1 AYM      0.159000
     38 H201       10.0650    2.2560    6.2170 h1        1 AYM      0.055700
     39 H202        9.4890    0.5280    6.3550 h1        1 AYM      0.055700
     40 H203       10.2600    1.1150    4.8040 h1        1 AYM      0.055700
     41 H21         4.1230    3.3750    5.4580 ha        1 AYM      0.146000
     42 H22         4.7710    5.2720    6.9570 ha        1 AYM      0.149000
     43 H23         7.1180    5.5830    7.6710 ha        1 AYM      0.149000
     44 H24         8.9170    4.0320    6.9240 ha        1 AYM      0.145000
     45 H121        8.6640   -0.8370    1.8980 hn        1 AYM      0.438800
@<TRIPOS>BOND
     1    1    2 1   
     2    1   25 1   
     3    1   26 1   
     4    2    3 ar  
     5    2    7 ar  
     6    3    4 ar  
     7    4    5 ar  
     8    4   27 1   
     9    5    6 ar  
    10    5    8 1   
    11    6    7 ar  
    12    6   28 1   
    13    7   29 1   
    14    8    9 2   
    15    8   30 1   
    16    9   10 1   
    17    9   31 1   
    18   10   11 2   
    19   10   12 1   
    20   12   13 1   
    21   12   14 1   
    22   12   45 1   
    23   13   32 1   
    24   13   33 1   
    25   13   34 1   
    26   14   15 1   
    27   14   35 1   
    28   14   36 1   
    29   15   16 2   
    30   15   19 1   
    31   16   17 1   
    32   16   37 1   
    33   17   18 ar  
    34   17   21 ar  
    35   18   19 1   
    36   18   24 ar  
    37   19   20 1   
    38   20   38 1   
    39   20   39 1   
    40   20   40 1   
    41   21   22 ar  
    42   21   41 1   
    43   22   23 ar  
    44   22   42 1   
    45   23   24 ar  
    46   23   43 1   
    47   24   44 1   
@<TRIPOS>SUBSTRUCTURE
     1 AYM         1 TEMP              0 ****  ****    0 ROOT
