@<TRIPOS>MOLECULE
AYM
   44    37     1     0     0
SMALL
bcc


@<TRIPOS>ATOM
      1 N01        -3.0850   -5.8670   -3.8760 n3        1 AYM     -0.331000
      2 C02        -2.3160   -4.6350   -3.7410 c2        1 AYM      0.125000
      3 N03        -0.9630   -4.6960   -3.4970 n2        1 AYM     -0.204000
      4 C04        -0.2280   -3.5500   -3.4440 c1        1 AYM     -0.010000
      5 C05        -0.8440   -2.3120   -3.6350 c1        1 AYM     -0.178000
      6 C06        -2.1840   -2.2480   -3.8770 c1        1 AYM     -0.036000
      7 C07        -2.9310   -3.4040   -3.9320 c1        1 AYM     -0.244000
      8 C08         0.0300   -1.0140   -3.7420 c2        1 AYM     -0.046000
      9 C09         0.3380   -0.2950   -2.6070 c1        1 AYM     -0.209000
     10 C10        -0.1670   -0.7560   -1.2620 c1        1 AYM      0.349000
     11 O11        -1.2260   -1.3480   -1.1820 o         1 AYM     -0.390000
     12 N12         0.5250   -0.3890   -0.0890 n3        1 AYM     -0.328000
     13 C13         1.9640   -0.4510   -0.0580 c3        1 AYM     -0.076000
     14 C14        -0.2300   -0.0570    1.1360 c3        1 AYM      0.029000
     15 C15         0.4000    1.1430    1.8110 c2        1 AYM     -0.057000
     16 C16        -0.1820    1.0950    3.0670 c1        1 AYM     -0.194000
     17 C17         0.2190    2.2210    3.7690 c1        1 AYM     -0.086000
     18 C18         1.0460    2.9610    2.9490 c1        1 AYM      0.003000
     19 N19         1.1570    2.2920    1.7360 n1        1 AYM     -0.148000
     20 C20         1.8980    2.9940    0.7560 c2        1 AYM     -0.087000
     21 C21        -0.0510    2.6580    5.0720 c1        1 AYM     -0.083000
     22 C22         0.5120    3.8370    5.5430 c1        1 AYM     -0.136500
     23 C23         1.3460    4.5850    4.7190 c1        1 AYM     -0.136500
     24 C24         1.6160    4.1490    3.4200 c1        1 AYM     -0.141000
     25 H011       -2.6400   -6.6860   -4.0030 hn        1 AYM      0.208000
     26 H012       -4.0090   -5.8500   -3.7840 hn        1 AYM      0.208000
     27 H04         0.7290   -3.5940   -3.2710 ha        1 AYM      0.156000
     28 H06        -2.6120   -1.3850   -4.0100 ha        1 AYM      0.168000
     29 H07        -3.9260   -3.3570   -4.1100 ha        1 AYM      0.145000
     30 H08         0.3580   -0.7120   -4.6210 ha        1 AYM      0.130000
     31 H09         0.8720    0.4980   -2.6730 ha        1 AYM      0.150000
     32 H131        2.2550   -1.3730   -0.2400 h1        1 AYM      0.084667
     33 H132        2.3390    0.1610   -0.7570 h1        1 AYM      0.084667
     34 H133        2.2870   -0.1730    0.8310 h1        1 AYM      0.084667
     35 H141       -0.2120   -0.8090    1.7370 h1        1 AYM      0.114500
     36 H142       -1.1560    0.1510    0.9010 h1        1 AYM      0.114500
     37 H16        -0.7590    0.3600    3.4170 DU        1 AYM      0.152000
     38 H201        1.9180    2.4790   -0.0690 ha        1 AYM      0.098667
     39 H202        2.7920    3.1280    1.0700 ha        1 AYM      0.098667
     40 H203        1.4690    3.8790    0.5860 ha        1 AYM      0.098667
     41 H21        -0.6340    2.1360    5.6450 ha        1 AYM      0.132000
     42 H22         0.3270    4.1320    6.4340 ha        1 AYM      0.128000
     43 H23         1.7460    5.4190    5.0500 ha        1 AYM      0.128000
     44 H24         2.2110    4.6800    2.8310 ha        1 AYM      0.133000
@<TRIPOS>BOND
     1    1    2 1   
     2    1   25 1   
     3    1   26 1   
     4    2    3 1   
     5    2    7 1   
     6    3    4 1   
     7    4   27 1   
     8    5    6 1   
     9    5    8 1   
    10    6   28 1   
    11    7   29 1   
    12    8    9 1   
    13    8   30 1   
    14    9   31 1   
    15   10   11 1   
    16   10   12 1   
    17   12   13 1   
    18   12   14 1   
    19   13   32 1   
    20   13   33 1   
    21   13   34 1   
    22   14   15 1   
    23   14   35 1   
    24   14   36 1   
    25   15   16 1   
    26   15   19 1   
    27   16   17 1   
    28   17   21 1   
    29   18   24 1   
    30   20   38 1   
    31   20   39 1   
    32   20   40 1   
    33   21   41 1   
    34   22   23 1   
    35   22   42 1   
    36   23   43 1   
    37   24   44 1   
@<TRIPOS>SUBSTRUCTURE
     1 AYM         1 TEMP              0 ****  ****    0 ROOT
