@<TRIPOS>MOLECULE
AYM
   45    47     1     0     0
SMALL
bcc


@<TRIPOS>ATOM
      1 N01         0.9200    1.5550   -1.4250 nv        1 AYM     -0.932500
      2 C02         1.9000    0.7890   -0.8680 ca        1 AYM      0.739200
      3 N03         2.7930    1.3760    0.0190 nb        1 AYM     -0.745000
      4 C04         3.7560    0.6170    0.5280 ca        1 AYM      0.533200
      5 C05         3.9490   -0.7640    0.2500 ca        1 AYM     -0.355100
      6 C06         3.0030   -1.3630   -0.6280 ca        1 AYM      0.013000
      7 C07         1.9990   -0.6150   -1.1940 ca        1 AYM     -0.335300
      8 C08         4.9640   -1.5820    0.8120 ce        1 AYM      0.146800
      9 C09         6.1600   -1.3100    1.4060 cf        1 AYM     -0.391200
     10 C10         6.8240   -0.0380    1.4970 c         1 AYM      0.574300
     11 O11         6.5610    1.0540    1.0040 o         1 AYM     -0.466100
     12 N12         8.1350   -0.0800    2.3080 nx        1 AYM     -0.599200
     13 C13         8.9840    1.1020    2.0370 c3        1 AYM      0.091100
     14 C14         7.8490   -0.2570    3.7780 c3        1 AYM      0.202000
     15 C15         7.4110    0.9770    4.4630 cc        1 AYM     -0.187300
     16 C16         6.1110    1.4820    4.5040 cd        1 AYM     -0.084200
     17 C17         6.1380    2.6760    5.3090 ca        1 AYM     -0.118800
     18 C18         7.5040    2.8520    5.7410 ca        1 AYM     -0.020200
     19 N19         8.2960    1.8400    5.1650 na        1 AYM     -0.060400
     20 C20         9.5460    1.4120    5.7120 c3        1 AYM      0.011600
     21 C21         5.1590    3.5970    5.6960 ca        1 AYM     -0.065000
     22 C22         5.5300    4.6620    6.5010 ca        1 AYM     -0.144000
     23 C23         6.8640    4.8270    6.9240 ca        1 AYM     -0.079000
     24 C24         7.8630    3.9390    6.5570 ca        1 AYM     -0.145000
     25 H011        0.8380    2.5210   -1.2120 hn        1 AYM      0.458300
     26 H012        0.2770    1.1400   -2.0540 hn        1 AYM      0.458300
     27 H04         4.4180    1.1510    1.2400 h4        1 AYM      0.036100
     28 H06         3.0860   -2.4370   -0.8650 ha        1 AYM      0.147000
     29 H07         1.2760   -1.0730   -1.8830 ha        1 AYM      0.161000
     30 H08         4.7330   -2.6730    0.7490 ha        1 AYM      0.144000
     31 H09         6.7040   -2.1800    1.8190 ha        1 AYM      0.146000
     32 H131        9.2320    1.1320    0.9430 hx        1 AYM      0.104033
     33 H132        9.9210    1.0320    2.6490 hx        1 AYM      0.104033
     34 H133        8.4240    2.0390    2.3090 hx        1 AYM      0.104033
     35 H141        8.7920   -0.6670    4.2470 hx        1 AYM      0.101700
     36 H142        7.0320   -1.0330    3.8620 hx        1 AYM      0.101700
     37 H16         5.2330    1.0670    4.0150 ha        1 AYM      0.159000
     38 H201        9.4170    0.5560    6.4290 h1        1 AYM      0.055700
     39 H202       10.2240    1.0880    4.8770 h1        1 AYM      0.055700
     40 H203       10.0260    2.2690    6.2550 h1        1 AYM      0.055700
     41 H21         4.1190    3.4720    5.3620 ha        1 AYM      0.146000
     42 H22         4.7760    5.3970    6.8200 ha        1 AYM      0.149000
     43 H23         7.1150    5.6860    7.5660 ha        1 AYM      0.149000
     44 H24         8.8990    4.0840    6.8930 ha        1 AYM      0.145000
     45 H121        8.6430   -0.9170    1.9980 hn        1 AYM      0.438800
@<TRIPOS>BOND
     1    1    2 1   
     2    1   25 1   
     3    1   26 1   
     4    2    3 ar  
     5    2    7 ar  
     6    3    4 ar  
     7    4    5 ar  
     8    4   27 1   
     9    5    6 ar  
    10    5    8 1   
    11    6    7 ar  
    12    6   28 1   
    13    7   29 1   
    14    8    9 2   
    15    8   30 1   
    16    9   10 1   
    17    9   31 1   
    18   10   11 2   
    19   10   12 1   
    20   12   13 1   
    21   12   14 1   
    22   12   45 1   
    23   13   32 1   
    24   13   33 1   
    25   13   34 1   
    26   14   15 1   
    27   14   35 1   
    28   14   36 1   
    29   15   16 2   
    30   15   19 1   
    31   16   17 1   
    32   16   37 1   
    33   17   18 ar  
    34   17   21 ar  
    35   18   19 1   
    36   18   24 ar  
    37   19   20 1   
    38   20   38 1   
    39   20   39 1   
    40   20   40 1   
    41   21   22 ar  
    42   21   41 1   
    43   22   23 ar  
    44   22   42 1   
    45   23   24 ar  
    46   23   43 1   
    47   24   44 1   
@<TRIPOS>SUBSTRUCTURE
     1 AYM         1 TEMP              0 ****  ****    0 ROOT
