@<TRIPOS>MOLECULE
AYQ
   65    65     1     0     0
SMALL
bcc


@<TRIPOS>ATOM
      1 CAA         3.5150   -2.1140    1.9000 c3        1 AYQ     -0.080000
      2 OAI         0.7760   -2.7190    1.7550 o         1 AYQ     -0.486000
      3 OAJ        -2.2950    0.2280   -1.4810 o         1 AYQ     -0.412000
      4 OAM         8.3120    1.8100   -0.0500 o         1 AYQ     -1.164000
      5 OAK         6.4750    3.3010    0.8950 o         1 AYQ     -1.164000
      6 OAL         7.8170    4.0570   -1.1410 o         1 AYQ     -1.164000
      7 CAN         4.0960    0.6310   -2.5520 ca        1 AYQ     -0.314500
      8 CAO         3.6880    1.7100   -0.3870 ca        1 AYQ     -0.314500
      9 CAP         2.8550    0.0580   -2.4780 ca        1 AYQ     -0.050000
     10 CAQ         2.4550    1.1230   -0.3450 ca        1 AYQ     -0.050000
     11 NAU         2.6430   -1.7580    0.8250 n         1 AYQ     -0.333000
     12 CBC         1.3110   -2.0420    0.8320 c2        1 AYQ      0.338000
     13 CBE         4.6060    1.4660   -1.4840 ca        1 AYQ      0.312000
     14 CBF         2.0090    0.2430   -1.3610 ca        1 AYQ     -0.363000
     15 CBI         0.4560   -1.5900   -0.3110 cx        1 AYQ     -0.236000
     16 CBJ        -0.2690   -0.2700   -0.2190 cx        1 AYQ     -0.213000
     17 CBK         0.7530   -0.4780   -1.3130 cx        1 AYQ      0.063000
     18 PBL         7.4340    2.9920   -0.1890 p3        1 AYQ      2.472000
     19 N          -2.4840   -1.0230    0.4280 n         1 AYQ     -0.390000
     20 CA         -3.8190   -1.4900    0.1830 c3        1 AYQ      0.024000
     21 C          -4.8800   -0.4100    0.5300 c2        1 AYQ      0.295000
     22 O          -5.6520   -0.5330    1.5040 o         1 AYQ     -0.402000
     23 CB         -4.1560   -2.7640    0.9750 c3        1 AYQ     -0.159000
     24 CG         -3.3540   -3.9580    0.4970 c3        1 AYQ     -0.186000
     25 CD         -2.8160   -4.7640    1.6680 c2        1 AYQ      0.293000
     26 OE1        -3.4070   -5.7970    2.0590 o         1 AYQ     -0.411000
     27 NE2        -1.6910   -4.3180    2.3020 n         1 AYQ     -0.414000
     28 NAV        -4.9500    0.6630   -0.3260 n         1 AYQ     -0.372000
     29 CBH        -5.8000    1.8010   -0.0950 c3        1 AYQ      0.023000
     30 CBA        -7.2440    1.5520   -0.6080 c2        1 AYQ      0.285000
     31 OAG        -7.7380    2.2210   -1.5390 o         1 AYQ     -0.395000
     32 CAT        -5.2750    3.0790   -0.7620 c3        1 AYQ     -0.187000
     33 CAZ        -4.0270    3.5820   -0.0570 c2        1 AYQ      0.295000
     34 OAF        -4.1190    4.4460    0.8430 o         1 AYQ     -0.396000
     35 NAC        -2.8110    3.0860   -0.4300 n         1 AYQ     -0.420000
     36 NAD        -7.9710    0.5810    0.0200 n         1 AYQ     -0.429000
     37 HAA         2.9350   -2.2580    2.8500 h1        1 AYQ      0.083000
     38 HAAA        4.0470   -3.0740    1.6600 h1        1 AYQ      0.083000
     39 HAN         4.7480    0.4690   -3.4190 ha        1 AYQ      0.141500
     40 HAO         4.0460    2.3840    0.4090 ha        1 AYQ      0.141500
     41 HAP         2.5010   -0.5820   -3.3030 ha        1 AYQ      0.074000
     42 HAQ         1.7890    1.3340    0.5060 ha        1 AYQ      0.074000
     43 HBI        -0.1170   -2.4610   -0.6960 hc        1 AYQ      0.114000
     44 HBJ        -0.0260    0.4350    0.6020 hc        1 AYQ      0.163000
     45 HBK         0.3380   -0.6810   -2.3280 hc        1 AYQ      0.106000
     46 H28         4.2800   -1.3040    2.0450 h1        1 AYQ      0.083000
     47 H29         3.0090   -1.1600    0.1050 hn        1 AYQ      0.287000
     48 HN         -2.0080   -1.4100    1.2130 hn        1 AYQ      0.246000
     49 HA         -3.9260   -1.7150   -0.9240 h1        1 AYQ      0.112000
     50 HB         -3.9960   -2.5760    2.0700 hc        1 AYQ      0.113000
     51 HBA        -5.2520   -2.9650    0.8460 hc        1 AYQ      0.113000
     52 HG         -4.0130   -4.6410   -0.1020 hc        1 AYQ      0.107000
     53 HGA        -2.5070   -3.6470   -0.1700 hc        1 AYQ      0.107000
     54 HNE2       -1.1270   -3.5940    1.9170 hn        1 AYQ      0.241000
     55 HNEA       -1.2910   -4.8720    3.0200 hn        1 AYQ      0.241000
     56 HNAV       -4.3030    0.7170   -1.0870 hn        1 AYQ      0.264000
     57 HBH        -5.8710    1.9810    1.0240 h1        1 AYQ      0.135000
     58 HAT        -5.0960    2.9130   -1.8550 hc        1 AYQ      0.128500
     59 HATA       -6.0660    3.8700   -0.6670 hc        1 AYQ      0.128500
     60 HNAC       -2.7170    2.3920   -1.1310 hn        1 AYQ      0.242000
     61 HNAA       -1.9900    3.4220    0.0130 hn        1 AYQ      0.242000
     62 HNAD       -7.5800    0.0490    0.7610 hn        1 AYQ      0.234000
     63 HNAB       -8.8940    0.3900   -0.2760 hn        1 AYQ      0.234000
     64 CBD        -1.7350   -0.3150   -0.5040 c2        1 AYQ      0.353000
     65 OAX         5.7750    1.9450   -1.5050 o         1 AYQ     -0.488000
@<TRIPOS>BOND
     1    1   11 1   
     2    1   37 1   
     3    1   38 1   
     4    1   46 1   
     5    2   12 1   
     6    3   64 1   
     7    4   18 1   
     8    5   18 1   
     9    6   18 1   
    10    7    9 1   
    11    7   13 1   
    12    7   39 1   
    13    8   10 1   
    14    8   13 1   
    15    8   40 1   
    16    9   14 1   
    17    9   41 1   
    18   10   14 1   
    19   10   42 1   
    20   11   12 1   
    21   11   47 1   
    22   12   15 1   
    23   13   65 1   
    24   14   17 1   
    25   15   16 1   
    26   15   17 1   
    27   15   43 1   
    28   16   17 1   
    29   16   44 1   
    30   16   64 1   
    31   17   45 1   
    32   19   20 1   
    33   19   48 1   
    34   19   64 1   
    35   20   21 1   
    36   20   23 1   
    37   20   49 1   
    38   21   22 1   
    39   21   28 1   
    40   23   24 1   
    41   23   50 1   
    42   23   51 1   
    43   24   25 1   
    44   24   52 1   
    45   24   53 1   
    46   25   26 1   
    47   25   27 1   
    48   27   54 1   
    49   27   55 1   
    50   28   29 1   
    51   28   56 1   
    52   29   30 1   
    53   29   32 1   
    54   29   57 1   
    55   30   31 1   
    56   30   36 1   
    57   32   33 1   
    58   32   58 1   
    59   32   59 1   
    60   33   34 1   
    61   33   35 1   
    62   35   60 1   
    63   35   61 1   
    64   36   62 1   
    65   36   63 1   
@<TRIPOS>SUBSTRUCTURE
     1 AYQ         1 TEMP              0 ****  ****    0 ROOT
