@<TRIPOS>MOLECULE
AYQ
   65    62     1     0     0
SMALL
bcc


@<TRIPOS>ATOM
      1 CAA        -4.3320   -0.5690   -5.3020 c3        1 AYQ     -0.077000
      2 OAI        -4.3120    1.3920   -2.6840 o         1 AYQ     -0.421000
      3 OAJ         0.0890   -0.6290    0.6850 o         1 AYQ     -0.368000
      4 OAM        -8.0510    1.0340    4.2020 o         1 AYQ     -0.847833
      5 OAK        -7.7220    0.6500    1.7840 o         1 AYQ     -0.847833
      6 OAL        -8.5060    2.8480    2.5890 o         1 AYQ     -0.847833
      7 CAN        -4.7200    2.7630    1.1370 c1        1 AYQ     -0.298000
      8 CAO        -4.7440    0.4850    1.9220 c1        1 AYQ     -0.201000
      9 CAP        -3.7760    2.4210    0.1750 c1        1 AYQ     -0.046000
     10 CAQ        -3.8000    0.1430    0.9580 c1        1 AYQ     -0.201000
     11 NAU        -3.8020    0.6610   -4.7980 n         1 AYQ     -0.359000
     12 OAX        -6.1160    2.1550    3.0250 os        1 AYQ     -0.511000
     13 CBC        -3.5260    0.8030   -3.4030 c2        1 AYQ      0.333000
     14 CBD        -0.0070   -0.0480   -0.3810 c1        1 AYQ      0.327000
     15 CBE        -5.2040    1.7950    2.0110 c1        1 AYQ      0.305000
     16 CBF        -3.3160    1.1100    0.0850 c1        1 AYQ     -0.350000
     17 CBI        -1.9290    0.1860   -2.7120 cx        1 AYQ     -0.195000
     18 CBJ        -1.4980   -0.2930   -1.4330 cu        1 AYQ     -0.205000
     19 CBK        -1.8580    1.0360   -1.5390 cx        1 AYQ      0.011000
     20 PBL        -7.6150    1.6660    2.8980 p5        1 AYQ      1.535500
     21 N           1.0690    0.7940   -0.8410 n3        1 AYQ     -0.356000
     22 CA          2.4140    0.3410   -0.7530 c3        1 AYQ     -0.007000
     23 C           2.7260   -0.0490    0.6810 c2        1 AYQ      0.270000
     24 O           2.6110    0.7740    1.5750 o         1 AYQ     -0.386000
     25 CB          3.3560    1.4560   -1.1930 c3        1 AYQ     -0.155000
     26 CG          4.1530    0.9980   -2.4290 c3        1 AYQ     -0.178000
     27 CD          5.3290    1.9530   -2.6600 c2        1 AYQ      0.301000
     28 OE1         5.2520    3.1150   -2.2960 o         1 AYQ     -0.399000
     29 NE2         6.4900    1.5010   -3.3680 n         1 AYQ     -0.436000
     30 NAV         3.1850   -1.3870    0.9830 n         1 AYQ     -0.345000
     31 CBH         3.3880   -1.7820    2.3400 c3        1 AYQ      0.017000
     32 CBA         4.8580   -1.6800    2.6820 c2        1 AYQ      0.278000
     33 OAG         5.6990   -1.8790    1.8220 o         1 AYQ     -0.418000
     34 CAT         2.9230   -3.2170    2.5250 c3        1 AYQ     -0.212000
     35 CAZ         2.1540   -3.3390    3.8450 c2        1 AYQ      0.289000
     36 OAF         1.7120   -2.3400    4.3870 o         1 AYQ     -0.490000
     37 NAC         1.8930   -4.6320    4.4040 n         1 AYQ     -0.355000
     38 NAD         5.2630   -1.3210    4.0120 n         1 AYQ     -0.412000
     39 HAA        -3.7070   -0.9510   -5.9590 h1        1 AYQ      0.074000
     40 HAAA       -5.1980   -0.4000   -5.7330 h1        1 AYQ      0.074000
     41 HAN        -5.0220    3.6950    1.2200 ha        1 AYQ      0.146000
     42 HAO        -5.0860   -0.1970    2.5380 ha        1 AYQ      0.102500
     43 HAP        -3.4350    3.1030   -0.4410 ha        1 AYQ      0.088000
     44 HAQ        -3.4760   -0.7800    0.8950 ha        1 AYQ      0.102500
     45 HBI        -1.5800    0.0410   -3.6180 hc        1 AYQ      0.130000
     46 HBJ        -1.6980   -1.1290   -0.9570 ha        1 AYQ      0.164000
     47 HBK        -1.0580    1.5920   -1.4420 hc        1 AYQ      0.098000
     48 H28        -4.4540   -1.2010   -4.5600 h1        1 AYQ      0.074000
     49 H29        -3.6540    1.3640   -5.3680 hn        1 AYQ      0.267000
     50 HN          0.8840    1.6110   -1.2150 hn        1 AYQ      0.213000
     51 HA          2.5350   -0.4380   -1.3380 h1        1 AYQ      0.143000
     52 HB          3.9770    1.6670   -0.4610 hc        1 AYQ      0.101000
     53 HBA         2.8320    2.2570   -1.4190 hc        1 AYQ      0.101000
     54 HG          4.4940    0.0880   -2.2800 hc        1 AYQ      0.124000
     55 HGA         3.5660    1.0030   -3.2180 hc        1 AYQ      0.124000
     56 HNE2        6.5330    0.6380   -3.6730 hn        1 AYQ      0.221000
     57 HNEA        7.1970    2.0700   -3.5000 hn        1 AYQ      0.221000
     58 HNAV        3.3050   -1.9950    0.3050 hn        1 AYQ      0.250000
     59 HBH         2.8720   -1.1930    2.9330 h1        1 AYQ      0.165000
     60 HAT         3.7030   -3.8140    2.5440 hc        1 AYQ      0.130000
     61 HATA        2.3350   -3.4700    1.7790 hc        1 AYQ      0.130000
     62 HNAC        1.4520   -4.7050    5.2070 hn        1 AYQ      0.275000
     63 HNAA        2.1660   -5.3870    3.9600 hn        1 AYQ      0.275000
     64 HNAD        4.6300   -1.1440    4.6510 hn        1 AYQ      0.232500
     65 HNAB        6.1570   -1.2390    4.2140 hn        1 AYQ      0.232500
@<TRIPOS>BOND
     1    1   11 1   
     2    1   39 1   
     3    1   40 1   
     4    1   48 1   
     5    2   13 1   
     6    3   14 1   
     7    4   20 1   
     8    5   20 1   
     9    6   20 1   
    10    7   15 1   
    11    7   41 1   
    12    8   10 1   
    13    8   42 1   
    14    9   16 1   
    15    9   43 1   
    16   10   44 1   
    17   11   13 1   
    18   11   49 1   
    19   12   15 1   
    20   12   20 1   
    21   13   17 1   
    22   14   21 1   
    23   16   19 1   
    24   17   18 1   
    25   17   19 1   
    26   17   45 1   
    27   18   19 1   
    28   18   46 1   
    29   19   47 1   
    30   21   22 1   
    31   21   50 1   
    32   22   23 1   
    33   22   25 1   
    34   22   51 1   
    35   23   24 1   
    36   23   30 1   
    37   25   26 1   
    38   25   52 1   
    39   25   53 1   
    40   26   27 1   
    41   26   54 1   
    42   26   55 1   
    43   27   28 1   
    44   27   29 1   
    45   29   56 1   
    46   29   57 1   
    47   30   31 1   
    48   30   58 1   
    49   31   32 1   
    50   31   34 1   
    51   31   59 1   
    52   32   33 1   
    53   32   38 1   
    54   34   35 1   
    55   34   60 1   
    56   34   61 1   
    57   35   36 1   
    58   35   37 1   
    59   37   62 1   
    60   37   63 1   
    61   38   64 1   
    62   38   65 1   
@<TRIPOS>SUBSTRUCTURE
     1 AYQ         1 TEMP              0 ****  ****    0 ROOT
