@<TRIPOS>MOLECULE
AYX
   36    37     1     0     0
SMALL
bcc


@<TRIPOS>ATOM
      1 C1         -0.4980   -0.0880    0.0700 ca        1 AYX     -0.641500
      2 N1         -0.6070   -1.4870   -2.2000 n4        1 AYX     -0.782500
      3 O1         -2.6990   -0.7560   -0.9220 o         1 AYX     -0.576800
      4 S1         -1.5000   -0.1110   -1.1430 sy        1 AYX      1.513200
      5 C2          0.6430    0.7570    0.0780 ca        1 AYX      0.050500
      6 O2         -1.3990    0.9340   -2.0370 o         1 AYX     -0.576800
      7 C3          1.5000    0.8340    1.1480 ca        1 AYX     -0.214000
      8 C4          1.2620    0.0600    2.3240 ca        1 AYX      0.239600
      9 C5          0.1000   -0.7800    2.3370 ca        1 AYX     -0.214000
     10 C6         -0.7330   -0.8430    1.2490 ca        1 AYX      0.050500
     11 N7          2.0640    0.0950    3.4380 n         1 AYX     -0.460100
     12 C8          3.3380    0.7580    3.5120 c         1 AYX      0.785100
     13 O8          3.9430    1.0460    2.4620 o         1 AYX     -0.571100
     14 N9          3.8160    1.0540    4.7850 n         1 AYX     -0.455100
     15 C10         5.1000    1.6010    5.0190 ca        1 AYX      0.035600
     16 C11         5.7110    2.4810    4.1080 ca        1 AYX     -0.078000
     17 C12         6.9670    3.0210    4.4210 ca        1 AYX     -0.153200
     18 C13         7.6230    2.7090    5.6190 ca        1 AYX     -0.067000
     19 C14         7.0020    1.8390    6.5140 ca        1 AYX     -0.111000
     20 C15         5.7610    1.2820    6.2290 ca        1 AYX     -0.123000
     21 N16         7.6130    3.9520    3.4500 no        1 AYX      0.314200
     22 O16         8.7070    4.3750    3.7000 o         1 AYX     -0.193000
     23 O17         7.0150    4.2490    2.4510 o         1 AYX     -0.193000
     24 H111        5.2250    2.7460    3.1490 ha        1 AYX      0.197000
     25 HN1        -1.2300   -2.2770   -2.3450 hn        1 AYX      0.449133
     26 H113        8.6130    3.1430    5.8480 ha        1 AYX      0.185000
     27 H114        7.5060    1.5870    7.4620 ha        1 AYX      0.163000
     28 H115        5.3000    0.5970    6.9590 ha        1 AYX      0.146000
     29 H2          0.8370    1.3940   -0.8090 ha        1 AYX      0.168000
     30 H3          2.3760    1.5070    1.0900 ha        1 AYX      0.187000
     31 H5         -0.1350   -1.3830    3.2310 ha        1 AYX      0.187000
     32 H6         -1.6290   -1.4940    1.2920 ha        1 AYX      0.168000
     33 HN7         1.7450   -0.4120    4.2370 hn        1 AYX      0.338500
     34 HN9         3.3310    0.7330    5.5930 hn        1 AYX      0.333500
     35 HN1A       -0.3530   -1.1160   -3.1120 hn        1 AYX      0.449133
     36 H13         0.2350   -1.8260   -1.7500 hn        1 AYX      0.449133
@<TRIPOS>BOND
     1    1    4 1   
     2    1    5 ar  
     3    1   10 ar  
     4    2    4 1   
     5    2   25 1   
     6    2   35 1   
     7    2   36 1   
     8    3    4 2   
     9    4    6 2   
    10    5    7 ar  
    11    5   29 1   
    12    7    8 ar  
    13    7   30 1   
    14    8    9 ar  
    15    8   11 1   
    16    9   10 ar  
    17    9   31 1   
    18   10   32 1   
    19   11   12 1   
    20   11   33 1   
    21   12   13 2   
    22   12   14 1   
    23   14   15 1   
    24   14   34 1   
    25   15   16 ar  
    26   15   20 ar  
    27   16   17 ar  
    28   16   24 1   
    29   17   18 ar  
    30   17   21 1   
    31   18   19 ar  
    32   18   26 1   
    33   19   20 ar  
    34   19   27 1   
    35   20   28 1   
    36   21   22 1   
    37   21   23 1   
@<TRIPOS>SUBSTRUCTURE
     1 AYX         1 TEMP              0 ****  ****    0 ROOT
