@<TRIPOS>MOLECULE
AYX
   35    36     1     0     0
SMALL
bcc


@<TRIPOS>ATOM
      1 C1         -0.4060   -0.2060   -0.0280 ca        1 AYX     -0.418500
      2 N1         -0.7220   -1.6110   -2.1690 n3        1 AYX     -1.026700
      3 O1         -2.6790   -0.8310   -0.9030 o         1 AYX     -0.659800
      4 S1         -1.4120   -0.4090   -1.3650 sy        1 AYX      1.532200
      5 C2          0.7300    0.6060   -0.0940 ca        1 AYX      0.012500
      6 O2         -1.3560    0.7610   -2.1510 o         1 AYX     -0.659800
      7 C3          1.5620    0.7980    1.0020 ca        1 AYX     -0.201000
      8 C4          1.2640    0.1680    2.2300 ca        1 AYX      0.142600
      9 C5          0.1020   -0.6450    2.3080 ca        1 AYX     -0.201000
     10 C6         -0.7050   -0.8190    1.1960 ca        1 AYX      0.012500
     11 N7          2.0420    0.3000    3.3870 n         1 AYX     -0.477100
     12 C8          3.2800    0.9630    3.4780 c         1 AYX      0.787100
     13 O8          3.8710    1.4180    2.4760 o         1 AYX     -0.594100
     14 N9          3.8210    1.1070    4.7760 n         1 AYX     -0.474100
     15 C10         5.1150    1.6060    5.0190 ca        1 AYX      0.062600
     16 C11         5.6920    2.6120    4.2160 ca        1 AYX     -0.080000
     17 C12         6.9600    3.1050    4.5510 ca        1 AYX     -0.151200
     18 C13         7.6690    2.6280    5.6630 ca        1 AYX     -0.090000
     19 C14         7.0850    1.6390    6.4500 ca        1 AYX     -0.115000
     20 C15         5.8310    1.1250    6.1410 ca        1 AYX     -0.142000
     21 N16         7.5700    4.1700    3.7050 no        1 AYX      0.312200
     22 O16         8.6890    4.5330    3.9540 o         1 AYX     -0.202000
     23 O17         6.9310    4.6390    2.8040 o         1 AYX     -0.202000
     24 H111        5.1630    3.0040    3.3260 ha        1 AYX      0.205000
     25 HN1        -0.9390   -2.5640   -2.0230 hn        1 AYX      0.447300
     26 H113        8.6670    3.0290    5.9080 ha        1 AYX      0.175000
     27 H114        7.6280    1.2550    7.3290 ha        1 AYX      0.151000
     28 H115        5.4020    0.3410    6.7850 ha        1 AYX      0.140000
     29 H2          0.9660    1.1270   -1.0400 ha        1 AYX      0.156500
     30 H3          2.4460    1.4490    0.8950 ha        1 AYX      0.160000
     31 H5         -0.1740   -1.1420    3.2510 ha        1 AYX      0.160000
     32 H6         -1.6150   -1.4420    1.2770 ha        1 AYX      0.156500
     33 HN7         1.6300   -0.0650    4.2180 hn        1 AYX      0.321500
     34 HN9         3.4300    0.5760    5.5210 hn        1 AYX      0.316500
     35 HN1A       -0.0510   -1.4770   -2.8830 hn        1 AYX      0.447300
@<TRIPOS>BOND
     1    1    4 1   
     2    1    5 ar  
     3    1   10 ar  
     4    2    4 1   
     5    2   25 1   
     6    2   35 1   
     7    3    4 2   
     8    4    6 2   
     9    5    7 ar  
    10    5   29 1   
    11    7    8 ar  
    12    7   30 1   
    13    8    9 ar  
    14    8   11 1   
    15    9   10 ar  
    16    9   31 1   
    17   10   32 1   
    18   11   12 1   
    19   11   33 1   
    20   12   13 2   
    21   12   14 1   
    22   14   15 1   
    23   14   34 1   
    24   15   16 ar  
    25   15   20 ar  
    26   16   17 ar  
    27   16   24 1   
    28   17   18 ar  
    29   17   21 1   
    30   18   19 ar  
    31   18   26 1   
    32   19   20 ar  
    33   19   27 1   
    34   20   28 1   
    35   21   22 1   
    36   21   23 1   
@<TRIPOS>SUBSTRUCTURE
     1 AYX         1 TEMP              0 ****  ****    0 ROOT
