@<TRIPOS>MOLECULE
AYX
   35    31     1     0     0
SMALL
bcc


@<TRIPOS>ATOM
      1 C1         -0.9660   -1.6990   -3.6970 c1        1 AYX     -0.863000
      2 N1         -2.1630   -2.7390   -5.9880 n3        1 AYX     -0.953000
      3 O1          0.1500   -3.4260   -5.3160 o         1 AYX     -0.547400
      4 S1         -1.0970   -3.0700   -4.7960 s4        1 AYX      2.087800
      5 C2         -1.9990   -2.0130   -2.8220 c1        1 AYX      0.011000
      6 O2         -1.4640   -4.3000   -4.0750 o         1 AYX     -0.547400
      7 C3         -1.8330   -1.8290   -1.4550 c2        1 AYX     -0.217000
      8 C4         -0.6410   -1.3340   -0.9670 c1        1 AYX      0.150000
      9 C5          0.3980   -1.0180   -1.8490 c1        1 AYX     -0.185000
     10 C6          0.2320   -1.2010   -3.2040 c2        1 AYX      0.014000
     11 N7         -0.4220   -1.2630    0.4860 n         1 AYX     -0.331000
     12 C8         -0.1300   -0.0310    1.0980 c2        1 AYX      0.414000
     13 O8         -0.0540    1.0050    0.4100 o         1 AYX     -0.355000
     14 N9          0.1400    0.0190    2.5100 n         1 AYX     -0.328000
     15 C10         0.4980    1.2500    3.1210 c2        1 AYX      0.070000
     16 C11         1.5580    1.9800    2.6250 c2        1 AYX     -0.080000
     17 C12         1.9750    3.1200    3.2830 c1        1 AYX     -0.106000
     18 C13         1.3280    3.5280    4.4420 c1        1 AYX     -0.102500
     19 C14         0.2840    2.8080    4.9300 c1        1 AYX     -0.102500
     20 C15        -0.1410    1.6620    4.2740 c1        1 AYX     -0.142000
     21 N16         3.0230    3.9410    2.7210 no        1 AYX      0.567000
     22 O16         3.2960    3.8600    1.4820 o         1 AYX     -0.352000
     23 O17         3.8620    4.6320    3.5610 o         1 AYX     -0.352000
     24 H111        1.9810    1.7120    1.8610 ha        1 AYX      0.205000
     25 HN1        -3.0820   -2.8220   -5.8290 hn        1 AYX      0.242500
     26 H113        1.6380    4.3760    4.9320 ha        1 AYX      0.163000
     27 H114       -0.1600    3.0940    5.7290 ha        1 AYX      0.163000
     28 H115       -0.8640    1.1670    4.6140 ha        1 AYX      0.140000
     29 H2         -2.7850   -2.3410   -3.1460 DU        1 AYX      0.157000
     30 H3         -2.5700   -2.0540   -0.8300 ha        1 AYX      0.136000
     31 H5          1.2500   -0.6660   -1.5020 ha        1 AYX      0.184000
     32 H6          0.9750   -0.9730   -3.8320 ha        1 AYX      0.156000
     33 HN7        -0.4160   -2.0380    0.9900 hn        1 AYX      0.234000
     34 HN9         0.0790   -0.7560    3.0230 hn        1 AYX      0.230000
     35 HN1A       -1.8790   -2.5820   -6.7850 hn        1 AYX      0.242500
@<TRIPOS>BOND
     1    1    5 1   
     2    1   10 1   
     3    2    4 1   
     4    2   25 1   
     5    2   35 1   
     6    3    4 1   
     7    4    6 1   
     8    5    7 1   
     9    7    8 1   
    10    7   30 1   
    11    8   11 1   
    12    9   10 1   
    13    9   31 1   
    14   10   32 1   
    15   11   12 1   
    16   11   33 1   
    17   12   13 1   
    18   12   14 1   
    19   14   15 1   
    20   14   34 1   
    21   15   16 1   
    22   15   20 1   
    23   16   17 1   
    24   16   24 1   
    25   17   21 1   
    26   18   19 1   
    27   18   26 1   
    28   19   27 1   
    29   20   28 1   
    30   21   22 1   
    31   21   23 1   
@<TRIPOS>SUBSTRUCTURE
     1 AYX         1 TEMP              0 ****  ****    0 ROOT
