@<TRIPOS>MOLECULE
AYX
   36    37     1     0     0
SMALL
bcc


@<TRIPOS>ATOM
      1 C1         -0.4820   -0.0820    0.0450 ca        1 AYX     -0.641500
      2 N1         -0.5800   -1.5070   -2.2100 nz        1 AYX     -0.782500
      3 O1         -2.6780   -0.7390   -0.9650 o         1 AYX     -0.576800
      4 S1         -1.4700   -0.1100   -1.1800 sy        1 AYX      1.513200
      5 C2          0.6680    0.7510    0.0550 ca        1 AYX      0.050500
      6 O2         -1.3480    0.9230   -2.0850 o         1 AYX     -0.576800
      7 C3          1.5130    0.8310    1.1330 ca        1 AYX     -0.214000
      8 C4          1.2540    0.0750    2.3170 ca        1 AYX      0.239600
      9 C5          0.0830   -0.7530    2.3270 ca        1 AYX     -0.214000
     10 C6         -0.7380   -0.8200    1.2300 ca        1 AYX      0.050500
     11 N7          2.0430    0.1160    3.4390 ns        1 AYX     -0.460100
     12 C8          3.3240    0.7650    3.5190 c         1 AYX      0.785100
     13 O8          3.9450    1.0290    2.4720 o         1 AYX     -0.571100
     14 N9          3.7900    1.0750    4.7930 ns        1 AYX     -0.455100
     15 C10         5.0780    1.6090    5.0350 ca        1 AYX      0.035600
     16 C11         5.7130    2.4650    4.1170 ca        1 AYX     -0.078000
     17 C12         6.9720    2.9930    4.4380 ca        1 AYX     -0.153200
     18 C13         7.6070    2.6940    5.6500 ca        1 AYX     -0.067000
     19 C14         6.9620    1.8490    6.5520 ca        1 AYX     -0.111000
     20 C15         5.7180    1.3040    6.2600 ca        1 AYX     -0.123000
     21 N16         7.6430    3.8990    3.4600 no        1 AYX      0.314200
     22 O16         8.7390    4.3110    3.7170 o         1 AYX     -0.193000
     23 O17         7.0630    4.1850    2.4480 o         1 AYX     -0.193000
     24 H111        5.2440    2.7190    3.1470 ha        1 AYX      0.197000
     25 HN1        -0.3110   -1.1500   -3.1230 hn        1 AYX      0.449467
     26 H113        8.5990    3.1200    5.8860 ha        1 AYX      0.185000
     27 H114        7.4500    1.6070    7.5110 ha        1 AYX      0.163000
     28 H115        5.2380    0.6380    6.9950 ha        1 AYX      0.146000
     29 H2          0.8800    1.3740   -0.8370 ha        1 AYX      0.168000
     30 H3          2.3980    1.4940    1.0770 ha        1 AYX      0.187000
     31 H5         -0.1690   -1.3420    3.2250 ha        1 AYX      0.187000
     32 H6         -1.6420   -1.4600    1.2700 ha        1 AYX      0.168000
     33 HN7         1.7090   -0.3780    4.2410 hn        1 AYX      0.338500
     34 HN9         3.2900    0.7720    5.5990 hn        1 AYX      0.333500
     35 HN1A        0.2540   -1.8500   -1.7460 hn        1 AYX      0.449467
     36 H13        -1.2090   -2.2920   -2.3530 hn        1 AYX      0.449467
@<TRIPOS>BOND
     1    1    4 1   
     2    1    5 ar  
     3    1   10 ar  
     4    2    4 1   
     5    2   25 1   
     6    2   35 1   
     7    2   36 1   
     8    3    4 2   
     9    4    6 2   
    10    5    7 ar  
    11    5   29 1   
    12    7    8 ar  
    13    7   30 1   
    14    8    9 ar  
    15    8   11 1   
    16    9   10 ar  
    17    9   31 1   
    18   10   32 1   
    19   11   12 1   
    20   11   33 1   
    21   12   13 2   
    22   12   14 1   
    23   14   15 1   
    24   14   34 1   
    25   15   16 ar  
    26   15   20 ar  
    27   16   17 ar  
    28   16   24 1   
    29   17   18 ar  
    30   17   21 1   
    31   18   19 ar  
    32   18   26 1   
    33   19   20 ar  
    34   19   27 1   
    35   20   28 1   
    36   21   22 1   
    37   21   23 1   
@<TRIPOS>SUBSTRUCTURE
     1 AYX         1 TEMP              0 ****  ****    0 ROOT
