@<TRIPOS>MOLECULE
AYX
   35    36     1     0     0
SMALL
bcc


@<TRIPOS>ATOM
      1 C1         -4.1380    0.2050   -0.1730 ca        1 AYX     -0.418500
      2 N1         -6.0890    0.0040    1.5040 n3        1 AYX     -1.026700
      3 O1         -6.5400    0.4770   -0.8650 o         1 AYX     -0.659800
      4 S1         -5.7330   -0.3200   -0.0240 sy        1 AYX      1.532200
      5 C2         -3.0670   -0.6290    0.1630 ca        1 AYX      0.012500
      6 O2         -5.7650   -1.7180   -0.2160 o         1 AYX     -0.659800
      7 C3         -1.7460   -0.2190    0.0310 ca        1 AYX     -0.201000
      8 C4         -1.4560    1.0720   -0.4600 ca        1 AYX      0.142600
      9 C5         -2.5400    1.9180   -0.8190 ca        1 AYX     -0.201000
     10 C6         -3.8450    1.4800   -0.6720 ca        1 AYX      0.012500
     11 N7         -0.1600    1.5740   -0.6270 n         1 AYX     -0.477100
     12 C8          1.0300    0.9360   -0.2260 c         1 AYX      0.787100
     13 O8          1.0320   -0.1230    0.4350 o         1 AYX     -0.594100
     14 N9          2.2370    1.5520   -0.6270 n         1 AYX     -0.474100
     15 C10         3.5020    1.1270   -0.1800 ca        1 AYX      0.062600
     16 C11         3.7930   -0.2310    0.0670 ca        1 AYX     -0.080000
     17 C12         5.0910   -0.5900    0.4530 ca        1 AYX     -0.151200
     18 C13         6.1100    0.3630    0.5980 ca        1 AYX     -0.090000
     19 C14         5.8110    1.6990    0.3460 ca        1 AYX     -0.115000
     20 C15         4.5310    2.0880   -0.0330 ca        1 AYX     -0.142000
     21 N16         5.3990   -2.0260    0.7110 no        1 AYX      0.312200
     22 O16         6.4930   -2.3160    1.1150 o         1 AYX     -0.202000
     23 O17         4.5520   -2.8520    0.5060 o         1 AYX     -0.202000
     24 H111        3.0090   -1.0070   -0.0300 ha        1 AYX      0.205000
     25 HN1        -6.4790    0.8610    1.8060 hn        1 AYX      0.447300
     26 H113        7.1240    0.0590    0.9050 ha        1 AYX      0.175000
     27 H114        6.6010    2.4600    0.4530 ha        1 AYX      0.151000
     28 H115        4.3310    3.1550   -0.2210 ha        1 AYX      0.140000
     29 H2         -3.2750   -1.6530    0.5260 ha        1 AYX      0.156500
     30 H3         -0.9390   -0.9170    0.3110 ha        1 AYX      0.160000
     31 H5         -2.3560    2.9270   -1.2200 ha        1 AYX      0.160000
     32 H6         -4.6780    2.1440   -0.9710 ha        1 AYX      0.156500
     33 HN7        -0.0990    2.4310   -1.1300 hn        1 AYX      0.320500
     34 HN9         2.2080    2.4820   -0.9820 hn        1 AYX      0.316500
     35 HN1A       -5.9650   -0.6410    2.2430 hn        1 AYX      0.447300
@<TRIPOS>BOND
     1    1    4 1   
     2    1    5 ar  
     3    1   10 ar  
     4    2    4 1   
     5    2   25 1   
     6    2   35 1   
     7    3    4 2   
     8    4    6 2   
     9    5    7 ar  
    10    5   29 1   
    11    7    8 ar  
    12    7   30 1   
    13    8    9 ar  
    14    8   11 1   
    15    9   10 ar  
    16    9   31 1   
    17   10   32 1   
    18   11   12 1   
    19   11   33 1   
    20   12   13 2   
    21   12   14 1   
    22   14   15 1   
    23   14   34 1   
    24   15   16 ar  
    25   15   20 ar  
    26   16   17 ar  
    27   16   24 1   
    28   17   18 ar  
    29   17   21 1   
    30   18   19 ar  
    31   18   26 1   
    32   19   20 ar  
    33   19   27 1   
    34   20   28 1   
    35   21   22 1   
    36   21   23 1   
@<TRIPOS>SUBSTRUCTURE
     1 AYX         1 TEMP              0 ****  ****    0 ROOT
