@<TRIPOS>MOLECULE
AZ0
   90    90     1     0     0
SMALL
bcc


@<TRIPOS>ATOM
      1 C11         4.4830   -0.2430    0.4270 c         1 AZ0      0.731100
      2 O11         4.6510   -1.1340    1.2770 o         1 AZ0     -0.591000
      3 O2          5.5020    0.0480   -0.4540 os        1 AZ0     -0.433900
      4 C2          6.7200   -0.6940   -0.2300 c3        1 AZ0      0.196700
      5 C3          7.6980   -0.2780   -1.2750 ca        1 AZ0     -0.098300
      6 C4          7.7290    1.0320   -1.7620 ca        1 AZ0     -0.111000
      7 C5          8.6800    1.4010   -2.7140 ca        1 AZ0     -0.131500
      8 C6          9.6050    0.4670   -3.1770 ca        1 AZ0     -0.123000
      9 C7          9.5760   -0.8410   -2.6920 ca        1 AZ0     -0.131500
     10 C8          8.6230   -1.2160   -1.7470 ca        1 AZ0     -0.111000
     11 N           3.3870    0.5910    0.2760 n         1 AZ0     -0.509900
     12 CA          2.1300    0.2060    0.8740 c3        1 AZ0      0.037700
     13 C           1.1020   -0.2310   -0.2040 c         1 AZ0      0.633100
     14 O           1.1310    0.2360   -1.3600 o         1 AZ0     -0.611100
     15 CB          1.4700    1.3440    1.6700 c3        1 AZ0     -0.079400
     16 CG          2.3220    1.8510    2.8230 c3        1 AZ0     -0.063700
     17 CD1         1.5770    2.9560    3.5450 c3        1 AZ0     -0.097600
     18 CD2         2.6870    0.7430    3.7890 c3        1 AZ0     -0.097600
     19 N1          0.1660   -1.1690    0.1760 n         1 AZ0     -0.551900
     20 CA1        -0.9100   -1.5750   -0.6890 c3        1 AZ0      0.035700
     21 C1         -2.2850   -1.2730   -0.0360 c         1 AZ0      0.592100
     22 O1         -2.4490   -1.3050    1.1950 o         1 AZ0     -0.572100
     23 CB1        -0.9170   -3.0780   -1.0160 c3        1 AZ0     -0.086400
     24 CG1         0.3330   -3.5470   -1.7440 c3        1 AZ0     -0.063700
     25 CD11        0.2370   -5.0400   -1.9910 c3        1 AZ0     -0.098100
     26 CD21        0.5380   -2.8090   -3.0510 c3        1 AZ0     -0.098100
     27 CAD        -4.3830    3.8760    0.9240 c         1 AZ0      0.596100
     28 OAC        -4.2760    3.7180    2.2700 os        1 AZ0     -0.427900
     29 CAB        -3.5040    4.7110    2.9750 c3        1 AZ0      0.137400
     30 CAA        -3.5670    4.3320    4.4340 c3        1 AZ0     -0.102100
     31 CAF        -5.2360    2.8160    0.2510 c3        1 AZ0      0.105100
     32 OAJ        -5.8220    3.3510   -0.9140 oh        1 AZ0     -0.571800
     33 CAG        -4.3640    1.5970   -0.0590 c3        1 AZ0     -0.170400
     34 CAH        -5.1590    0.3140    0.0200 c         1 AZ0      0.679100
     35 OAI        -6.2800    0.2580    0.5510 o         1 AZ0     -0.569100
     36 NAK        -4.6330   -0.8640   -0.5990 n         1 AZ0     -0.330400
     37 NAL        -3.3080   -0.8750   -0.9320 n         1 AZ0     -0.392500
     38 CAN        -5.2630   -2.1330   -0.1930 c3        1 AZ0      0.043000
     39 CAO        -5.1390   -3.2600   -1.2260 c3        1 AZ0     -0.072700
     40 CAP        -5.8010   -4.4990   -0.6550 c3        1 AZ0     -0.092100
     41 CAM        -5.7700   -2.8840   -2.5480 c3        1 AZ0     -0.092100
     42 H21         7.0990   -0.4490    0.7990 h1        1 AZ0      0.064700
     43 H22         6.4870   -1.7910   -0.2860 h1        1 AZ0      0.064700
     44 H41         6.9930    1.7650   -1.3970 ha        1 AZ0      0.138500
     45 H51         8.6980    2.4320   -3.0970 ha        1 AZ0      0.133500
     46 H61        10.3570    0.7590   -3.9250 ha        1 AZ0      0.132000
     47 H71        10.3050   -1.5800   -3.0580 ha        1 AZ0      0.133500
     48 H81         8.5990   -2.2500   -1.3710 ha        1 AZ0      0.138500
     49 H           3.3330    1.1300   -0.5630 hn        1 AZ0      0.337500
     50 HA          2.3280   -0.6590    1.5820 h1        1 AZ0      0.106700
     51 HB2         1.2370    2.1980    0.9810 hc        1 AZ0      0.056700
     52 HB3         0.4980    0.9530    2.0730 hc        1 AZ0      0.056700
     53 HG          3.2740    2.2840    2.4050 hc        1 AZ0      0.061700
     54 HD11        0.6360    2.5640    4.0000 hc        1 AZ0      0.038367
     55 HD12        2.2130    3.3800    4.3590 hc        1 AZ0      0.038367
     56 HD13        1.3130    3.7780    2.8370 hc        1 AZ0      0.038367
     57 HD21        3.3960    0.0210    3.3120 hc        1 AZ0      0.038367
     58 HD22        3.1820    1.1720    4.6940 hc        1 AZ0      0.038367
     59 HD23        1.7750    0.1880    4.1170 hc        1 AZ0      0.038367
     60 H1          0.1090   -1.4570    1.1260 hn        1 AZ0      0.331500
     61 HA1        -0.8110   -0.9940   -1.6590 h1        1 AZ0      0.112700
     62 HB21       -1.0330   -3.6680   -0.0680 hc        1 AZ0      0.051700
     63 HB31       -1.8150   -3.2830   -1.6580 hc        1 AZ0      0.051700
     64 HG1         1.2280   -3.3570   -1.0860 hc        1 AZ0      0.059700
     65 HD14       -0.6250   -5.2740   -2.6610 hc        1 AZ0      0.039367
     66 HD15        1.1720   -5.4090   -2.4770 hc        1 AZ0      0.039367
     67 HD16        0.0970   -5.5880   -1.0280 hc        1 AZ0      0.039367
     68 HD24       -0.3840   -2.8530   -3.6790 hc        1 AZ0      0.039367
     69 HD25        0.7960   -1.7370   -2.8620 hc        1 AZ0      0.039367
     70 HD26        1.3760   -3.2740   -3.6250 hc        1 AZ0      0.039367
     71 HAB        -2.4550    4.6940    2.5800 h1        1 AZ0      0.052700
     72 HABA       -3.9540    5.7190    2.7810 h1        1 AZ0      0.052700
     73 HAA        -2.9800    5.0740    5.0270 hc        1 AZ0      0.050367
     74 HAAA       -4.6240    4.3300    4.7930 hc        1 AZ0      0.050367
     75 HAAB       -3.1400    3.3130    4.5950 hc        1 AZ0      0.050367
     76 HAF        -6.1080    2.5360    0.9140 h1        1 AZ0      0.140700
     77 HOAJ       -5.1230    3.7700   -1.4370 ho        1 AZ0      0.417000
     78 HAG        -3.9130    1.7230   -1.0790 hc        1 AZ0      0.092200
     79 HAGA       -3.5300    1.5190    0.6910 hc        1 AZ0      0.092200
     80 HNAA       -3.1990   -1.2390   -1.8670 hn        1 AZ0      0.313500
     81 HAN        -4.8220   -2.4840    0.7840 h1        1 AZ0      0.076700
     82 HANA       -6.3570   -1.9140   -0.0310 h1        1 AZ0      0.076700
     83 HAO        -4.0500   -3.4960   -1.3980 hc        1 AZ0      0.033700
     84 HAP        -6.8880   -4.3160   -0.4770 hc        1 AZ0      0.040367
     85 HAPA       -5.6990   -5.3500   -1.3700 hc        1 AZ0      0.040367
     86 HAPB       -5.3260   -4.7880    0.3130 hc        1 AZ0      0.040367
     87 HAM        -6.8300   -2.5640   -2.3980 hc        1 AZ0      0.040367
     88 HAMA       -5.2150   -2.0450   -3.0310 hc        1 AZ0      0.040367
     89 HAMB       -5.7590   -3.7590   -3.2420 hc        1 AZ0      0.040367
     90 OAE        -3.8140    4.8220    0.3750 o         1 AZ0     -0.545000
@<TRIPOS>BOND
     1    1    2 2   
     2    1    3 1   
     3    1   11 1   
     4    3    4 1   
     5    4    5 1   
     6    4   42 1   
     7    4   43 1   
     8    5    6 ar  
     9    5   10 ar  
    10    6    7 ar  
    11    6   44 1   
    12    7    8 ar  
    13    7   45 1   
    14    8    9 ar  
    15    8   46 1   
    16    9   10 ar  
    17    9   47 1   
    18   10   48 1   
    19   11   12 1   
    20   11   49 1   
    21   12   13 1   
    22   12   15 1   
    23   12   50 1   
    24   13   14 2   
    25   13   19 1   
    26   15   16 1   
    27   15   51 1   
    28   15   52 1   
    29   16   17 1   
    30   16   18 1   
    31   16   53 1   
    32   17   54 1   
    33   17   55 1   
    34   17   56 1   
    35   18   57 1   
    36   18   58 1   
    37   18   59 1   
    38   19   20 1   
    39   19   60 1   
    40   20   21 1   
    41   20   23 1   
    42   20   61 1   
    43   21   22 2   
    44   21   37 1   
    45   23   24 1   
    46   23   62 1   
    47   23   63 1   
    48   24   25 1   
    49   24   26 1   
    50   24   64 1   
    51   25   65 1   
    52   25   66 1   
    53   25   67 1   
    54   26   68 1   
    55   26   69 1   
    56   26   70 1   
    57   27   28 1   
    58   27   31 1   
    59   27   90 2   
    60   28   29 1   
    61   29   30 1   
    62   29   71 1   
    63   29   72 1   
    64   30   73 1   
    65   30   74 1   
    66   30   75 1   
    67   31   32 1   
    68   31   33 1   
    69   31   76 1   
    70   32   77 1   
    71   33   34 1   
    72   33   78 1   
    73   33   79 1   
    74   34   35 2   
    75   34   36 1   
    76   36   37 1   
    77   36   38 1   
    78   37   80 1   
    79   38   39 1   
    80   38   81 1   
    81   38   82 1   
    82   39   40 1   
    83   39   41 1   
    84   39   83 1   
    85   40   84 1   
    86   40   85 1   
    87   40   86 1   
    88   41   87 1   
    89   41   88 1   
    90   41   89 1   
@<TRIPOS>SUBSTRUCTURE
     1 AZ0         1 TEMP              0 ****  ****    0 ROOT
