@<TRIPOS>MOLECULE
AZ0
   90    86     1     0     0
SMALL
bcc


@<TRIPOS>ATOM
      1 C11         0.1420   -1.6150    5.2610 c1        1 AZ0      0.400000
      2 O11         1.3460   -1.6700    5.1080 o         1 AZ0     -0.423000
      3 O2         -0.3970   -1.3010    6.5420 o         1 AZ0     -0.271000
      4 C2          0.5940   -1.3280    7.6110 c3        1 AZ0      0.041000
      5 C3          0.0350   -0.6910    8.8320 c2        1 AZ0     -0.094000
      6 C4         -0.0300   -1.4130   10.0180 c1        1 AZ0     -0.117000
      7 C5         -0.6400   -0.8660   11.1270 c1        1 AZ0     -0.125500
      8 C6         -1.1900    0.4020   11.0620 c1        1 AZ0     -0.125500
      9 C7         -1.1260    1.1250    9.8750 c1        1 AZ0     -0.132000
     10 C8         -0.5120    0.5760    8.7630 c2        1 AZ0     -0.103000
     11 N          -0.7530   -1.8980    4.1360 n3        1 AZ0     -0.356000
     12 CA         -0.2150   -2.0990    2.8440 c3        1 AZ0      0.033000
     13 C          -0.6550   -1.0010    1.9490 c2        1 AZ0      0.274000
     14 O          -1.8710   -0.6800    1.8990 o         1 AZ0     -0.389000
     15 CB         -0.7200   -3.4800    2.2730 c3        1 AZ0     -0.162000
     16 CG         -0.1930   -4.6290    3.1640 c3        1 AZ0     -0.109000
     17 CD1        -1.3660   -5.3750    3.7630 c3        1 AZ0     -0.211000
     18 CD2         0.6570   -5.6090    2.3050 c3        1 AZ0     -0.211000
     19 N1          0.3090   -0.3500    1.0610 n         1 AZ0     -0.366000
     20 CA1        -0.1270    0.6550    0.1520 c3        1 AZ0      0.015000
     21 C1          0.7930    0.6850   -1.0560 c2        1 AZ0      0.248000
     22 O1          2.0030    0.8430   -0.9020 o         1 AZ0     -0.326000
     23 CB1        -0.1000    2.0290    0.8530 c3        1 AZ0     -0.162000
     24 CG1        -1.4930    2.6190    0.8640 c3        1 AZ0     -0.112000
     25 CD11       -1.7800    3.2540    2.2540 c3        1 AZ0     -0.211000
     26 CD21       -1.5940    3.6700   -0.1930 c3        1 AZ0     -0.211000
     27 OAE        -2.1020    2.4210   -7.1420 o         1 AZ0     -0.345000
     28 CAD        -0.9840    2.7200   -7.4680 c1        1 AZ0      0.271000
     29 OAC        -0.6870    3.0000   -8.8420 o         1 AZ0     -0.290000
     30 CAB        -1.8380    3.2810   -9.6520 c3        1 AZ0     -0.009000
     31 CAA        -1.4140    3.3990  -11.0870 c3        1 AZ0     -0.245000
     32 CAF         0.0890    2.8180   -6.4440 c3        1 AZ0      0.048000
     33 OAJ         0.1500    4.1540   -5.9500 oh        1 AZ0     -0.310000
     34 CAG        -0.2160    1.8740   -5.3100 c3        1 AZ0     -0.172000
     35 CAH         1.1190    1.5200   -4.5390 c2        1 AZ0      0.326000
     36 OAI         2.1390    2.1200   -4.7870 o         1 AZ0     -0.359000
     37 NAK         1.1120    0.4840   -3.5000 n         1 AZ0     -0.240000
     38 NAL         0.2430    0.6080   -2.3790 n         1 AZ0     -0.247000
     39 CAN         2.0220   -0.6610   -3.5910 c3        1 AZ0     -0.046000
     40 CAO         2.7250   -0.6750   -4.9880 c3        1 AZ0     -0.117000
     41 CAP         4.2650   -0.5710   -4.7950 c3        1 AZ0     -0.214000
     42 CAM         2.3990   -1.9530   -5.6950 c3        1 AZ0     -0.214000
     43 H21         1.3850   -0.8460    7.3290 h1        1 AZ0      0.104500
     44 H22         0.8270   -2.2350    7.8050 h1        1 AZ0      0.104500
     45 H41         0.3620   -2.3120   10.0660 ha        1 AZ0      0.134000
     46 H51        -0.6840   -1.3630   11.9420 ha        1 AZ0      0.134500
     47 H61        -1.6090    0.7750   11.8230 ha        1 AZ0      0.134500
     48 H71        -1.5050    2.0040    9.8280 ha        1 AZ0      0.135000
     49 H81        -0.4680    1.0620    7.9630 ha        1 AZ0      0.141000
     50 H          -1.6740   -2.0330    4.2880 hn        1 AZ0      0.256000
     51 HA          0.7460   -2.1040    2.8950 h1        1 AZ0      0.129000
     52 HB2        -1.6930   -3.4930    2.2730 hc        1 AZ0      0.110500
     53 HB3        -0.3890   -3.5980    1.3480 hc        1 AZ0      0.110500
     54 HG          0.3560   -4.2600    3.8770 hc        1 AZ0      0.091000
     55 HD11       -1.9930   -5.6350    3.0430 hc        1 AZ0      0.077000
     56 HD12       -1.8210   -4.8050    4.3970 hc        1 AZ0      0.077000
     57 HD13       -1.0450   -6.1750    4.2190 hc        1 AZ0      0.077000
     58 HD21        1.0490   -6.3000    2.8870 hc        1 AZ0      0.077000
     59 HD22        0.0790   -6.0390    1.6260 hc        1 AZ0      0.077000
     60 HD23        1.3750   -5.1130    1.8570 hc        1 AZ0      0.077000
     61 H1          1.1890   -0.5760    1.1000 hn        1 AZ0      0.266000
     62 HA1        -1.0520    0.4520   -0.1440 h1        1 AZ0      0.127000
     63 HB21        0.5210    2.6470    0.3560 hc        1 AZ0      0.109000
     64 HB31        0.2160    1.9200    1.7730 hc        1 AZ0      0.109000
     65 HG1        -2.1550    1.9060    0.6840 hc        1 AZ0      0.096000
     66 HD14       -1.1700    4.0140    2.4010 hc        1 AZ0      0.075833
     67 HD15       -2.7170    3.5730    2.2840 hc        1 AZ0      0.075833
     68 HD16       -1.6390    2.5760    2.9630 hc        1 AZ0      0.075833
     69 HD24       -0.6900    4.0020   -0.4140 hc        1 AZ0      0.075833
     70 HD25       -2.0060    3.2870   -0.9970 hc        1 AZ0      0.075833
     71 HD26       -2.1510    4.4220    0.1390 hc        1 AZ0      0.075833
     72 HAB        -2.2360    4.1000   -9.3700 h1        1 AZ0      0.102500
     73 HABA       -2.4790    2.5650   -9.5630 h1        1 AZ0      0.102500
     74 HAA        -1.0240    2.5640  -11.3760 hc        1 AZ0      0.090000
     75 HAAA       -0.7650    4.0990  -11.1700 hc        1 AZ0      0.090000
     76 HAAB       -2.2050    3.6110  -11.6530 hc        1 AZ0      0.090000
     77 HAF         0.9340    2.5820   -6.8400 h1        1 AZ0      0.142000
     78 HOAJ        0.7560    4.6390   -6.4490 ho        1 AZ0      0.222000
     79 HAG        -0.6210    1.0350   -5.6760 hc        1 AZ0      0.145000
     80 HAGA       -0.8530    2.3040   -4.6870 hc        1 AZ0      0.145000
     81 HNAA       -0.6810    0.7240   -2.5110 hn        1 AZ0      0.255000
     82 HAN         2.7050   -0.5930   -2.8790 h1        1 AZ0      0.109500
     83 HANA        1.5100   -1.4940   -3.4760 h1        1 AZ0      0.109500
     84 HAO         2.4130    0.0800   -5.5180 hc        1 AZ0      0.106000
     85 HAP         4.7150   -0.6300   -5.6780 hc        1 AZ0      0.075500
     86 HAPA        4.5810   -1.3220   -4.2080 hc        1 AZ0      0.075500
     87 HAPB        4.4830    0.2840   -4.3760 hc        1 AZ0      0.075500
     88 HAM         1.4180   -2.0280   -5.8050 hc        1 AZ0      0.075500
     89 HAMA        2.8400   -1.9580   -6.6020 hc        1 AZ0      0.075500
     90 HAMB        2.7270   -2.7100   -5.1680 hc        1 AZ0      0.075500
@<TRIPOS>BOND
     1    1    2 1   
     2    1   11 1   
     3    3    4 1   
     4    4    5 1   
     5    4   43 1   
     6    4   44 1   
     7    5    6 1   
     8    5   10 1   
     9    6   45 1   
    10    7    8 1   
    11    7   46 1   
    12    8   47 1   
    13    9   10 1   
    14    9   48 1   
    15   10   49 1   
    16   11   12 1   
    17   11   50 1   
    18   12   13 1   
    19   12   15 1   
    20   12   51 1   
    21   13   14 1   
    22   13   19 1   
    23   15   16 1   
    24   15   52 1   
    25   15   53 1   
    26   16   17 1   
    27   16   18 1   
    28   16   54 1   
    29   17   55 1   
    30   17   56 1   
    31   17   57 1   
    32   18   58 1   
    33   18   59 1   
    34   18   60 1   
    35   19   20 1   
    36   19   61 1   
    37   20   21 1   
    38   20   23 1   
    39   20   62 1   
    40   21   22 1   
    41   21   38 1   
    42   23   24 1   
    43   23   63 1   
    44   23   64 1   
    45   24   25 1   
    46   24   26 1   
    47   24   65 1   
    48   25   66 1   
    49   25   67 1   
    50   25   68 1   
    51   26   69 1   
    52   26   70 1   
    53   26   71 1   
    54   27   28 1   
    55   28   32 1   
    56   29   30 1   
    57   30   31 1   
    58   30   72 1   
    59   30   73 1   
    60   31   74 1   
    61   31   75 1   
    62   31   76 1   
    63   32   33 1   
    64   32   34 1   
    65   32   77 1   
    66   33   78 1   
    67   34   35 1   
    68   34   79 1   
    69   34   80 1   
    70   35   36 1   
    71   35   37 1   
    72   37   38 1   
    73   37   39 1   
    74   38   81 1   
    75   39   40 1   
    76   39   82 1   
    77   39   83 1   
    78   40   41 1   
    79   40   42 1   
    80   40   84 1   
    81   41   85 1   
    82   41   86 1   
    83   41   87 1   
    84   42   88 1   
    85   42   89 1   
    86   42   90 1   
@<TRIPOS>SUBSTRUCTURE
     1 AZ0         1 TEMP              0 ****  ****    0 ROOT
