@<TRIPOS>MOLECULE
AZ1
   27    26     1     0     0
SMALL
bcc


@<TRIPOS>ATOM
      1 C1         -0.0360    0.0000   -0.1040 c         1 AZ1      0.905600
      2 C2          1.4950   -0.0000    0.0090 c3        1 AZ1     -0.186400
      3 C3          1.9980   -0.0000    1.4320 c3        1 AZ1     -0.062400
      4 C4          3.5120   -0.0000    1.4870 c3        1 AZ1     -0.079400
      5 C5          4.0420   -0.0000    2.9060 c3        1 AZ1     -0.076400
      6 C6          5.5560   -0.0000    2.9310 c3        1 AZ1     -0.079400
      7 C7          6.1150   -0.0000    4.3400 c3        1 AZ1     -0.062400
      8 C8          7.6250   -0.0000    4.3370 c3        1 AZ1     -0.186400
      9 C9          8.2420    0.0000    5.7420 c         1 AZ1      0.905600
     10 O1         -0.5290   -0.0000   -1.2730 o         1 AZ1     -0.863300
     11 O2         -0.7470    0.0000    0.9420 o         1 AZ1     -0.863300
     12 O3          7.4950    0.0000    6.7620 o         1 AZ1     -0.863300
     13 O4          9.5090   -0.0000    5.8160 o         1 AZ1     -0.863300
     14 H21         1.8800    0.9020   -0.5320 hc        1 AZ1      0.016700
     15 H22         1.8800   -0.9020   -0.5320 hc        1 AZ1      0.016700
     16 H31         1.5930    0.8990    1.9670 hc        1 AZ1      0.040700
     17 H32         1.5930   -0.8990    1.9670 hc        1 AZ1      0.040700
     18 H41         3.9040    0.9010    0.9460 hc        1 AZ1      0.019700
     19 H42         3.9040   -0.9010    0.9460 hc        1 AZ1      0.019700
     20 H51         3.6570   -0.9010    3.4510 hc        1 AZ1      0.032700
     21 H52         3.6570    0.9010    3.4510 hc        1 AZ1      0.032700
     22 H61         5.9360    0.9010    2.3800 hc        1 AZ1      0.019700
     23 H62         5.9360   -0.9010    2.3800 hc        1 AZ1      0.019700
     24 H71         5.7460    0.8990    4.9000 hc        1 AZ1      0.040700
     25 H72         5.7460   -0.8990    4.9000 hc        1 AZ1      0.040700
     26 H81         8.0060   -0.9020    3.7930 hc        1 AZ1      0.016700
     27 H82         8.0060    0.9020    3.7930 hc        1 AZ1      0.016700
@<TRIPOS>BOND
     1    1    2 1   
     2    1   10 1   
     3    1   11 1   
     4    2    3 1   
     5    2   14 1   
     6    2   15 1   
     7    3    4 1   
     8    3   16 1   
     9    3   17 1   
    10    4    5 1   
    11    4   18 1   
    12    4   19 1   
    13    5    6 1   
    14    5   20 1   
    15    5   21 1   
    16    6    7 1   
    17    6   22 1   
    18    6   23 1   
    19    7    8 1   
    20    7   24 1   
    21    7   25 1   
    22    8    9 1   
    23    8   26 1   
    24    8   27 1   
    25    9   12 1   
    26    9   13 1   
@<TRIPOS>SUBSTRUCTURE
     1 AZ1         1 TEMP              0 ****  ****    0 ROOT
