@<TRIPOS>MOLECULE
AZ1
   27    25     1     0     0
SMALL
bcc


@<TRIPOS>ATOM
      1 C1         -4.2510   -0.0320   -2.5450 c1        1 AZ1      0.325000
      2 C2         -2.7390   -0.0320   -2.5450 c2        1 AZ1     -0.216000
      3 C3         -2.2340   -0.0320   -1.1190 c3        1 AZ1     -0.143000
      4 C4         -0.7220    0.0140   -1.1190 c3        1 AZ1     -0.157000
      5 C5         -0.2170   -0.0270    0.3070 c3        1 AZ1     -0.156000
      6 C6          1.2940    0.0570    0.3090 c3        1 AZ1     -0.157000
      7 C7          1.8020   -0.0210    1.7320 c3        1 AZ1     -0.143000
      8 C8          3.3090    0.1030    1.7370 c3        1 AZ1     -0.216000
      9 C9          3.8210   -0.0210    3.1550 c2        1 AZ1      0.325000
     10 O1         -4.8810    1.0580   -2.5520 o         1 AZ1     -0.597500
     11 O2         -4.8810   -1.1220   -2.5380 o         1 AZ1     -0.597500
     12 O3          3.9370    1.0060    3.8740 o         1 AZ1     -0.597500
     13 O4          4.1300   -1.1510    3.6170 o         1 AZ1     -0.597500
     14 H21        -2.4130    0.7650   -3.0050 ha        1 AZ1      0.055500
     15 H22        -2.4130   -0.8290   -3.0050 ha        1 AZ1      0.055500
     16 H31        -2.5350   -0.8440   -0.6670 hc        1 AZ1      0.079000
     17 H32        -2.5840    0.7500   -0.6500 hc        1 AZ1      0.079000
     18 H41        -0.4210    0.8370   -1.5470 hc        1 AZ1      0.061000
     19 H42        -0.3730   -0.7550   -1.6090 hc        1 AZ1      0.061000
     20 H51        -0.5850    0.7280    0.8040 hc        1 AZ1      0.072000
     21 H52        -0.4970   -0.8620    0.7280 hc        1 AZ1      0.072000
     22 H61         1.5740    0.9030   -0.0910 hc        1 AZ1      0.061000
     23 H62         1.6620   -0.6840   -0.2090 hc        1 AZ1      0.061000
     24 H71         1.5440   -0.8780    2.1220 hc        1 AZ1      0.079000
     25 H72         1.4140    0.7050    2.2560 hc        1 AZ1      0.079000
     26 H81         3.5660    0.9720    1.3730 hc        1 AZ1      0.055500
     27 H82         3.6960   -0.6060    1.1880 hc        1 AZ1      0.055500
@<TRIPOS>BOND
     1    1   10 1   
     2    1   11 1   
     3    2    3 1   
     4    2   14 1   
     5    2   15 1   
     6    3    4 1   
     7    3   16 1   
     8    3   17 1   
     9    4    5 1   
    10    4   18 1   
    11    4   19 1   
    12    5    6 1   
    13    5   20 1   
    14    5   21 1   
    15    6    7 1   
    16    6   22 1   
    17    6   23 1   
    18    7    8 1   
    19    7   24 1   
    20    7   25 1   
    21    8    9 1   
    22    8   26 1   
    23    8   27 1   
    24    9   12 1   
    25    9   13 1   
@<TRIPOS>SUBSTRUCTURE
     1 AZ1         1 TEMP              0 ****  ****    0 ROOT
