@<TRIPOS>MOLECULE
AZ1
   27    26     1     0     0
SMALL
bcc


@<TRIPOS>ATOM
      1 C1          0.0320   -0.1310    5.0520 c         1 AZ1      0.905600
      2 C2         -0.7610    0.0280    3.7470 c3        1 AZ1     -0.187400
      3 C3          0.1260   -0.0220    2.5250 c3        1 AZ1     -0.064400
      4 C4         -0.6860   -0.0060    1.2450 c3        1 AZ1     -0.078400
      5 C5          0.1850    0.0020    0.0060 c3        1 AZ1     -0.077400
      6 C6         -0.6490    0.0010   -1.2580 c3        1 AZ1     -0.078400
      7 C7          0.2010    0.0270   -2.5130 c3        1 AZ1     -0.064400
      8 C8         -0.6480   -0.0340   -3.7610 c3        1 AZ1     -0.187400
      9 C9          0.1810    0.1350   -5.0420 c         1 AZ1      0.905600
     10 O1         -0.1620    0.7200    5.9710 o         1 AZ1     -0.862800
     11 O2          0.8200   -1.1140    5.1770 o         1 AZ1     -0.862800
     12 O3          0.9610    1.1270   -5.1430 o         1 AZ1     -0.862800
     13 O4          0.0240   -0.7180   -5.9670 o         1 AZ1     -0.862800
     14 H21        -1.3220    0.9960    3.7740 hc        1 AZ1      0.016200
     15 H22        -1.5120   -0.8010    3.7010 hc        1 AZ1      0.016200
     16 H31         0.7560   -0.9500    2.5710 hc        1 AZ1      0.039700
     17 H32         0.8270    0.8530    2.5340 hc        1 AZ1      0.039700
     18 H41        -1.3510    0.8980    1.2370 hc        1 AZ1      0.021700
     19 H42        -1.3570   -0.9050    1.2200 hc        1 AZ1      0.021700
     20 H51         0.8580   -0.8950    0.0140 hc        1 AZ1      0.032700
     21 H52         0.8470    0.9080    0.0180 hc        1 AZ1      0.032700
     22 H61        -1.3310    0.8920   -1.2540 hc        1 AZ1      0.021700
     23 H62        -1.3030   -0.9100   -1.2700 hc        1 AZ1      0.021700
     24 H71         0.9110   -0.8410   -2.5020 hc        1 AZ1      0.039700
     25 H72         0.8210    0.9610   -2.5400 hc        1 AZ1      0.039700
     26 H81        -1.4100    0.7870   -3.7380 hc        1 AZ1      0.016200
     27 H82        -1.1980   -1.0080   -3.8040 hc        1 AZ1      0.016200
@<TRIPOS>BOND
     1    1    2 1   
     2    1   10 1   
     3    1   11 1   
     4    2    3 1   
     5    2   14 1   
     6    2   15 1   
     7    3    4 1   
     8    3   16 1   
     9    3   17 1   
    10    4    5 1   
    11    4   18 1   
    12    4   19 1   
    13    5    6 1   
    14    5   20 1   
    15    5   21 1   
    16    6    7 1   
    17    6   22 1   
    18    6   23 1   
    19    7    8 1   
    20    7   24 1   
    21    7   25 1   
    22    8    9 1   
    23    8   26 1   
    24    8   27 1   
    25    9   12 1   
    26    9   13 1   
@<TRIPOS>SUBSTRUCTURE
     1 AZ1         1 TEMP              0 ****  ****    0 ROOT
