@<TRIPOS>MOLECULE
AZ1
   27    26     1     0     0
SMALL
bcc


@<TRIPOS>ATOM
      1 C1         -0.0340   -0.1290   -0.0720 c         1 AZ1      0.905600
      2 C2          1.4920    0.0310    0.0090 c3        1 AZ1     -0.187400
      3 C3          2.0010   -0.0210    1.4300 c3        1 AZ1     -0.064400
      4 C4          3.5160   -0.0050    1.4800 c3        1 AZ1     -0.078400
      5 C5          4.0480    0.0010    2.8980 c3        1 AZ1     -0.077400
      6 C6          5.5630    0.0020    2.9210 c3        1 AZ1     -0.078400
      7 C7          6.1210    0.0240    4.3300 c3        1 AZ1     -0.064400
      8 C8          7.6300   -0.0340    4.3320 c3        1 AZ1     -0.187400
      9 C9          8.2210    0.1310    5.7400 c         1 AZ1      0.905600
     10 O1         -0.6840    0.7220   -0.7510 o         1 AZ1     -0.862800
     11 O2         -0.5810   -1.1120    0.5080 o         1 AZ1     -0.862800
     12 O3          7.8620    1.1180    6.4460 o         1 AZ1     -0.862800
     13 O4          9.0760   -0.7210    6.1270 o         1 AZ1     -0.862800
     14 H21         1.7850    1.0000   -0.4690 hc        1 AZ1      0.016200
     15 H22         1.9530   -0.7980   -0.5880 hc        1 AZ1      0.016200
     16 H31         1.5980    0.8530    2.0040 hc        1 AZ1      0.039700
     17 H32         1.6090   -0.9500    1.9230 hc        1 AZ1      0.039700
     18 H41         3.8960    0.9010    0.9380 hc        1 AZ1      0.021700
     19 H42         3.9150   -0.9020    0.9370 hc        1 AZ1      0.021700
     20 H51         3.6640   -0.8980    3.4460 hc        1 AZ1      0.032700
     21 H52         3.6640    0.9050    3.4400 hc        1 AZ1      0.032700
     22 H61         5.9420    0.8950    2.3580 hc        1 AZ1      0.021700
     23 H62         5.9420   -0.9070    2.3850 hc        1 AZ1      0.021700
     24 H71         5.7920    0.9560    4.8620 hc        1 AZ1      0.039700
     25 H72         5.7130   -0.8470    4.9080 hc        1 AZ1      0.039700
     26 H81         7.9770   -1.0060    3.8990 hc        1 AZ1      0.016200
     27 H82         8.0390    0.7910    3.6930 hc        1 AZ1      0.016200
@<TRIPOS>BOND
     1    1    2 1   
     2    1   10 1   
     3    1   11 1   
     4    2    3 1   
     5    2   14 1   
     6    2   15 1   
     7    3    4 1   
     8    3   16 1   
     9    3   17 1   
    10    4    5 1   
    11    4   18 1   
    12    4   19 1   
    13    5    6 1   
    14    5   20 1   
    15    5   21 1   
    16    6    7 1   
    17    6   22 1   
    18    6   23 1   
    19    7    8 1   
    20    7   24 1   
    21    7   25 1   
    22    8    9 1   
    23    8   26 1   
    24    8   27 1   
    25    9   12 1   
    26    9   13 1   
@<TRIPOS>SUBSTRUCTURE
     1 AZ1         1 TEMP              0 ****  ****    0 ROOT
