@<TRIPOS>MOLECULE
AZ2
   51    46     1     0     0
SMALL
bcc


@<TRIPOS>ATOM
      1 C1         -3.4830    0.9900   -1.5090 c1        1 AZ2     -0.040000
      2 C2         -4.2840    1.0720   -2.7920 c2        1 AZ2     -0.131000
      3 C5         -4.2580   -0.2700   -3.4890 c3        1 AZ2     -0.036000
      4 O7         -3.5280   -0.1620   -4.6860 os        1 AZ2     -0.311000
      5 C8         -2.8350   -1.3380   -5.0400 c3        1 AZ2     -0.017000
      6 C11        -1.3810   -1.0080   -5.3020 c3        1 AZ2     -0.214000
      7 C15        -5.6730   -0.7040   -3.7980 c2        1 AZ2      0.318000
      8 O16        -5.9580   -1.9290   -3.8530 o         1 AZ2     -0.569000
      9 O18        -6.5610    0.1600   -4.0250 o         1 AZ2     -0.569000
     10 C19        -2.0980    1.0140   -1.5550 c2        1 AZ2     -0.115000
     11 C21        -1.3650    1.0220   -0.3780 c1        1 AZ2     -0.164000
     12 C23        -2.0180    1.0060    0.8450 c1        1 AZ2      0.012000
     13 C24        -3.4030    0.9820    0.8910 c1        1 AZ2     -0.144000
     14 C26        -4.1350    0.9730   -0.2860 c1        1 AZ2     -0.131000
     15 O28        -1.2770    1.0980    2.0370 os        1 AZ2     -0.244000
     16 C29        -0.7230   -0.1270    2.4600 c3        1 AZ2     -0.017000
     17 C32         0.1420    0.1060    3.6800 c3        1 AZ2     -0.129000
     18 C35         1.5900   -0.1600    3.3300 c2        1 AZ2     -0.074000
     19 C36         2.3490   -1.0100    4.1200 c2        1 AZ2     -0.115000
     20 C38         3.6930   -1.1990    3.8410 c1        1 AZ2     -0.169000
     21 C40         4.2790   -0.5390    2.7720 c1        1 AZ2      0.077000
     22 C41         3.5210    0.3100    1.9820 c1        1 AZ2     -0.129000
     23 C43         2.1760    0.5000    2.2610 c1        1 AZ2     -0.105000
     24 O45         5.6260   -0.7780    2.4520 os        1 AZ2     -0.649000
     25 S46         6.6040    0.2870    2.8770 s4        1 AZ2      2.032800
     26 C47         8.1370    0.0940    2.0080 c2        1 AZ2     -0.968000
     27 O51         6.0310    1.6690    2.6770 o         1 AZ2     -0.546400
     28 O52         6.8160    0.2710    4.3720 o         1 AZ2     -0.546400
     29 H21        -3.8920    1.7510   -3.3770 ha        1 AZ2      0.116500
     30 H22        -5.2080    1.3140   -2.5840 ha        1 AZ2      0.116500
     31 H51        -3.8340   -0.9310   -2.9070 h1        1 AZ2      0.060000
     32 H81        -2.8950   -1.9850   -4.3080 h1        1 AZ2      0.090000
     33 H82        -3.2330   -1.7210   -5.8490 h1        1 AZ2      0.090000
     34 H111       -0.8260   -1.3910   -4.5910 hc        1 AZ2      0.062333
     35 H112       -1.2650   -0.0350   -5.3180 hc        1 AZ2      0.062333
     36 H113       -1.1110   -1.3840   -6.1650 hc        1 AZ2      0.062333
     37 H191       -1.6380    1.0330   -2.4160 ha        1 AZ2      0.165000
     38 H211       -0.3900    1.0400   -0.4110 ha        1 AZ2      0.126000
     39 H241       -3.8630    0.9890    1.7520 ha        1 AZ2      0.129000
     40 H261       -5.1110    0.9560   -0.2530 ha        1 AZ2      0.135000
     41 H291       -0.1770   -0.5050    1.7400 h1        1 AZ2      0.079500
     42 H292       -1.4440   -0.7510    2.6850 h1        1 AZ2      0.079500
     43 H321        0.0440    1.0320    3.9780 hc        1 AZ2      0.100000
     44 H322       -0.1360   -0.4990    4.3970 hc        1 AZ2      0.100000
     45 H361        1.9370   -1.4750    4.8720 ha        1 AZ2      0.133000
     46 H381        4.2270   -1.7970    4.3970 ha        1 AZ2      0.156000
     47 H411        3.9330    0.7750    1.2290 ha        1 AZ2      0.148000
     48 H431        1.6360    1.0770    1.6890 ha        1 AZ2      0.168000
     49 H471        8.3470   -0.8600    1.9240 ha        1 AZ2      0.171333
     50 H472        8.0590    0.4920    1.1160 ha        1 AZ2      0.171333
     51 H473        8.8530    0.5430    2.5040 ha        1 AZ2      0.171333
@<TRIPOS>BOND
     1    1   10 1   
     2    1   14 1   
     3    2    3 1   
     4    2   29 1   
     5    2   30 1   
     6    3    4 1   
     7    3    7 1   
     8    3   31 1   
     9    4    5 1   
    10    5    6 1   
    11    5   32 1   
    12    5   33 1   
    13    6   34 1   
    14    6   35 1   
    15    6   36 1   
    16    7    8 1   
    17    7    9 1   
    18   10   11 1   
    19   10   37 1   
    20   11   38 1   
    21   12   13 1   
    22   12   15 1   
    23   13   39 1   
    24   14   40 1   
    25   15   16 1   
    26   16   17 1   
    27   16   41 1   
    28   16   42 1   
    29   17   18 1   
    30   17   43 1   
    31   17   44 1   
    32   18   19 1   
    33   18   23 1   
    34   19   20 1   
    35   19   45 1   
    36   20   46 1   
    37   21   22 1   
    38   21   24 1   
    39   22   47 1   
    40   23   48 1   
    41   24   25 1   
    42   25   27 1   
    43   25   28 1   
    44   26   49 1   
    45   26   50 1   
    46   26   51 1   
@<TRIPOS>SUBSTRUCTURE
     1 AZ2         1 TEMP              0 ****  ****    0 ROOT
