@<TRIPOS>MOLECULE
AZ2
   51    52     1     0     0
SMALL
bcc


@<TRIPOS>ATOM
      1 C1          0.6930   -0.4600    0.0220 ca        1 AZ2     -0.074300
      2 C2          0.3520   -0.6360   -1.4140 c3        1 AZ2     -0.036100
      3 C5         -0.1590   -2.0460   -1.7200 c3        1 AZ2      0.029100
      4 O7          0.2350   -2.2810   -3.0820 os        1 AZ2     -0.440600
      5 C8          0.0880   -3.6400   -3.4790 c3        1 AZ2      0.119400
      6 C11         0.3440   -3.6920   -4.9690 c3        1 AZ2     -0.091100
      7 C15        -1.6930   -2.1900   -1.5230 c         1 AZ2      0.898600
      8 O16        -2.3750   -1.1600   -1.2580 o         1 AZ2     -0.837800
      9 O18        -2.1790   -3.3540   -1.5950 o         1 AZ2     -0.837800
     10 C19         2.0140   -0.2550    0.4330 ca        1 AZ2     -0.101000
     11 C21         2.3240   -0.0620    1.7770 ca        1 AZ2     -0.187000
     12 C23         1.2880   -0.0750    2.7240 ca        1 AZ2      0.089100
     13 C24        -0.0400   -0.2820    2.3310 ca        1 AZ2     -0.187000
     14 C26        -0.3290   -0.4730    0.9830 ca        1 AZ2     -0.101000
     15 O28         1.6960    0.1570    4.0320 os        1 AZ2     -0.349900
     16 C29         0.6940   -0.0470    5.0310 c3        1 AZ2      0.136400
     17 C32         1.4140    0.1260    6.3630 c3        1 AZ2     -0.048100
     18 C35         0.4600    0.1740    7.5020 ca        1 AZ2     -0.072300
     19 C36         0.4820   -0.8220    8.4860 ca        1 AZ2     -0.111500
     20 C38        -0.3810   -0.7660    9.5770 ca        1 AZ2     -0.147500
     21 C40        -1.2790    0.3070    9.6780 ca        1 AZ2      0.111100
     22 C41        -1.3240    1.3090    8.6950 ca        1 AZ2     -0.147500
     23 C43        -0.4520    1.2320    7.6140 ca        1 AZ2     -0.111500
     24 O45        -2.1890    0.3590   10.7020 os        1 AZ2     -0.464800
     25 S46        -1.7290    0.6550   12.2990 s6        1 AZ2      1.587500
     26 C47        -0.9710    2.1430   12.1730 c3        1 AZ2     -0.419300
     27 O51        -2.9350    0.7610   12.9600 o         1 AZ2     -0.646800
     28 O52        -0.8250   -0.3360   12.6260 o         1 AZ2     -0.646800
     29 H21         1.2460   -0.4200   -2.0560 hc        1 AZ2      0.060700
     30 H22        -0.4640    0.0890   -1.6920 hc        1 AZ2      0.060700
     31 H51         0.3540   -2.8020   -1.0630 h1        1 AZ2      0.022700
     32 H81         0.8450   -4.2630   -2.9270 h1        1 AZ2      0.045200
     33 H82        -0.9430   -4.0100   -3.2260 h1        1 AZ2      0.045200
     34 H111        1.3640   -3.3100   -5.2090 hc        1 AZ2      0.025700
     35 H112       -0.4020   -3.0610   -5.5090 hc        1 AZ2      0.025700
     36 H113        0.2560   -4.7460   -5.3240 hc        1 AZ2      0.025700
     37 H191        2.8230   -0.2480   -0.3130 ha        1 AZ2      0.163000
     38 H211        3.3580    0.0990    2.1040 ha        1 AZ2      0.127000
     39 H241       -0.8550   -0.3000    3.0660 ha        1 AZ2      0.127000
     40 H261       -1.3700   -0.6470    0.6370 ha        1 AZ2      0.163000
     41 H291        0.2570   -1.0750    4.9360 h1        1 AZ2      0.043200
     42 H292       -0.1170    0.7180    4.9110 h1        1 AZ2      0.043200
     43 H321        2.1460   -0.7140    6.4930 hc        1 AZ2      0.063200
     44 H322        2.0080    1.0800    6.3320 hc        1 AZ2      0.063200
     45 H361        1.1870   -1.6630    8.3980 ha        1 AZ2      0.143500
     46 H381       -0.3620   -1.5410   10.3580 ha        1 AZ2      0.152500
     47 H411       -2.0580    2.1230    8.7740 ha        1 AZ2      0.152500
     48 H431       -0.4800    2.0100    6.8340 ha        1 AZ2      0.143500
     49 H471        0.0700    2.1360   12.5870 h1        1 AZ2      0.130700
     50 H472       -0.8710    2.4990   11.1130 h1        1 AZ2      0.130700
     51 H473       -1.5210    2.9540   12.7140 h1        1 AZ2      0.130700
@<TRIPOS>BOND
     1    1    2 1   
     2    1   10 ar  
     3    1   14 ar  
     4    2    3 1   
     5    2   29 1   
     6    2   30 1   
     7    3    4 1   
     8    3    7 1   
     9    3   31 1   
    10    4    5 1   
    11    5    6 1   
    12    5   32 1   
    13    5   33 1   
    14    6   34 1   
    15    6   35 1   
    16    6   36 1   
    17    7    8 1   
    18    7    9 1   
    19   10   11 ar  
    20   10   37 1   
    21   11   12 ar  
    22   11   38 1   
    23   12   13 ar  
    24   12   15 1   
    25   13   14 ar  
    26   13   39 1   
    27   14   40 1   
    28   15   16 1   
    29   16   17 1   
    30   16   41 1   
    31   16   42 1   
    32   17   18 1   
    33   17   43 1   
    34   17   44 1   
    35   18   19 ar  
    36   18   23 ar  
    37   19   20 ar  
    38   19   45 1   
    39   20   21 ar  
    40   20   46 1   
    41   21   22 ar  
    42   21   24 1   
    43   22   23 ar  
    44   22   47 1   
    45   23   48 1   
    46   24   25 1   
    47   25   26 1   
    48   25   27 2   
    49   25   28 2   
    50   26   49 1   
    51   26   50 1   
    52   26   51 1   
@<TRIPOS>SUBSTRUCTURE
     1 AZ2         1 TEMP              0 ****  ****    0 ROOT
