@<TRIPOS>MOLECULE
AZ2
   51    52     1     0     0
SMALL
bcc


@<TRIPOS>ATOM
      1 C1          0.8030    0.5690   -4.1680 ca        1 AZ2     -0.073300
      2 C2          0.3910    0.5980   -5.5970 c3        1 AZ2     -0.035100
      3 C5         -0.2270   -0.7260   -6.0480 c3        1 AZ2      0.029100
      4 O7          0.1210   -0.8290   -7.4370 os        1 AZ2     -0.448600
      5 C8         -0.5280   -1.9070   -8.1050 c3        1 AZ2      0.134400
      6 C11         0.2150   -2.1290   -9.4050 c3        1 AZ2     -0.095100
      7 C15        -1.7590   -0.7990   -5.8000 c         1 AZ2      0.894600
      8 O16        -2.3590    0.2250   -5.3660 o         1 AZ2     -0.837300
      9 O18        -2.3230   -1.9090   -6.0100 o         1 AZ2     -0.837300
     10 C19         2.1520    0.6360   -3.8030 ca        1 AZ2     -0.101000
     11 C21         2.5300    0.6360   -2.4630 ca        1 AZ2     -0.186500
     12 C23         1.5370    0.5710   -1.4740 ca        1 AZ2      0.089100
     13 C24         0.1830    0.5000   -1.8210 ca        1 AZ2     -0.186500
     14 C26        -0.1750    0.4990   -3.1660 ca        1 AZ2     -0.101000
     15 O28         2.0140    0.6110   -0.1680 os        1 AZ2     -0.349900
     16 C29         1.0480    0.3230    0.8450 c3        1 AZ2      0.136400
     17 C32         1.8370    0.2670    2.1480 c3        1 AZ2     -0.048100
     18 C35         0.9400    0.2140    3.3320 ca        1 AZ2     -0.072300
     19 C36         0.9390   -0.9090    4.1690 ca        1 AZ2     -0.111500
     20 C38         0.1310   -0.9520    5.3020 ca        1 AZ2     -0.147500
     21 C40        -0.6860    0.1490    5.5960 ca        1 AZ2      0.111100
     22 C41        -0.7070    1.2790    4.7630 ca        1 AZ2     -0.147500
     23 C43         0.1090    1.3000    3.6360 ca        1 AZ2     -0.111500
     24 O45        -1.5440    0.1140    6.6660 os        1 AZ2     -0.464800
     25 S46        -0.9920    0.1550    8.2610 s6        1 AZ2      1.587500
     26 C47        -0.1400    1.5960    8.2980 c3        1 AZ2     -0.419300
     27 O51        -2.1580    0.2440    8.9940 o         1 AZ2     -0.646800
     28 O52        -0.1450   -0.9260    8.4010 o         1 AZ2     -0.646800
     29 H21         1.2710    0.8370   -6.2500 hc        1 AZ2      0.060200
     30 H22        -0.3830    1.4030   -5.7400 hc        1 AZ2      0.060200
     31 H51         0.2530   -1.5910   -5.5110 h1        1 AZ2      0.021700
     32 H81        -1.6000   -1.6300   -8.2890 h1        1 AZ2      0.049200
     33 H82        -0.5110   -2.8270   -7.4620 h1        1 AZ2      0.049200
     34 H111       -0.2850   -2.9430   -9.9820 hc        1 AZ2      0.023367
     35 H112        0.2170   -1.1960  -10.0170 hc        1 AZ2      0.023367
     36 H113        1.2740   -2.4200   -9.2080 hc        1 AZ2      0.023367
     37 H191        2.9270    0.6840   -4.5820 ha        1 AZ2      0.163000
     38 H211        3.5870    0.6890   -2.1700 ha        1 AZ2      0.127000
     39 H241       -0.6000    0.4420   -1.0530 ha        1 AZ2      0.127000
     40 H261       -1.2390    0.4370   -3.4780 ha        1 AZ2      0.163000
     41 H291        0.2820    1.1420    0.8750 h1        1 AZ2      0.043200
     42 H292        0.5440   -0.6550    0.6330 h1        1 AZ2      0.043200
     43 H321        2.5170   -0.6260    2.1230 hc        1 AZ2      0.063200
     44 H322        2.4910    1.1790    2.2140 hc        1 AZ2      0.063200
     45 H361        1.5810   -1.7710    3.9290 ha        1 AZ2      0.143500
     46 H381        0.1330   -1.8290    5.9690 ha        1 AZ2      0.152500
     47 H411       -1.3790    2.1180    4.9920 ha        1 AZ2      0.152500
     48 H431        0.0990    2.1790    2.9720 ha        1 AZ2      0.143500
     49 H471        0.9160    1.4670    8.6500 h1        1 AZ2      0.130700
     50 H472       -0.0640    2.0900    7.2920 h1        1 AZ2      0.130700
     51 H473       -0.6080    2.3570    8.9730 h1        1 AZ2      0.130700
@<TRIPOS>BOND
     1    1    2 1   
     2    1   10 ar  
     3    1   14 ar  
     4    2    3 1   
     5    2   29 1   
     6    2   30 1   
     7    3    4 1   
     8    3    7 1   
     9    3   31 1   
    10    4    5 1   
    11    5    6 1   
    12    5   32 1   
    13    5   33 1   
    14    6   34 1   
    15    6   35 1   
    16    6   36 1   
    17    7    8 1   
    18    7    9 1   
    19   10   11 ar  
    20   10   37 1   
    21   11   12 ar  
    22   11   38 1   
    23   12   13 ar  
    24   12   15 1   
    25   13   14 ar  
    26   13   39 1   
    27   14   40 1   
    28   15   16 1   
    29   16   17 1   
    30   16   41 1   
    31   16   42 1   
    32   17   18 1   
    33   17   43 1   
    34   17   44 1   
    35   18   19 ar  
    36   18   23 ar  
    37   19   20 ar  
    38   19   45 1   
    39   20   21 ar  
    40   20   46 1   
    41   21   22 ar  
    42   21   24 1   
    43   22   23 ar  
    44   22   47 1   
    45   23   48 1   
    46   24   25 1   
    47   25   26 1   
    48   25   27 2   
    49   25   28 2   
    50   26   49 1   
    51   26   50 1   
    52   26   51 1   
@<TRIPOS>SUBSTRUCTURE
     1 AZ2         1 TEMP              0 ****  ****    0 ROOT
