@<TRIPOS>MOLECULE
AZ2
   51    52     1     0     0
SMALL
bcc


@<TRIPOS>ATOM
      1 C1          0.6460   -0.4550    0.0250 ca        1 AZ2     -0.074300
      2 C2          0.2910   -0.6310   -1.4090 c3        1 AZ2     -0.036100
      3 C5         -0.1660   -2.0570   -1.7220 c3        1 AZ2      0.029100
      4 O7          0.2170   -2.2620   -3.0910 os        1 AZ2     -0.440600
      5 C8          0.1210   -3.6230   -3.5010 c3        1 AZ2      0.119400
      6 C11         0.3560   -3.6500   -4.9950 c3        1 AZ2     -0.091100
      7 C15        -1.6890   -2.2660   -1.5040 c         1 AZ2      0.898600
      8 O16        -2.4090   -1.2670   -1.2190 o         1 AZ2     -0.837800
      9 O18        -2.1290   -3.4480   -1.5830 o         1 AZ2     -0.837800
     10 C19         1.9640   -0.1990    0.4180 ca        1 AZ2     -0.101000
     11 C21         2.2850   -0.0060    1.7590 ca        1 AZ2     -0.187500
     12 C23         1.2660   -0.0710    2.7210 ca        1 AZ2      0.089100
     13 C24        -0.0580   -0.3320    2.3460 ca        1 AZ2     -0.187500
     14 C26        -0.3590   -0.5210    1.0000 ca        1 AZ2     -0.101000
     15 O28         1.6850    0.1610    4.0260 os        1 AZ2     -0.349900
     16 C29         0.6970   -0.0580    5.0350 c3        1 AZ2      0.136400
     17 C32         1.4220    0.1550    6.3590 c3        1 AZ2     -0.048100
     18 C35         0.4760    0.1840    7.5050 ca        1 AZ2     -0.072300
     19 C36         0.5410   -0.7980    8.5020 ca        1 AZ2     -0.111500
     20 C38        -0.3140   -0.7570    9.5990 ca        1 AZ2     -0.147500
     21 C40        -1.2480    0.2850    9.6940 ca        1 AZ2      0.111100
     22 C41        -1.3360    1.2710    8.6990 ca        1 AZ2     -0.147500
     23 C43        -0.4710    1.2110    7.6110 ca        1 AZ2     -0.111500
     24 O45        -2.1510    0.3180   10.7260 os        1 AZ2     -0.464800
     25 S46        -1.6880    0.6510   12.3150 s6        1 AZ2      1.587500
     26 C47        -0.9840    2.1630   12.1630 c3        1 AZ2     -0.419300
     27 O51        -2.8910    0.7230   12.9850 o         1 AZ2     -0.646800
     28 O52        -0.7460   -0.3030   12.6460 o         1 AZ2     -0.646800
     29 H21        -0.5570    0.0620   -1.6670 hc        1 AZ2      0.060700
     30 H22         1.1670   -0.3720   -2.0610 hc        1 AZ2      0.060700
     31 H51         0.3870   -2.7980   -1.0810 h1        1 AZ2      0.022700
     32 H81         0.9110   -4.2190   -2.9660 h1        1 AZ2      0.045200
     33 H82        -0.8910   -4.0370   -3.2370 h1        1 AZ2      0.045200
     34 H111        1.3560   -3.2240   -5.2460 hc        1 AZ2      0.025700
     35 H112        0.3060   -4.7030   -5.3600 hc        1 AZ2      0.025700
     36 H113       -0.4230   -3.0450   -5.5170 hc        1 AZ2      0.025700
     37 H191        2.7610   -0.1500   -0.3400 ha        1 AZ2      0.163000
     38 H211        3.3170    0.1960    2.0730 ha        1 AZ2      0.127000
     39 H241       -0.8610   -0.3930    3.0920 ha        1 AZ2      0.127000
     40 H261       -1.3970   -0.7360    0.6670 ha        1 AZ2      0.163000
     41 H291       -0.1370    0.6820    4.9110 h1        1 AZ2      0.042700
     42 H292        0.2900   -1.0990    4.9570 h1        1 AZ2      0.042700
     43 H321        2.1830   -0.6590    6.4910 hc        1 AZ2      0.063200
     44 H322        1.9840    1.1270    6.3110 hc        1 AZ2      0.063200
     45 H361        1.2750   -1.6150    8.4180 ha        1 AZ2      0.143500
     46 H381       -0.2610   -1.5210   10.3900 ha        1 AZ2      0.152500
     47 H411       -2.0970    2.0610    8.7750 ha        1 AZ2      0.152500
     48 H431       -0.5330    1.9770    6.8220 ha        1 AZ2      0.143500
     49 H471       -1.5590    2.9620   12.6980 h1        1 AZ2      0.130700
     50 H472       -0.9060    2.5090   11.0980 h1        1 AZ2      0.130700
     51 H473        0.0590    2.2000   12.5680 h1        1 AZ2      0.130700
@<TRIPOS>BOND
     1    1    2 1   
     2    1   10 ar  
     3    1   14 ar  
     4    2    3 1   
     5    2   29 1   
     6    2   30 1   
     7    3    4 1   
     8    3    7 1   
     9    3   31 1   
    10    4    5 1   
    11    5    6 1   
    12    5   32 1   
    13    5   33 1   
    14    6   34 1   
    15    6   35 1   
    16    6   36 1   
    17    7    8 1   
    18    7    9 1   
    19   10   11 ar  
    20   10   37 1   
    21   11   12 ar  
    22   11   38 1   
    23   12   13 ar  
    24   12   15 1   
    25   13   14 ar  
    26   13   39 1   
    27   14   40 1   
    28   15   16 1   
    29   16   17 1   
    30   16   41 1   
    31   16   42 1   
    32   17   18 1   
    33   17   43 1   
    34   17   44 1   
    35   18   19 ar  
    36   18   23 ar  
    37   19   20 ar  
    38   19   45 1   
    39   20   21 ar  
    40   20   46 1   
    41   21   22 ar  
    42   21   24 1   
    43   22   23 ar  
    44   22   47 1   
    45   23   48 1   
    46   24   25 1   
    47   25   26 1   
    48   25   27 2   
    49   25   28 2   
    50   26   49 1   
    51   26   50 1   
    52   26   51 1   
@<TRIPOS>SUBSTRUCTURE
     1 AZ2         1 TEMP              0 ****  ****    0 ROOT
