@<TRIPOS>MOLECULE
AZ3
   55    48     1     0     0
SMALL
bcc


@<TRIPOS>ATOM
      1 N2          1.3250    8.8710    5.3750 n3        1 AZ3     -0.396000
      2 C7          0.3080    7.9160    5.3040 c1        1 AZ3      0.131000
      3 N1         -0.9070    8.2120    5.7280 n1        1 AZ3     -0.295000
      4 C3          0.6090    6.4990    4.7210 c1        1 AZ3     -0.096000
      5 C2          0.8080    5.4230    5.5780 c1        1 AZ3     -0.112500
      6 C1          0.9760    4.1330    5.0560 c1        1 AZ3     -0.112500
      7 C4          0.5770    6.2960    3.3440 c1        1 AZ3     -0.073000
      8 C5          0.7460    5.0040    2.8190 c1        1 AZ3     -0.215000
      9 C6          0.9440    3.9300    3.6720 c1        1 AZ3      0.094000
     10 O1          1.2610    2.6770    3.1500 os        1 AZ3     -0.210000
     11 C8          0.0840    1.8670    2.7660 c3        1 AZ3     -0.022000
     12 C9          0.5210    0.8000    1.7550 c3        1 AZ3     -0.195000
     13 C10        -0.6000    0.5770    0.7160 c3        1 AZ3     -0.156000
     14 C11         0.0120    0.3100   -0.6400 c3        1 AZ3     -0.159000
     15 C12        -1.1380    0.0330   -1.6800 c3        1 AZ3     -0.157000
     16 C13        -0.5300   -0.4590   -2.9960 c3        1 AZ3     -0.164000
     17 C14        -0.9150   -1.9460   -3.2260 c3        1 AZ3     -0.022000
     18 O2          0.1080   -2.5880   -3.9120 os        1 AZ3     -0.213000
     19 C15        -0.0190   -4.0580   -3.9510 c2        1 AZ3      0.098000
     20 C16        -0.4250   -4.6990   -5.1440 c2        1 AZ3     -0.162000
     21 C17        -0.4510   -6.0790   -5.2130 c1        1 AZ3     -0.082000
     22 C20         0.3580   -4.8250   -2.8360 c1        1 AZ3     -0.214000
     23 C19         0.3330   -6.2130   -2.9050 c1        1 AZ3     -0.059000
     24 C18        -0.0710   -6.8510   -4.0920 c1        1 AZ3     -0.153000
     25 C21        -0.1680   -8.3640   -4.1480 c2        1 AZ3      0.119000
     26 N3          0.8310   -9.0800   -4.6820 n1        1 AZ3     -0.305000
     27 N4         -1.3070   -9.0110   -3.6470 n3        1 AZ3     -0.331000
     28 H1          1.1130    9.7670    5.4890 hn        1 AZ3      0.192000
     29 H2          2.1970    8.6120    5.3250 hn        1 AZ3      0.192000
     30 H3         -1.0850    9.0630    6.0760 DU        1 AZ3      0.143500
     31 H4          0.8320    5.5680    6.5620 ha        1 AZ3      0.151500
     32 H5          1.1200    3.3530    5.6770 ha        1 AZ3      0.151500
     33 H6          0.4410    7.0280    2.7620 ha        1 AZ3      0.143000
     34 H7          0.7220    4.8570    1.8090 ha        1 AZ3      0.140000
     35 H8         -0.5960    2.4460    2.3630 h1        1 AZ3      0.097000
     36 H9         -0.2770    1.4480    3.5330 h1        1 AZ3      0.097000
     37 H10         0.7100   -0.0790    2.2500 hc        1 AZ3      0.095000
     38 H11         1.3150    1.0910    1.3110 hc        1 AZ3      0.095000
     39 H12        -1.0990   -0.1280    0.9640 hc        1 AZ3      0.081000
     40 H13        -1.1720    1.3840    0.6650 hc        1 AZ3      0.081000
     41 H14         0.5200    1.0720   -0.9190 hc        1 AZ3      0.083000
     42 H15         0.5940   -0.4620   -0.5880 hc        1 AZ3      0.083000
     43 H16        -1.7660   -0.6710   -1.3120 hc        1 AZ3      0.084000
     44 H17        -1.6180    0.8330   -1.8360 hc        1 AZ3      0.084000
     45 H18         0.4340   -0.3790   -2.9550 hc        1 AZ3      0.098500
     46 H19        -0.8840    0.1000   -3.7570 hc        1 AZ3      0.098500
     47 H20        -1.7260   -1.9900   -3.7470 h1        1 AZ3      0.081000
     48 H21        -1.0530   -2.3790   -2.3710 h1        1 AZ3      0.081000
     49 H22        -0.7040   -4.1430   -5.9470 ha        1 AZ3      0.153000
     50 H23        -0.7470   -6.5430   -6.0790 ha        1 AZ3      0.141000
     51 H24         0.6290   -4.3870   -2.0210 ha        1 AZ3      0.141000
     52 H25         0.5900   -6.7340   -2.1440 ha        1 AZ3      0.150000
     53 H26         1.5860   -8.6500   -5.0160 DU        1 AZ3      0.143500
     54 H27        -1.9640   -8.5370   -3.2910 hn        1 AZ3      0.192000
     55 H28        -1.3830   -9.9150   -3.7130 hn        1 AZ3      0.192000
@<TRIPOS>BOND
     1    1    2 1   
     2    1   28 1   
     3    1   29 1   
     4    2    3 1   
     5    4    7 1   
     6    5    6 1   
     7    5   31 1   
     8    6   32 1   
     9    7   33 1   
    10    8    9 1   
    11    8   34 1   
    12    9   10 1   
    13   10   11 1   
    14   11   12 1   
    15   11   35 1   
    16   11   36 1   
    17   12   13 1   
    18   12   37 1   
    19   12   38 1   
    20   13   14 1   
    21   13   39 1   
    22   13   40 1   
    23   14   15 1   
    24   14   41 1   
    25   14   42 1   
    26   15   16 1   
    27   15   43 1   
    28   15   44 1   
    29   16   17 1   
    30   16   45 1   
    31   16   46 1   
    32   17   18 1   
    33   17   47 1   
    34   17   48 1   
    35   18   19 1   
    36   19   20 1   
    37   19   22 1   
    38   20   21 1   
    39   20   49 1   
    40   21   50 1   
    41   22   51 1   
    42   23   24 1   
    43   23   52 1   
    44   24   25 1   
    45   25   26 1   
    46   25   27 1   
    47   27   54 1   
    48   27   55 1   
@<TRIPOS>SUBSTRUCTURE
     1 AZ3         1 TEMP              0 ****  ****    0 ROOT
