@<TRIPOS>MOLECULE
AZ3
   57    58     1     0     0
SMALL
bcc


@<TRIPOS>ATOM
      1 N2         -0.1780   -0.7040   -0.3150 n4        1 AZ3     -0.860600
      2 C7          0.8550    0.4370   -0.3060 ce        1 AZ3      0.623300
      3 N1          0.8960    1.3670    0.5490 n2        1 AZ3     -0.696600
      4 C3          1.7940    0.2710   -1.4320 ca        1 AZ3     -0.297900
      5 C2          1.3240    0.2820   -2.7570 ca        1 AZ3     -0.047250
      6 C1          2.2150    0.1730   -3.8100 ca        1 AZ3     -0.181500
      7 C4          3.1670    0.1760   -1.1690 ca        1 AZ3     -0.047250
      8 C5          4.0720    0.0650   -2.2200 ca        1 AZ3     -0.181500
      9 C6          3.6020    0.0640   -3.5430 ca        1 AZ3      0.200100
     10 O1          4.3870   -0.0400   -4.6540 os        1 AZ3     -0.308400
     11 C8          5.8140   -0.0570   -4.4490 c3        1 AZ3      0.125400
     12 C9          6.4150   -0.0960   -5.8430 c3        1 AZ3     -0.088400
     13 C10         7.9260   -0.0620   -5.7670 c3        1 AZ3     -0.077400
     14 C11         8.5290   -0.1060   -7.1560 c3        1 AZ3     -0.078400
     15 C12        10.0420   -0.0540   -7.1030 c3        1 AZ3     -0.077400
     16 C13        10.6240   -0.1100   -8.5000 c3        1 AZ3     -0.088400
     17 C14        12.1410   -0.0490   -8.4440 c3        1 AZ3      0.125400
     18 O2         12.5710   -0.1460   -9.8170 os        1 AZ3     -0.308400
     19 C15        13.9150   -0.1560  -10.0470 ca        1 AZ3      0.200100
     20 C16        14.9050   -0.0240   -9.0590 ca        1 AZ3     -0.181500
     21 C17        16.2470   -0.0500   -9.4240 ca        1 AZ3     -0.047250
     22 C20        14.2790   -0.3140  -11.4070 ca        1 AZ3     -0.181500
     23 C19        15.6170   -0.3370  -11.7560 ca        1 AZ3     -0.047250
     24 C18        16.6080   -0.2030  -10.7680 ca        1 AZ3     -0.297900
     25 C21        18.0330   -0.2810  -11.1300 ce        1 AZ3      0.623300
     26 N3         18.9440   -1.1300  -10.8460 n2        1 AZ3     -0.696600
     27 N4         18.4540    0.8850  -11.9930 n4        1 AZ3     -0.860600
     28 H1         -0.9280   -0.5700    0.3650 hn        1 AZ3      0.462800
     29 H2         -0.5840   -0.7710   -1.2540 hn        1 AZ3      0.462800
     30 H3          0.2710    1.4560    1.3200 hn        1 AZ3      0.476900
     31 H4          0.2530    0.4110   -2.9750 ha        1 AZ3      0.145500
     32 H5          1.8690    0.1840   -4.8560 ha        1 AZ3      0.172000
     33 H6          3.5380    0.1990   -0.1320 ha        1 AZ3      0.145500
     34 H7          5.1480   -0.0090   -2.0020 ha        1 AZ3      0.172000
     35 H8          6.1190    0.8700   -3.8960 h1        1 AZ3      0.050950
     36 H9          6.0880   -0.9680   -3.8560 h1        1 AZ3      0.050950
     37 H10         6.0730   -1.0260   -6.3690 hc        1 AZ3      0.066950
     38 H11         6.0370    0.7780   -6.4350 hc        1 AZ3      0.066950
     39 H12         8.2970   -0.9350   -5.1670 hc        1 AZ3      0.045700
     40 H13         8.2590    0.8710   -5.2400 hc        1 AZ3      0.045700
     41 H14         8.1450    0.7590   -7.7590 hc        1 AZ3      0.050700
     42 H15         8.2030   -1.0450   -7.6770 hc        1 AZ3      0.050700
     43 H16        10.4280   -0.9150   -6.4960 hc        1 AZ3      0.045700
     44 H17        10.3700    0.8890   -6.5920 hc        1 AZ3      0.045700
     45 H18        10.2400    0.7450   -9.1150 hc        1 AZ3      0.066950
     46 H19        10.3090   -1.0570   -9.0130 hc        1 AZ3      0.066950
     47 H20        12.4980    0.9240   -8.0150 h1        1 AZ3      0.050950
     48 H21        12.5660   -0.9070   -7.8620 h1        1 AZ3      0.050950
     49 H22        14.6330    0.0960   -7.9990 ha        1 AZ3      0.172000
     50 H23        17.0210    0.0470   -8.6460 ha        1 AZ3      0.145500
     51 H24        13.4870   -0.4240  -12.1650 ha        1 AZ3      0.172000
     52 H25        15.8960   -0.4880  -12.8110 ha        1 AZ3      0.145500
     53 H26        18.7000   -1.9220  -10.2870 hn        1 AZ3      0.476900
     54 H27        18.3710    1.7410  -11.4370 hn        1 AZ3      0.462800
     55 H28        17.8110    0.9380  -12.7900 hn        1 AZ3      0.462800
     56 H231        0.3080   -1.5830   -0.1110 hn        1 AZ3      0.462800
     57 H43        19.4190    0.7890  -12.3330 hn        1 AZ3      0.462800
@<TRIPOS>BOND
     1    1    2 1   
     2    1   28 1   
     3    1   29 1   
     4    1   56 1   
     5    2    3 2   
     6    2    4 1   
     7    3   30 1   
     8    4    5 ar  
     9    4    7 ar  
    10    5    6 ar  
    11    5   31 1   
    12    6    9 ar  
    13    6   32 1   
    14    7    8 ar  
    15    7   33 1   
    16    8    9 ar  
    17    8   34 1   
    18    9   10 1   
    19   10   11 1   
    20   11   12 1   
    21   11   35 1   
    22   11   36 1   
    23   12   13 1   
    24   12   37 1   
    25   12   38 1   
    26   13   14 1   
    27   13   39 1   
    28   13   40 1   
    29   14   15 1   
    30   14   41 1   
    31   14   42 1   
    32   15   16 1   
    33   15   43 1   
    34   15   44 1   
    35   16   17 1   
    36   16   45 1   
    37   16   46 1   
    38   17   18 1   
    39   17   47 1   
    40   17   48 1   
    41   18   19 1   
    42   19   20 ar  
    43   19   22 ar  
    44   20   21 ar  
    45   20   49 1   
    46   21   24 ar  
    47   21   50 1   
    48   22   23 ar  
    49   22   51 1   
    50   23   24 ar  
    51   23   52 1   
    52   24   25 1   
    53   25   26 2   
    54   25   27 1   
    55   26   53 1   
    56   27   54 1   
    57   27   55 1   
    58   27   57 1   
@<TRIPOS>SUBSTRUCTURE
     1 AZ3         1 TEMP              0 ****  ****    0 ROOT
