@<TRIPOS>MOLECULE
AZ3
   57    58     1     0     0
SMALL
bcc


@<TRIPOS>ATOM
      1 N2         -0.2550    0.6870   -0.4150 nz        1 AZ3     -0.860600
      2 C7          0.9150   -0.2970   -0.2320 ce        1 AZ3      0.623300
      3 N1          1.0670   -1.0610    0.7630 n2        1 AZ3     -0.696600
      4 C3          1.8340   -0.2010   -1.3830 ca        1 AZ3     -0.297900
      5 C2          1.3790   -0.4880   -2.6820 ca        1 AZ3     -0.047500
      6 C1          2.2570   -0.4430   -3.7500 ca        1 AZ3     -0.181500
      7 C4          3.1810    0.1070   -1.1580 ca        1 AZ3     -0.047500
      8 C5          4.0740    0.1570   -2.2240 ca        1 AZ3     -0.181500
      9 C6          3.6170   -0.1190   -3.5230 ca        1 AZ3      0.200100
     10 O1          4.3920   -0.1020   -4.6470 os        1 AZ3     -0.308400
     11 C8          5.8050    0.1190   -4.4640 c3        1 AZ3      0.125400
     12 C9          6.4080   -0.0090   -5.8520 c3        1 AZ3     -0.088400
     13 C10         7.9130    0.1430   -5.7900 c3        1 AZ3     -0.077400
     14 C11         8.5190    0.0010   -7.1700 c3        1 AZ3     -0.078400
     15 C12        10.0280    0.1250   -7.1270 c3        1 AZ3     -0.077400
     16 C13        10.6150   -0.0390   -8.5120 c3        1 AZ3     -0.088400
     17 C14        12.1290    0.0680   -8.4630 c3        1 AZ3      0.125400
     18 O2         12.5650   -0.1490   -9.8200 os        1 AZ3     -0.308400
     19 C15        13.9110   -0.1610  -10.0450 ca        1 AZ3      0.200100
     20 C16        14.8950    0.0850   -9.0730 ca        1 AZ3     -0.181500
     21 C17        16.2380    0.0430   -9.4310 ca        1 AZ3     -0.047500
     22 C20        14.2820   -0.4470  -11.3820 ca        1 AZ3     -0.181500
     23 C19        15.6220   -0.4840  -11.7240 ca        1 AZ3     -0.047500
     24 C18        16.6070   -0.2380  -10.7520 ca        1 AZ3     -0.297900
     25 C21        18.0340   -0.3310  -11.1010 ce        1 AZ3      0.623300
     26 N3         18.9560   -1.1330  -10.7300 n2        1 AZ3     -0.696600
     27 N4         18.4410    0.7480  -12.0770 nz        1 AZ3     -0.860600
     28 H1         -0.9870    0.5730    0.2880 hn        1 AZ3      0.462633
     29 H2          0.1140    1.6410   -0.3650 hn        1 AZ3      0.462633
     30 H3          0.4530   -1.1010    1.5460 hn        1 AZ3      0.476900
     31 H4          0.3340   -0.7850   -2.8620 ha        1 AZ3      0.145500
     32 H5          1.9240   -0.6690   -4.7760 ha        1 AZ3      0.172000
     33 H6          3.5450    0.3020   -0.1360 ha        1 AZ3      0.145500
     34 H7          5.1300    0.4000   -2.0360 ha        1 AZ3      0.172000
     35 H8          5.9630    1.1440   -4.0390 h1        1 AZ3      0.050950
     36 H9          6.2140   -0.6560   -3.7660 h1        1 AZ3      0.050950
     37 H10         6.1370   -1.0080   -6.2840 hc        1 AZ3      0.066950
     38 H11         5.9660    0.7740   -6.5240 hc        1 AZ3      0.066950
     39 H12         8.3450   -0.6350   -5.1060 hc        1 AZ3      0.045700
     40 H13         8.1770    1.1470   -5.3630 hc        1 AZ3      0.045700
     41 H14         8.0970    0.7880   -7.8490 hc        1 AZ3      0.050700
     42 H15         8.2380   -0.9960   -7.6030 hc        1 AZ3      0.050700
     43 H16        10.4510   -0.6550   -6.4400 hc        1 AZ3      0.045700
     44 H17        10.3130    1.1270   -6.7100 hc        1 AZ3      0.045700
     45 H18        10.2080    0.7470   -9.2020 hc        1 AZ3      0.066950
     46 H19        10.3270   -1.0360   -8.9390 hc        1 AZ3      0.066950
     47 H20        12.4590    1.0860   -8.1300 h1        1 AZ3      0.050950
     48 H21        12.5740   -0.7190   -7.8010 h1        1 AZ3      0.050950
     49 H22        14.6170    0.3060   -8.0310 ha        1 AZ3      0.172000
     50 H23        17.0080    0.2290   -8.6650 ha        1 AZ3      0.145500
     51 H24        13.4940   -0.6450  -12.1270 ha        1 AZ3      0.172000
     52 H25        15.9070   -0.7360  -12.7580 ha        1 AZ3      0.145500
     53 H26        18.7220   -1.8680  -10.0950 hn        1 AZ3      0.476900
     54 H27        18.3430    1.6550  -11.6100 hn        1 AZ3      0.462633
     55 H28        17.8010    0.7110  -12.8770 hn        1 AZ3      0.462633
     56 H231       -0.6590    0.5460   -1.3460 hn        1 AZ3      0.462633
     57 H43        19.4090    0.6330  -12.4020 hn        1 AZ3      0.462633
@<TRIPOS>BOND
     1    1    2 1   
     2    1   28 1   
     3    1   29 1   
     4    1   56 1   
     5    2    3 2   
     6    2    4 1   
     7    3   30 1   
     8    4    5 ar  
     9    4    7 ar  
    10    5    6 ar  
    11    5   31 1   
    12    6    9 ar  
    13    6   32 1   
    14    7    8 ar  
    15    7   33 1   
    16    8    9 ar  
    17    8   34 1   
    18    9   10 1   
    19   10   11 1   
    20   11   12 1   
    21   11   35 1   
    22   11   36 1   
    23   12   13 1   
    24   12   37 1   
    25   12   38 1   
    26   13   14 1   
    27   13   39 1   
    28   13   40 1   
    29   14   15 1   
    30   14   41 1   
    31   14   42 1   
    32   15   16 1   
    33   15   43 1   
    34   15   44 1   
    35   16   17 1   
    36   16   45 1   
    37   16   46 1   
    38   17   18 1   
    39   17   47 1   
    40   17   48 1   
    41   18   19 1   
    42   19   20 ar  
    43   19   22 ar  
    44   20   21 ar  
    45   20   49 1   
    46   21   24 ar  
    47   21   50 1   
    48   22   23 ar  
    49   22   51 1   
    50   23   24 ar  
    51   23   52 1   
    52   24   25 1   
    53   25   26 2   
    54   25   27 1   
    55   26   53 1   
    56   27   54 1   
    57   27   55 1   
    58   27   57 1   
@<TRIPOS>SUBSTRUCTURE
     1 AZ3         1 TEMP              0 ****  ****    0 ROOT
