@<TRIPOS>MOLECULE
AZ3
   55    56     1     0     0
SMALL
bcc


@<TRIPOS>ATOM
      1 N2         11.0180    0.2450   -0.6630 nh        1 AZ3     -0.958800
      2 C7         10.1240    0.9180    0.2000 ce        1 AZ3      0.656800
      3 N1         10.4110    1.8620    1.0460 n2        1 AZ3     -0.830100
      4 C3          8.7190    0.4040    0.1510 ca        1 AZ3     -0.180900
      5 C2          8.4700   -0.9740    0.1940 ca        1 AZ3     -0.065000
      6 C1          7.1670   -1.4530    0.1510 ca        1 AZ3     -0.190500
      7 C4          7.6530    1.3040    0.0810 ca        1 AZ3     -0.065000
      8 C5          6.3390    0.8400    0.0340 ca        1 AZ3     -0.190500
      9 C6          6.0980   -0.5390    0.0670 ca        1 AZ3      0.141100
     10 O1          4.8480   -1.1190    0.0170 os        1 AZ3     -0.329900
     11 C8          3.7350   -0.2150    0.0090 c3        1 AZ3      0.128400
     12 C9          2.4940   -1.0900    0.0100 c3        1 AZ3     -0.086400
     13 C10         1.2490   -0.2310    0.0020 c3        1 AZ3     -0.078400
     14 C11        -0.0000   -1.0870    0.0010 c3        1 AZ3     -0.077400
     15 C12        -1.2490   -0.2310   -0.0030 c3        1 AZ3     -0.078400
     16 C13        -2.4940   -1.0900   -0.0090 c3        1 AZ3     -0.086400
     17 C14        -3.7350   -0.2150   -0.0090 c3        1 AZ3      0.128400
     18 O2         -4.8480   -1.1190   -0.0150 os        1 AZ3     -0.329900
     19 C15        -6.0980   -0.5380   -0.0660 ca        1 AZ3      0.141100
     20 C16        -6.3390    0.8400   -0.0360 ca        1 AZ3     -0.190500
     21 C17        -7.6530    1.3050   -0.0840 ca        1 AZ3     -0.065000
     22 C20        -7.1670   -1.4530   -0.1470 ca        1 AZ3     -0.190500
     23 C19        -8.4700   -0.9740   -0.1910 ca        1 AZ3     -0.065000
     24 C18        -8.7190    0.4040   -0.1510 ca        1 AZ3     -0.180900
     25 C21       -10.1240    0.9180   -0.2010 ce        1 AZ3      0.656800
     26 N3        -10.4110    1.8600   -1.0490 n2        1 AZ3     -0.830100
     27 N4        -11.0180    0.2470    0.6640 nh        1 AZ3     -0.958800
     28 H1         10.5950   -0.2430   -1.4170 hn        1 AZ3      0.397300
     29 H2         11.8520    0.7280   -0.9060 hn        1 AZ3      0.397300
     30 H3         11.3560    2.1830    1.0500 hn        1 AZ3      0.381400
     31 H4          9.3050   -1.6870    0.2770 ha        1 AZ3      0.147000
     32 H5          6.9550   -2.5300    0.1860 ha        1 AZ3      0.145500
     33 H6          7.8460    2.3890    0.0720 ha        1 AZ3      0.147000
     34 H7          5.5130    1.5620   -0.0230 ha        1 AZ3      0.145500
     35 H8          3.7730    0.4360    0.9200 h1        1 AZ3      0.040200
     36 H9          3.7800    0.4220   -0.9130 h1        1 AZ3      0.040200
     37 H10         2.5090   -1.7600   -0.8890 hc        1 AZ3      0.058700
     38 H11         2.5050   -1.7500    0.9160 hc        1 AZ3      0.058700
     39 H12         1.2450    0.4380    0.9030 hc        1 AZ3      0.041700
     40 H13         1.2520    0.4320   -0.9030 hc        1 AZ3      0.041700
     41 H14         0.0020   -1.7540   -0.9020 hc        1 AZ3      0.045700
     42 H15        -0.0020   -1.7520    0.9040 hc        1 AZ3      0.045700
     43 H16        -1.2520    0.4340    0.9010 hc        1 AZ3      0.041700
     44 H17        -1.2450    0.4360   -0.9060 hc        1 AZ3      0.041700
     45 H18        -2.5050   -1.7520   -0.9130 hc        1 AZ3      0.058700
     46 H19        -2.5090   -1.7580    0.8920 hc        1 AZ3      0.058700
     47 H20        -3.7800    0.4250    0.9110 h1        1 AZ3      0.040200
     48 H21        -3.7730    0.4340   -0.9230 h1        1 AZ3      0.040200
     49 H22        -5.5130    1.5620    0.0180 ha        1 AZ3      0.145500
     50 H23        -7.8460    2.3890   -0.0780 ha        1 AZ3      0.147000
     51 H24        -6.9550   -2.5300   -0.1800 ha        1 AZ3      0.145500
     52 H25        -9.3050   -1.6870   -0.2720 ha        1 AZ3      0.147000
     53 H26       -11.3560    2.1810   -1.0540 hn        1 AZ3      0.381400
     54 H27       -10.5950   -0.2390    1.4190 hn        1 AZ3      0.397300
     55 H28       -11.8520    0.7300    0.9050 hn        1 AZ3      0.397300
@<TRIPOS>BOND
     1    1    2 1   
     2    1   28 1   
     3    1   29 1   
     4    2    3 2   
     5    2    4 1   
     6    3   30 1   
     7    4    5 ar  
     8    4    7 ar  
     9    5    6 ar  
    10    5   31 1   
    11    6    9 ar  
    12    6   32 1   
    13    7    8 ar  
    14    7   33 1   
    15    8    9 ar  
    16    8   34 1   
    17    9   10 1   
    18   10   11 1   
    19   11   12 1   
    20   11   35 1   
    21   11   36 1   
    22   12   13 1   
    23   12   37 1   
    24   12   38 1   
    25   13   14 1   
    26   13   39 1   
    27   13   40 1   
    28   14   15 1   
    29   14   41 1   
    30   14   42 1   
    31   15   16 1   
    32   15   43 1   
    33   15   44 1   
    34   16   17 1   
    35   16   45 1   
    36   16   46 1   
    37   17   18 1   
    38   17   47 1   
    39   17   48 1   
    40   18   19 1   
    41   19   20 ar  
    42   19   22 ar  
    43   20   21 ar  
    44   20   49 1   
    45   21   24 ar  
    46   21   50 1   
    47   22   23 ar  
    48   22   51 1   
    49   23   24 ar  
    50   23   52 1   
    51   24   25 1   
    52   25   26 2   
    53   25   27 1   
    54   26   53 1   
    55   27   54 1   
    56   27   55 1   
@<TRIPOS>SUBSTRUCTURE
     1 AZ3         1 TEMP              0 ****  ****    0 ROOT
