@<TRIPOS>MOLECULE
AZ3
   57    58     1     0     0
SMALL
bcc


@<TRIPOS>ATOM
      1 N2         -0.1810   -0.7100   -0.3200 n4        1 AZ3     -0.860600
      2 C7          0.8700    0.4140   -0.2840 ce        1 AZ3      0.623300
      3 N1          0.9270    1.3210    0.5940 n2        1 AZ3     -0.696600
      4 C3          1.8060    0.2610   -1.4150 ca        1 AZ3     -0.297900
      5 C2          1.3340    0.3120   -2.7390 ca        1 AZ3     -0.047500
      6 C1          2.2210    0.2160   -3.7960 ca        1 AZ3     -0.181500
      7 C4          3.1760    0.1370   -1.1570 ca        1 AZ3     -0.047500
      8 C5          4.0790    0.0380   -2.2120 ca        1 AZ3     -0.181500
      9 C6          3.6070    0.0770   -3.5330 ca        1 AZ3      0.200100
     10 O1          4.3890   -0.0110   -4.6480 os        1 AZ3     -0.308400
     11 C8          5.8160   -0.0560   -4.4450 c3        1 AZ3      0.125400
     12 C9          6.4150   -0.0720   -5.8410 c3        1 AZ3     -0.088400
     13 C10         7.9260   -0.0610   -5.7670 c3        1 AZ3     -0.077400
     14 C11         8.5270   -0.0840   -7.1570 c3        1 AZ3     -0.078400
     15 C12        10.0400   -0.0520   -7.1060 c3        1 AZ3     -0.077400
     16 C13        10.6200   -0.0900   -8.5030 c3        1 AZ3     -0.088400
     17 C14        12.1370   -0.0460   -8.4490 c3        1 AZ3      0.125400
     18 O2         12.5650   -0.1270   -9.8230 os        1 AZ3     -0.308400
     19 C15        13.9090   -0.1480  -10.0560 ca        1 AZ3      0.200100
     20 C16        14.9010   -0.0410   -9.0670 ca        1 AZ3     -0.181500
     21 C17        16.2420   -0.0750   -9.4350 ca        1 AZ3     -0.047500
     22 C20        14.2700   -0.2890  -11.4190 ca        1 AZ3     -0.181500
     23 C19        15.6070   -0.3210  -11.7700 ca        1 AZ3     -0.047500
     24 C18        16.6010   -0.2120  -10.7810 ca        1 AZ3     -0.297900
     25 C21        18.0240   -0.2990  -11.1470 ce        1 AZ3      0.623300
     26 N3         18.9260   -1.1610  -10.8750 n2        1 AZ3     -0.696600
     27 N4         18.4550    0.8750  -11.9930 n4        1 AZ3     -0.860600
     28 H1          0.2910   -1.6010   -0.1390 hn        1 AZ3      0.462800
     29 H2         -0.9280   -0.5810    0.3640 hn        1 AZ3      0.462800
     30 H3          0.3050    1.4010    1.3680 hn        1 AZ3      0.476900
     31 H4          0.2650    0.4650   -2.9530 ha        1 AZ3      0.145500
     32 H5          1.8750    0.2580   -4.8410 ha        1 AZ3      0.172000
     33 H6          3.5490    0.1280   -0.1200 ha        1 AZ3      0.145500
     34 H7          5.1540   -0.0580   -1.9970 ha        1 AZ3      0.172000
     35 H8          6.1370    0.8520   -3.8710 h1        1 AZ3      0.050950
     36 H9          6.0760   -0.9850   -3.8760 h1        1 AZ3      0.050950
     37 H10         6.0590   -0.9840   -6.3880 hc        1 AZ3      0.066950
     38 H11         6.0480    0.8220   -6.4120 hc        1 AZ3      0.066950
     39 H12         8.2730    0.8560   -5.2210 hc        1 AZ3      0.045450
     40 H13         8.2850   -0.9510   -5.1860 hc        1 AZ3      0.045450
     41 H14         8.1530    0.7980   -7.7420 hc        1 AZ3      0.050700
     42 H15         8.1890   -1.0070   -7.6970 hc        1 AZ3      0.050700
     43 H16        10.4160   -0.9290   -6.5150 hc        1 AZ3      0.045450
     44 H17        10.3810    0.8770   -6.5780 hc        1 AZ3      0.045450
     45 H18        10.2940   -1.0230   -9.0330 hc        1 AZ3      0.066950
     46 H19        10.2450    0.7810   -9.1030 hc        1 AZ3      0.066950
     47 H20        12.5060    0.9150   -8.0060 h1        1 AZ3      0.050950
     48 H21        12.5530   -0.9180   -7.8800 h1        1 AZ3      0.050950
     49 H22        14.6320    0.0660   -8.0050 ha        1 AZ3      0.172000
     50 H23        17.0180    0.0030   -8.6560 ha        1 AZ3      0.145500
     51 H24        13.4760   -0.3800  -12.1770 ha        1 AZ3      0.172000
     52 H25        15.8830   -0.4600  -12.8270 ha        1 AZ3      0.145500
     53 H26        18.6750   -1.9590  -10.3280 hn        1 AZ3      0.476900
     54 H27        18.3820    1.7240  -11.4240 hn        1 AZ3      0.462800
     55 H28        17.8120    0.9460  -12.7890 hn        1 AZ3      0.462800
     56 H231       -0.5890   -0.7460   -1.2600 hn        1 AZ3      0.462800
     57 H43        19.4190    0.7750  -12.3350 hn        1 AZ3      0.462800
@<TRIPOS>BOND
     1    1    2 1   
     2    1   28 1   
     3    1   29 1   
     4    1   56 1   
     5    2    3 2   
     6    2    4 1   
     7    3   30 1   
     8    4    5 ar  
     9    4    7 ar  
    10    5    6 ar  
    11    5   31 1   
    12    6    9 ar  
    13    6   32 1   
    14    7    8 ar  
    15    7   33 1   
    16    8    9 ar  
    17    8   34 1   
    18    9   10 1   
    19   10   11 1   
    20   11   12 1   
    21   11   35 1   
    22   11   36 1   
    23   12   13 1   
    24   12   37 1   
    25   12   38 1   
    26   13   14 1   
    27   13   39 1   
    28   13   40 1   
    29   14   15 1   
    30   14   41 1   
    31   14   42 1   
    32   15   16 1   
    33   15   43 1   
    34   15   44 1   
    35   16   17 1   
    36   16   45 1   
    37   16   46 1   
    38   17   18 1   
    39   17   47 1   
    40   17   48 1   
    41   18   19 1   
    42   19   20 ar  
    43   19   22 ar  
    44   20   21 ar  
    45   20   49 1   
    46   21   24 ar  
    47   21   50 1   
    48   22   23 ar  
    49   22   51 1   
    50   23   24 ar  
    51   23   52 1   
    52   24   25 1   
    53   25   26 2   
    54   25   27 1   
    55   26   53 1   
    56   27   54 1   
    57   27   55 1   
    58   27   57 1   
@<TRIPOS>SUBSTRUCTURE
     1 AZ3         1 TEMP              0 ****  ****    0 ROOT
