@<TRIPOS>MOLECULE
AZ4
   59    58     1     0     0
SMALL
bcc


@<TRIPOS>ATOM
      1 C1          3.2290   -1.7890   -0.2460 c1        1 AZ4      0.123000
      2 C2          2.8450   -0.8390    2.1140 c3        1 AZ4      0.008000
      3 C3          1.3440   -1.1000    2.3140 c3        1 AZ4     -0.175000
      4 O4          5.9840   -1.8110    3.9770 o         1 AZ4     -0.799000
      5 O5          1.5900   -7.1210    2.9460 os        1 AZ4     -0.182000
      6 N6         -0.7570   -4.5270    1.9320 n2        1 AZ4     -0.230000
      7 C7         -3.6740   -0.9310    2.1190 c2        1 AZ4     -0.059000
      8 C8         -2.8140   -1.8970    1.5490 c1        1 AZ4     -0.171000
      9 C9          3.6360   -1.8410    2.9490 c3        1 AZ4     -0.670000
     10 C10         4.8960   -5.1770    1.2830 c2        1 AZ4     -0.101000
     11 C11        -4.0690   -5.4070    0.8750 c1        1 AZ4     -0.203000
     12 C12         6.3500   -4.9820    4.5380 c2        1 AZ4     -0.179000
     13 C13         5.7740   -5.4700    3.4290 c2        1 AZ4     -0.146000
     14 C14        -1.8460   -5.2800    1.6360 c2        1 AZ4      0.136000
     15 C15         0.3760   -5.1760    2.3380 c2        1 AZ4     -0.062000
     16 C16         0.4320   -6.5590    2.4460 c2        1 AZ4     -0.073000
     17 C19        -0.7150   -7.3600    2.0980 c1        1 AZ4     -0.138000
     18 N1          3.2590   -0.8080    0.7020 n3        1 AZ4     -0.227000
     19 O2          2.7800   -3.0040    0.0060 oh        1 AZ4     -0.244000
     20 C4          0.4910   -0.0620    1.6120 c3        1 AZ4     -0.145000
     21 C5         -0.9790   -0.3530    1.7880 c2        1 AZ4      0.016000
     22 N2         -1.8450    0.5670    2.3380 n3        1 AZ4     -0.093000
     23 C6         -3.1760    0.3500    2.5230 c1        1 AZ4     -0.171000
     24 N3         -1.5040   -1.5550    1.3900 n3        1 AZ4     -0.093000
     25 S1          5.3760   -1.8490    2.6550 s4        1 AZ4      1.582000
     26 O3          5.6240   -0.1950    2.3070 oh        1 AZ4     -0.658000
     27 N4          5.3360   -4.6500    2.3660 n2        1 AZ4     -0.228000
     28 N5         -3.0700   -4.6380    1.2410 n3        1 AZ4     -0.199000
     29 C17         1.7500   -8.5130    2.7150 c3        1 AZ4     -0.052000
     30 C18         2.9590   -8.7050    1.7400 c3        1 AZ4      0.386000
     31 F2          4.1730   -8.3560    2.2780 f         1 AZ4     -0.169333
     32 F3          3.1160  -10.0090    1.3440 f         1 AZ4     -0.169333
     33 F4          2.8840   -7.9860    0.5770 f         1 AZ4     -0.169333
     34 N7         -1.8090   -6.6980    1.7110 n3        1 AZ4     -0.113000
     35 H1          2.4450   -3.2080    0.9000 ho        1 AZ4      0.178000
     36 H2          3.0680    0.1950    2.5280 h1        1 AZ4      0.132000
     37 H3          1.0860   -2.1330    1.9620 hc        1 AZ4      0.100500
     38 H4          1.1410   -1.0690    3.4180 hc        1 AZ4      0.100500
     39 H5         -0.8870   -2.2360    0.9870 hn        1 AZ4      0.283500
     40 H6          3.4210   -1.6250    4.0280 h1        1 AZ4      0.136500
     41 H7          3.2720   -2.8840    2.7650 h1        1 AZ4      0.136500
     42 H8          4.5580   -4.5000    0.4740 h4        1 AZ4      0.131000
     43 H9          6.0600    0.2740    3.0200 ho        1 AZ4      0.252000
     44 H10         1.2290   -4.5210    2.5860 h4        1 AZ4      0.157000
     45 H11         4.8080   -6.2630    1.0710 h4        1 AZ4      0.131000
     46 H12        -3.0650   -3.5800    1.3030 hn        1 AZ4      0.304000
     47 H13        -4.9920   -4.8660    0.5870 ha        1 AZ4      0.078000
     48 H14         6.6680   -5.6610    5.3410 ha        1 AZ4      0.137000
     49 H15         6.5370   -3.9120    4.7180 ha        1 AZ4      0.137000
     50 H16         5.6140   -6.5650    3.3170 h4        1 AZ4      0.125000
     51 H17        -2.6470   -7.1990    1.4530 hn        1 AZ4      0.307000
     52 H18         4.5880    0.4800    0.4510 ho        1 AZ4      0.233000
     53 H19         0.7420    0.9570    2.0120 hc        1 AZ4      0.132000
     54 H20         0.7150   -0.0420    0.5080 hc        1 AZ4      0.132000
     55 H21        -1.4770    1.4530    2.6240 hn        1 AZ4      0.283500
     56 H22         0.8410   -9.0050    2.2800 h1        1 AZ4      0.153500
     57 H23         2.0280   -8.9580    3.7060 h1        1 AZ4      0.153500
     58 F1         -4.9800   -1.2180    2.2900 f         1 AZ4     -0.067000
     59 O1          3.6190    0.4050    0.2970 oh        1 AZ4     -0.181000
@<TRIPOS>BOND
     1    1   18 1   
     2    1   19 1   
     3    2    3 1   
     4    2    9 1   
     5    2   18 1   
     6    2   36 1   
     7    3   20 1   
     8    3   37 1   
     9    3   38 1   
    10    4   25 1   
    11    5   16 1   
    12    5   29 1   
    13    6   14 1   
    14    6   15 1   
    15    7    8 1   
    16    7   23 1   
    17    7   58 1   
    18    8   24 1   
    19    9   25 1   
    20    9   40 1   
    21    9   41 1   
    22   10   27 1   
    23   10   42 1   
    24   10   45 1   
    25   11   28 1   
    26   11   47 1   
    27   12   13 1   
    28   12   48 1   
    29   12   49 1   
    30   13   27 1   
    31   13   50 1   
    32   14   28 1   
    33   14   34 1   
    34   15   16 1   
    35   15   44 1   
    36   16   17 1   
    37   17   34 1   
    38   18   59 1   
    39   19   35 1   
    40   20   21 1   
    41   20   53 1   
    42   20   54 1   
    43   21   22 1   
    44   21   24 1   
    45   22   23 1   
    46   22   55 1   
    47   24   39 1   
    48   25   26 1   
    49   26   43 1   
    50   28   46 1   
    51   29   30 1   
    52   29   56 1   
    53   29   57 1   
    54   30   31 1   
    55   30   32 1   
    56   30   33 1   
    57   34   51 1   
    58   52   59 1   
@<TRIPOS>SUBSTRUCTURE
     1 AZ4         1 TEMP              0 ****  ****    0 ROOT
