@<TRIPOS>MOLECULE
AZ4
   60    57     1     0     0
SMALL
bcc


@<TRIPOS>ATOM
      1 C1         -1.1990   -2.4260    3.3830 c1        1 AZ4      0.171000
      2 C2          2.3630   -1.9030    1.2030 c1        1 AZ4     -0.345000
      3 C3          1.6860    4.9020   -0.6940 c3        1 AZ4     -0.223000
      4 O5         -0.1950   -9.1110    0.4980 os        1 AZ4     -0.152000
      5 N6          0.5790   -9.4440    4.0510 n3        1 AZ4     -0.160000
      6 C7          0.2820    1.9340    3.0830 c2        1 AZ4     -0.022000
      7 C8          0.8230    1.5090    1.8250 c1        1 AZ4     -0.186000
      8 C9          2.1830   -2.5180    2.5280 c3        1 AZ4     -0.843000
      9 C10         2.0010   -6.1220    7.2280 c2        1 AZ4     -0.190000
     10 C11         2.1340   -6.6180    5.9900 c2        1 AZ4     -0.107000
     11 C12         6.1600   -3.1970    0.3050 c2        1 AZ4     -0.350000
     12 C13         5.1150   -3.5960    0.9800 c1        1 AZ4      0.339000
     13 C14         1.1380   -8.1570    4.3330 cz        1 AZ4      0.233000
     14 C15         0.1590   -9.8160    2.8370 c1        1 AZ4     -0.013000
     15 C16         0.2800   -8.8570    1.7670 c2        1 AZ4     -0.077000
     16 C19         0.8230   -7.6060    2.0020 c2        1 AZ4      0.013000
     17 N1          1.9900   -0.7120    0.8580 n3        1 AZ4     -0.057000
     18 O2         -2.2660   -1.9500    3.4060 o         1 AZ4     -0.167000
     19 C4          0.2810    4.6060   -0.2340 c3        1 AZ4     -0.128000
     20 C5          0.2730    3.6820    0.9650 c2        1 AZ4      0.051000
     21 N2         -0.2350    4.0990    2.1380 n2        1 AZ4     -0.133000
     22 C6         -0.2330    3.2360    3.1920 c2        1 AZ4     -0.042000
     23 N3          0.8000    2.3920    0.8120 n3        1 AZ4     -0.120000
     24 S1          2.7550   -4.1030    2.2850 s6        1 AZ4      2.916000
     25 O3          1.8410   -4.8960    1.5440 o         1 AZ4     -0.997500
     26 N4          4.1700   -4.0180    1.6290 n2        1 AZ4     -0.840000
     27 N5          1.5720   -7.8560    5.6020 n3        1 AZ4     -0.238000
     28 C17        -0.2060  -10.4780    0.1050 c3        1 AZ4     -0.062000
     29 C18         1.1520  -10.8510   -0.5790 c3        1 AZ4      0.387000
     30 F2          1.4720  -10.0650   -1.6530 f         1 AZ4     -0.158667
     31 F3          2.2390  -10.7720    0.2540 f         1 AZ4     -0.158667
     32 F4          1.1570  -12.1360   -1.0530 f         1 AZ4     -0.158667
     33 N7          1.2330   -7.2610    3.2810 n3        1 AZ4     -0.172000
     34 H1          0.9440   -6.8110    1.2260 h4        1 AZ4      0.261000
     35 H2          2.2960    5.3330    0.1370 hc        1 AZ4      0.092000
     36 H3          1.6520    5.6490   -1.5260 hc        1 AZ4      0.092000
     37 H4          2.1980    3.9850   -1.0730 hc        1 AZ4      0.092000
     38 H5          1.1810    2.1130   -0.0750 hn        1 AZ4      0.284000
     39 H6          2.7200   -1.9560    3.3370 h1        1 AZ4      0.178500
     40 H7          1.0990   -2.5290    2.8480 h1        1 AZ4      0.178500
     41 H8         -0.6630    3.6300    4.1320 h4        1 AZ4      0.197000
     42 H9          2.7430   -6.1000    5.2130 h4        1 AZ4      0.218000
     43 H10         2.4980   -5.1760    7.4910 ha        1 AZ4      0.148000
     44 H11         1.4290   -6.5960    8.0380 ha        1 AZ4      0.148000
     45 H12         4.6970   -6.4110    3.8830 ha        1 AZ4      0.001500
     46 H13         1.3630   -8.5070    6.3340 hn        1 AZ4      0.264000
     47 H14         4.2530   -6.9150    3.7880 ha        1 AZ4      0.001500
     48 H15         6.2310   -3.3490   -0.7810 ha        1 AZ4      0.190500
     49 H16         0.5050  -10.1070    4.8000 hn        1 AZ4      0.296000
     50 H17         1.6530   -6.3430    3.4190 hn        1 AZ4      0.334000
     51 H18         2.6170   -1.0050   -0.9040 ho        1 AZ4      0.238000
     52 H19        -0.2400    5.5670    0.0320 hc        1 AZ4      0.128000
     53 H20        -0.3100    4.1220   -1.0580 hc        1 AZ4      0.128000
     54 H21         7.0130   -2.7110    0.7950 ha        1 AZ4      0.190500
     55 H22        -1.0210  -10.5300   -0.6680 h1        1 AZ4      0.159000
     56 H23        -0.3930  -11.1780    0.9580 h1        1 AZ4      0.159000
     57 O1          2.2110   -0.2810   -0.3820 oh        1 AZ4     -0.247000
     58 H111        1.4970    0.0910    1.4170 hn        1 AZ4      0.333000
     59 F1          0.2810    1.0820    4.1260 f         1 AZ4     -0.078000
     60 O4          2.8500   -4.7260    3.5780 o         1 AZ4     -0.997500
@<TRIPOS>BOND
     1    1   18 1   
     2    2    8 1   
     3    2   17 1   
     4    3   19 1   
     5    3   35 1   
     6    3   36 1   
     7    3   37 1   
     8    4   15 1   
     9    4   28 1   
    10    5   13 1   
    11    5   14 1   
    12    5   49 1   
    13    6    7 1   
    14    6   22 1   
    15    6   59 1   
    16    7   23 1   
    17    8   24 1   
    18    8   39 1   
    19    8   40 1   
    20    9   10 1   
    21    9   43 1   
    22    9   44 1   
    23   10   27 1   
    24   10   42 1   
    25   11   12 1   
    26   11   48 1   
    27   11   54 1   
    28   12   26 1   
    29   13   27 1   
    30   13   33 1   
    31   14   15 1   
    32   15   16 1   
    33   16   33 1   
    34   16   34 1   
    35   17   57 1   
    36   17   58 1   
    37   19   20 1   
    38   19   52 1   
    39   19   53 1   
    40   20   21 1   
    41   20   23 1   
    42   21   22 1   
    43   22   41 1   
    44   23   38 1   
    45   24   25 1   
    46   24   26 1   
    47   24   60 1   
    48   27   46 1   
    49   28   29 1   
    50   28   55 1   
    51   28   56 1   
    52   29   30 1   
    53   29   31 1   
    54   29   32 1   
    55   33   50 1   
    56   45   47 1   
    57   51   57 1   
@<TRIPOS>SUBSTRUCTURE
     1 AZ4         1 TEMP              0 ****  ****    0 ROOT
