@<TRIPOS>MOLECULE
AZ5
   38    39     1     0     0
SMALL
bcc


@<TRIPOS>ATOM
      1 C3          1.3630   -1.2400    0.8260 c3        1 AZ5     -0.108000
      2 C19        -4.1210   -0.4090   -4.3620 c1        1 AZ5     -0.066000
      3 C21        -3.2710   -0.2260   -6.7410 c1        1 AZ5      0.007000
      4 C10        -3.8040    0.1290   -0.3830 c1        1 AZ5     -0.080000
      5 C20        -3.2270   -1.0200   -5.4180 c3        1 AZ5     -0.079000
      6 C9         -2.9850    0.1030    0.7850 c2        1 AZ5     -0.267000
      7 C2          2.6770   -1.4280    1.5630 c2        1 AZ5     -0.073000
      8 C4          0.4920   -0.6910    1.9680 c2        1 AZ5      0.021000
      9 C8         -1.6330   -0.3270    0.7210 c2        1 AZ5      0.165000
     10 C17        -5.3570    0.7100   -5.9780 c2        1 AZ5      0.083000
     11 C12        -1.9060   -0.6820   -1.5670 c2        1 AZ5      0.010000
     12 C1          3.8040   -1.9350    1.0580 c2        1 AZ5     -0.253000
     13 C16        -6.2350    2.5330   -7.3390 c1        1 AZ5     -0.048000
     14 C15        -6.6310    1.4520   -6.4220 c3        1 AZ5     -0.070000
     15 N18        -5.2450    0.1990   -4.7510 n2        1 AZ5     -0.216000
     16 N22        -4.2850    0.6150   -6.9150 n7        1 AZ5     -0.217000
     17 N11        -3.2280   -0.2730   -1.5390 n7        1 AZ5     -0.179000
     18 N13        -1.1020   -0.7260   -0.5100 n2        1 AZ5     -0.226000
     19 N5          1.1920   -0.5610    3.1080 n2        1 AZ5     -0.130000
     20 N6          2.4990   -0.8770    2.8940 n7        1 AZ5     -0.173000
     21 N7         -0.8570   -0.3700    1.8730 n7        1 AZ5     -0.234000
     22 N14        -7.5830    1.7660   -5.3880 n8        1 AZ5     -0.335000
     23 H3          1.4710   -0.4980   -0.0030 hc        1 AZ5      0.134500
     24 H19        -3.6280   -2.0490   -5.7000 h1        1 AZ5      0.157000
     25 H21        -4.3350    1.2080   -7.7290 hn        1 AZ5      0.302000
     26 H10        -3.7640   -0.2730   -2.4040 hn        1 AZ5      0.310000
     27 H11C        3.8590   -2.2570    0.0110 ha        1 AZ5      0.125000
     28 H12C        0.9630   -2.2000    0.4240 hc        1 AZ5      0.134500
     29 H13C        4.7250   -2.0470    1.6420 ha        1 AZ5      0.125000
     30 H5          2.8520   -1.4690    3.6310 hn        1 AZ5      0.199000
     31 H7         -1.2970   -0.0150    2.7000 hn        1 AZ5      0.265000
     32 H15        -7.1970    2.3870   -4.7040 hn        1 AZ5      0.176500
     33 H14        -1.4720   -0.9990   -2.5430 h5        1 AZ5      0.195000
     34 H161       -7.1500    0.7250   -7.1510 h1        1 AZ5      0.183000
     35 H162       -7.9240    0.9420   -4.9310 hn        1 AZ5      0.176500
     36 H163       -6.8620    3.4330   -7.3820 ha        1 AZ5      0.092000
     37 Cl2        -3.6960    0.6060    2.2360 cl        1 AZ5      0.008000
     38 F23        -1.9350   -1.1760   -4.9580 f         1 AZ5     -0.117000
@<TRIPOS>BOND
     1    1    7 1   
     2    1    8 1   
     3    1   23 1   
     4    1   28 1   
     5    2    5 1   
     6    2   15 1   
     7    3    5 1   
     8    3   16 1   
     9    4    6 1   
    10    4   17 1   
    11    5   24 1   
    12    5   38 1   
    13    6    9 1   
    14    6   37 1   
    15    7   12 1   
    16    7   20 1   
    17    8   19 1   
    18    8   21 1   
    19    9   18 1   
    20    9   21 1   
    21   10   14 1   
    22   10   15 1   
    23   10   16 1   
    24   11   17 1   
    25   11   18 1   
    26   11   33 1   
    27   12   27 1   
    28   12   29 1   
    29   13   14 1   
    30   13   36 1   
    31   14   22 1   
    32   14   34 1   
    33   16   25 1   
    34   17   26 1   
    35   19   20 1   
    36   20   30 1   
    37   21   31 1   
    38   22   32 1   
    39   22   35 1   
@<TRIPOS>SUBSTRUCTURE
     1 AZ5         1 TEMP              0 ****  ****    0 ROOT
