@<TRIPOS>MOLECULE
AZ5
   38    39     1     0     0
SMALL
bcc


@<TRIPOS>ATOM
      1 C3         -0.6790    0.1970   -1.2750 c2        1 AZ5     -0.231000
      2 C19        -3.0140   -0.9450   -6.7220 c1        1 AZ5     -0.002000
      3 C21        -3.1200   -1.6630   -4.2900 c1        1 AZ5     -0.114000
      4 C10        -5.0560   -1.5420    1.5260 c1        1 AZ5     -0.052000
      5 C20        -2.9090   -2.1160   -5.7330 c3        1 AZ5     -0.055000
      6 C9         -4.2060   -0.4080    1.5220 c2        1 AZ5     -0.304000
      7 C2          0.6750    0.5570   -1.3910 c2        1 AZ5     -0.059000
      8 C4         -1.1510    0.8890   -0.0860 c2        1 AZ5     -0.010000
      9 C8         -3.2960   -0.2000    0.4520 c2        1 AZ5      0.190000
     10 C17        -2.9620    0.6330   -4.9970 c2        1 AZ5      0.130000
     11 C12        -4.1500   -2.1110   -0.6410 c2        1 AZ5      0.189000
     12 C1          1.6620    0.1520   -2.4040 c3        1 AZ5     -0.165000
     13 C16        -2.5250    2.4090   -3.3200 c2        1 AZ5     -0.152000
     14 C15        -2.8580    2.0290   -4.5560 c2        1 AZ5     -0.169000
     15 N18        -2.8270    0.2870   -6.2840 n2        1 AZ5     -0.209000
     16 N22        -3.2870   -0.3780   -4.0290 n3        1 AZ5     -0.189000
     17 N11        -5.0000   -2.3730    0.4640 n3        1 AZ5     -0.197000
     18 N13        -3.2870   -1.0530   -0.6380 n2        1 AZ5     -0.295000
     19 N5         -0.1070    1.6230    0.4620 n2        1 AZ5     -0.120000
     20 N6          0.9440    1.4210   -0.3240 na        1 AZ5     -0.152000
     21 N7         -2.4510    0.9220    0.4440 nh        1 AZ5     -0.206000
     22 N14        -4.2410   -2.8930   -1.7860 n3        1 AZ5     -0.365000
     23 H3         -1.2290   -0.4800   -1.9180 ha        1 AZ5      0.181000
     24 H19        -3.8180   -2.7510   -5.9940 h1        1 AZ5      0.160000
     25 H21        -3.4950   -0.0820   -3.0930 hn        1 AZ5      0.283000
     26 H10        -5.5900   -3.1760    0.4600 hn        1 AZ5      0.259000
     27 H11C        2.0220    1.0360   -2.9880 hc        1 AZ5      0.097333
     28 H12C        1.1920   -0.5760   -3.1110 hc        1 AZ5      0.097333
     29 H13C        2.5470   -0.3400   -1.9260 hc        1 AZ5      0.097333
     30 H5          1.8110    1.8550   -0.1090 hn        1 AZ5      0.275000
     31 H7         -2.5350    1.4750    1.2810 hn        1 AZ5      0.244000
     32 H15        -4.5600   -3.8260   -1.6820 hn        1 AZ5      0.248000
     33 H14        -3.6010   -2.7100   -2.5430 hn        1 AZ5      0.248000
     34 H161       -3.0570    2.7700   -5.3520 ha        1 AZ5      0.171000
     35 H162       -2.2740    1.7220   -2.4960 ha        1 AZ5      0.141000
     36 H163       -2.4560    3.4760   -3.0590 ha        1 AZ5      0.141000
     37 CL2        -4.3010    0.6470    2.8410 cl        1 AZ5      0.012000
     38 F23        -1.7780   -2.8940   -5.8410 f         1 AZ5     -0.120000
@<TRIPOS>BOND
     1    1    7 1   
     2    1    8 1   
     3    1   23 1   
     4    2    5 1   
     5    2   15 1   
     6    3    5 1   
     7    3   16 1   
     8    4    6 1   
     9    4   17 1   
    10    5   24 1   
    11    5   38 1   
    12    6    9 1   
    13    6   37 1   
    14    7   12 1   
    15    7   20 1   
    16    8   19 1   
    17    8   21 1   
    18    9   18 1   
    19    9   21 1   
    20   10   14 1   
    21   10   15 1   
    22   10   16 1   
    23   11   17 1   
    24   11   18 1   
    25   11   22 1   
    26   12   27 1   
    27   12   28 1   
    28   12   29 1   
    29   13   14 1   
    30   13   35 1   
    31   13   36 1   
    32   14   34 1   
    33   16   25 1   
    34   17   26 1   
    35   19   20 1   
    36   20   30 1   
    37   21   31 1   
    38   22   32 1   
    39   22   33 1   
@<TRIPOS>SUBSTRUCTURE
     1 AZ5         1 TEMP              0 ****  ****    0 ROOT
