@<TRIPOS>MOLECULE
AZ5
   38    40     1     0     0
SMALL
bcc


@<TRIPOS>ATOM
      1 C3          2.4610   -2.5500    0.4920 cc        1 AZ5     -0.250300
      2 C19        -5.6710    0.9090    0.7640 ca        1 AZ5      0.404200
      3 C21        -4.9900   -1.0550   -0.4750 ca        1 AZ5      0.404200
      4 C10         1.5620    2.9380    0.3470 ca        1 AZ5      0.501200
      5 C20        -5.9840   -0.3940    0.2920 ca        1 AZ5     -0.108700
      6 C9          2.6690    2.0790    0.4480 ca        1 AZ5     -0.342200
      7 C2          2.8670   -3.7600   -0.1920 cc        1 AZ5      0.314600
      8 C4          3.3810   -1.5690    0.0700 cd        1 AZ5      0.083300
      9 C8          2.4240    0.6740    0.2800 ca        1 AZ5      0.728200
     10 C17        -3.5960    0.7770   -0.2450 ca        1 AZ5      0.621300
     11 C12         0.1430    1.1430   -0.0270 ca        1 AZ5      0.906900
     12 C1          2.1870   -5.0630   -0.0740 c3        1 AZ5     -0.122400
     13 C16        -2.2710    1.8350   -2.0540 c3        1 AZ5     -0.125100
     14 C15        -2.2520    1.4700   -0.5690 c3        1 AZ5      0.191200
     15 N18        -4.4910    1.4920    0.5040 nb        1 AZ5     -0.668500
     16 N22        -3.8070   -0.4800   -0.7460 nb        1 AZ5     -0.668500
     17 N11         0.3150    2.5190    0.1080 nb        1 AZ5     -0.764000
     18 N13         1.1680    0.2090    0.0210 nb        1 AZ5     -0.784000
     19 N5          4.2350   -2.2150   -0.8750 na        1 AZ5     -0.035600
     20 N6          3.9650   -3.5150   -0.9660 nd        1 AZ5     -0.513800
     21 N7          3.4870   -0.2250    0.4370 nh        1 AZ5     -0.703300
     22 N14        -1.1510    0.6190   -0.1600 nh        1 AZ5     -0.821900
     23 H3          1.6220   -2.4250    1.1670 ha        1 AZ5      0.180000
     24 H19        -6.3940    1.4860    1.3690 h4        1 AZ5      0.046600
     25 H21        -5.1590   -2.0710   -0.8770 h4        1 AZ5      0.046600
     26 H10         1.6850    4.0330    0.4590 h4        1 AZ5      0.040100
     27 H11C        1.5600   -5.2530   -0.9820 hc        1 AZ5      0.050033
     28 H12C        2.9230   -5.8990    0.0260 hc        1 AZ5      0.050033
     29 H13C        1.5230   -5.0590    0.8250 hc        1 AZ5      0.050033
     30 H5          5.1260   -1.8870   -1.1710 hn        1 AZ5      0.307700
     31 H7          4.3980    0.1830    0.3910 hn        1 AZ5      0.444800
     32 H15        -2.2010    2.4280    0.0350 h1        1 AZ5      0.116700
     33 H14        -1.1950   -0.3270   -0.4830 hn        1 AZ5      0.446800
     34 H161       -2.2870    0.9250   -2.7000 hc        1 AZ5      0.054367
     35 H162       -3.1800    2.4450   -2.2690 hc        1 AZ5      0.054367
     36 H163       -1.3670    2.4400   -2.3070 hc        1 AZ5      0.054367
     37 CL2         4.2100    2.7030    0.7520 cl        1 AZ5     -0.074400
     38 F23        -7.1690   -0.9740    0.5600 f         1 AZ5     -0.115900
@<TRIPOS>BOND
     1    1    7 1   
     2    1    8 2   
     3    1   23 1   
     4    2    5 ar  
     5    2   15 ar  
     6    2   24 1   
     7    3    5 ar  
     8    3   16 ar  
     9    3   25 1   
    10    4    6 ar  
    11    4   17 ar  
    12    4   26 1   
    13    5   38 1   
    14    6    9 ar  
    15    6   37 1   
    16    7   12 1   
    17    7   20 2   
    18    8   19 1   
    19    8   21 1   
    20    9   18 ar  
    21    9   21 1   
    22   10   14 1   
    23   10   15 ar  
    24   10   16 ar  
    25   11   17 ar  
    26   11   18 ar  
    27   11   22 1   
    28   12   27 1   
    29   12   28 1   
    30   12   29 1   
    31   13   14 1   
    32   13   34 1   
    33   13   35 1   
    34   13   36 1   
    35   14   22 1   
    36   14   32 1   
    37   19   20 1   
    38   19   30 1   
    39   21   31 1   
    40   22   33 1   
@<TRIPOS>SUBSTRUCTURE
     1 AZ5         1 TEMP              0 ****  ****    0 ROOT
