@<TRIPOS>MOLECULE
AZ5
   40    39     1     0     0
SMALL
bcc


@<TRIPOS>ATOM
      1 C3         79.1430  119.6800  434.3270 c2        1 AZ5     -0.310000
      2 C19      -112.8470 -160.8000 -593.2150 c1        1 AZ5      0.012000
      3 C21      -110.7270 -161.1440 -592.4010 c1        1 AZ5      0.032000
      4 C10        77.9410  120.0180  439.0060 c1        1 AZ5     -0.144000
      5 C20      -112.0880 -160.4610 -591.9850 c3        1 AZ5      0.209000
      6 C9         79.0700  120.3660  439.2160 c1        1 AZ5     -0.099000
      7 C2         78.6590  120.2690  433.1690 c2        1 AZ5     -0.054000
      8 C4         78.2600  119.2310  435.4150 c2        1 AZ5      0.160000
      9 C8         78.0100  117.2740  436.9630 c2        1 AZ5      0.269000
     10 C17      -111.4480 -161.9630 -594.5820 c2        1 AZ5     -0.269000
     11 C12        76.2420  118.5690  438.1220 c2        1 AZ5      0.303000
     12 C1         79.7060  120.6980  432.1470 c3        1 AZ5     -0.159000
     13 C16      -109.7820 -163.1980 -595.9680 c3        1 AZ5     -0.243000
     14 C15      -111.1630 -162.6400 -595.7830 c2        1 AZ5      0.238000
     15 N18      -112.7050 -161.3880 -594.2800 n2        1 AZ5      0.002000
     16 N22      -110.4700 -161.7790 -593.4970 n3        1 AZ5     -0.093000
     17 N11        76.6540  119.6620  438.8080 n3        1 AZ5     -0.106000
     18 N13        76.9480  117.5380  437.6790 n2        1 AZ5     -0.330000
     19 N5         77.2540  119.8740  435.9210 n2        1 AZ5     -0.317000
     20 N6         77.3930  120.4390  432.8770 n1        1 AZ5      0.072000
     21 N7         78.6240  117.9550  435.9570 n3        1 AZ5     -0.274000
     22 N14      -112.0790 -162.7950 -596.7530 n3        1 AZ5     -0.286000
     23 H3         80.2150  119.4440  434.3920 ha        1 AZ5      0.169000
     24 H19      -112.4990 -160.9840 -591.0670 h1        1 AZ5      0.198000
     25 H21      -109.5660 -162.1970 -593.6480 hn        1 AZ5      0.313000
     26 H10        75.9650  120.2720  439.2170 hn        1 AZ5      0.293000
     27 H11C       80.6620  120.9160  432.6840 hc        1 AZ5      0.123333
     28 H12C       79.3880  121.6140  431.5930 hc        1 AZ5      0.123333
     29 H13C       79.8550  119.8600  431.4220 hc        1 AZ5      0.123333
     30 H5         77.0590  120.7640  435.5140 hn        1 AZ5      0.202000
     31 H7         79.3470  117.4770  435.4530 hn        1 AZ5      0.275000
     32 H15      -111.8390 -163.2770 -597.5920 hn        1 AZ5      0.270000
     33 H14        75.1260  118.4350  438.0790 h5        1 AZ5      0.219000
     34 H161     -109.6560 -163.7120 -596.9560 hc        1 AZ5      0.135333
     35 H162     -109.0290 -162.3700 -595.9200 hc        1 AZ5      0.135333
     36 H163     -109.5660 -163.9510 -595.1670 hc        1 AZ5      0.135333
     37 H72        78.4220  116.2400  437.1400 h5        1 AZ5      0.211000
     38 H142     -113.0050 -162.4380 -596.6700 hn        1 AZ5      0.270000
     39 CL2        80.5580  120.8240  439.5020 cl        1 AZ5      0.249000
     40 F23      -111.9360 -159.1320 -591.7400 f         1 AZ5     -0.057000
@<TRIPOS>BOND
     1    1    7 1   
     2    1    8 1   
     3    1   23 1   
     4    2    5 1   
     5    2   15 1   
     6    3    5 1   
     7    3   16 1   
     8    4    6 1   
     9    4   17 1   
    10    5   24 1   
    11    5   40 1   
    12    6   39 1   
    13    7   12 1   
    14    7   20 1   
    15    8   19 1   
    16    8   21 1   
    17    9   18 1   
    18    9   21 1   
    19    9   37 1   
    20   10   14 1   
    21   10   15 1   
    22   10   16 1   
    23   11   17 1   
    24   11   18 1   
    25   11   33 1   
    26   12   27 1   
    27   12   28 1   
    28   12   29 1   
    29   13   14 1   
    30   13   34 1   
    31   13   35 1   
    32   13   36 1   
    33   14   22 1   
    34   16   25 1   
    35   17   26 1   
    36   19   30 1   
    37   21   31 1   
    38   22   32 1   
    39   22   38 1   
@<TRIPOS>SUBSTRUCTURE
     1 AZ5         1 TEMP              0 ****  ****    0 ROOT
