@<TRIPOS>MOLECULE
AZ5
   38    30     1     0     0
SMALL
bcc


@<TRIPOS>ATOM
      1 C3          3.4750   -1.7420    2.6580 c1        1 AZ5     -0.266000
      2 C19        -4.5200   -0.6210   -3.3210 c1        1 AZ5     -0.061000
      3 C21        -2.7180    0.0400   -4.6990 c1        1 AZ5     -0.060000
      4 C10        -1.1610    0.5630    2.7280 c1        1 AZ5      0.040000
      5 C20        -3.8780   -0.6560   -4.5250 c1        1 AZ5     -0.011000
      6 C9          0.1750    0.3030    2.8330 c1        1 AZ5     -0.292000
      7 C2          4.6140   -2.2830    2.1360 c1        1 AZ5     -0.025000
      8 C4          3.2100   -0.5860    1.9830 c1        1 AZ5     -0.025000
      9 C8          0.9780    0.4120    1.7350 c1        1 AZ5      0.213000
     10 C17        -2.8500    0.7930   -2.4860 c1        1 AZ5      0.000000
     11 C12        -0.8790    1.0340    0.4520 c1        1 AZ5      0.198000
     12 C1          5.2440   -3.5950    2.5460 c2        1 AZ5     -0.144000
     13 C16        -2.7490    3.0900   -1.5860 c3        1 AZ5     -0.243000
     14 C15        -2.5380    1.6270   -1.2640 c2        1 AZ5      0.091000
     15 N18        -4.0090    0.0980   -2.3110 n2        1 AZ5     -0.134000
     16 N22        -2.2090    0.7580   -3.6880 n1        1 AZ5     -0.152000
     17 N11        -1.6830    0.9260    1.5470 n1        1 AZ5     -0.239000
     18 N13         0.4540    0.7740    0.5550 n1        1 AZ5     -0.297000
     19 N5          4.1750   -0.4140    1.0560 n2        1 AZ5     -0.113000
     20 N6          5.0470   -1.4690    1.1510 n2        1 AZ5     -0.113000
     21 N7          2.3210    0.5010    2.1860 n2        1 AZ5     -0.229000
     22 N14        -1.1870    1.4170   -0.8800 n3        1 AZ5     -0.269000
     23 F23        -4.3020   -1.4690   -5.5010 f         1 AZ5     -0.080000
     24 CL2         0.4360    0.2110    4.5550 cl        1 AZ5      0.009000
     25 H3          2.9420   -2.1170    3.3850 DU        1 AZ5      0.226500
     26 H19        -5.3500   -1.1190   -3.1950 ha        1 AZ5      0.184000
     27 H21        -2.2580    0.0150   -5.5600 ha        1 AZ5      0.184000
     28 H10        -1.7370    0.4860    3.5130 ha        1 AZ5      0.178000
     29 H11C        5.4050   -3.5920    3.5130 ha        1 AZ5      0.088667
     30 H12C        4.6400   -4.3330    2.3180 ha        1 AZ5      0.088667
     31 H13C        6.0950   -3.7110    2.0740 ha        1 AZ5      0.088667
     32 H5          4.2370    0.2810    0.4690 DU        1 AZ5      0.226500
     33 H7          2.6120    1.2560    2.6060 hn        1 AZ5      0.259000
     34 H15        -3.1300    1.3660   -0.5310 h4        1 AZ5      0.157000
     35 H14        -0.5160    1.5360   -1.4870 hn        1 AZ5      0.241000
     36 H161       -3.0850    3.1780   -2.5020 hc        1 AZ5      0.094000
     37 H162       -1.8980    3.5690   -1.5020 hc        1 AZ5      0.094000
     38 H163       -3.4020    3.4710   -0.9610 hc        1 AZ5      0.094000
@<TRIPOS>BOND
     1    1    7 1   
     2    1    8 1   
     3    2   15 1   
     4    2   26 1   
     5    3    5 1   
     6    3   27 1   
     7    4   17 1   
     8    4   28 1   
     9    5   23 1   
    10    6    9 1   
    11    6   24 1   
    12    7   20 1   
    13    8   19 1   
    14    9   21 1   
    15   10   15 1   
    16   10   16 1   
    17   11   18 1   
    18   11   22 1   
    19   12   29 1   
    20   12   30 1   
    21   12   31 1   
    22   13   14 1   
    23   13   36 1   
    24   13   37 1   
    25   13   38 1   
    26   14   22 1   
    27   14   34 1   
    28   19   20 1   
    29   21   33 1   
    30   22   35 1   
@<TRIPOS>SUBSTRUCTURE
     1 AZ5         1 TEMP              0 ****  ****    0 ROOT
