@<TRIPOS>MOLECULE
AZ6
   57    60     1     0     0
SMALL
bcc


@<TRIPOS>ATOM
      1 C1          1.2020    0.5750   -0.4620 c3        1 AZ6     -0.103100
      2 C2         -0.2340    0.1790   -0.1280 c3        1 AZ6      0.069400
      3 C3         -0.4010   -0.0320    1.3810 c3        1 AZ6     -0.333600
      4 N6         -0.7270   -0.9280   -0.9630 ns        1 AZ6     -0.543900
      5 C7         -1.3360   -2.1600    3.9330 c3        1 AZ6      0.212800
      6 C8         -0.4220   -3.1800    7.4870 ca        1 AZ6      0.831900
      7 C9         -1.3480   -4.8130    8.8690 ca        1 AZ6      0.423700
      8 C10        -0.4480   -4.4550    9.9060 ca        1 AZ6     -0.157500
      9 C11         0.1440   -4.5880   12.1950 c3        1 AZ6      0.173700
     10 C12        -0.2400   -5.3630   13.4120 ca        1 AZ6     -0.100300
     11 C13        -0.3060   -4.7050   14.6460 ca        1 AZ6     -0.100000
     12 C14        -0.6250   -5.4160   15.8010 ca        1 AZ6     -0.134000
     13 C15        -0.8890   -6.7830   15.7370 ca        1 AZ6     -0.085000
     14 C16        -0.8310   -7.4430   14.5010 ca        1 AZ6     -0.018000
     15 C19         0.4710   -3.4260    9.6250 ca        1 AZ6      0.423700
     16 C20        -1.9150   -0.5340   -1.6260 c         1 AZ6      0.791500
     17 C21        -1.1810    1.3720   -0.5260 c         1 AZ6      0.694500
     18 S1          0.4410   -1.3880    2.0670 s6        1 AZ6      1.455900
     19 O1          0.0330   -2.5270    1.3390 o         1 AZ6     -0.647300
     20 O2          1.8170   -1.0920    2.0830 o         1 AZ6     -0.647300
     21 N1         -0.1470   -1.4300    3.5720 n3        1 AZ6     -0.826500
     22 C4          0.4840   -0.7670    4.6840 c3        1 AZ6      0.212800
     23 C5          0.6970   -1.6780    5.9130 c3        1 AZ6      0.182300
     24 N2         -0.4940   -2.4330    6.2730 nh        1 AZ6     -0.716300
     25 C6         -1.1510   -3.0890    5.1520 c3        1 AZ6      0.182300
     26 N3         -1.3430   -4.2090    7.6790 nb        1 AZ6     -0.714000
     27 O3         -0.5270   -5.1830   11.0710 os        1 AZ6     -0.310900
     28 C17        -1.1020   -8.8360   14.4270 cg        1 AZ6      0.231800
     29 N4         -1.3250   -9.9760   14.3670 n1        1 AZ6     -0.356800
     30 C18        -0.5030   -6.7330   13.3370 ca        1 AZ6     -0.063000
     31 N5          0.5050   -2.7920    8.4430 nb        1 AZ6     -0.714000
     32 N7         -2.1510    0.8530   -1.3900 ns        1 AZ6     -0.611500
     33 H1          1.3310    0.7090   -1.5630 hc        1 AZ6      0.068367
     34 H2          1.4340    1.5420    0.0480 hc        1 AZ6      0.068367
     35 H3          1.9210   -0.2050   -0.1100 hc        1 AZ6      0.068367
     36 H4         -0.0590    0.9270    1.8610 h1        1 AZ6      0.124200
     37 H5         -1.5000   -0.1000    1.6020 h1        1 AZ6      0.124200
     38 H6         -0.6340   -1.8700   -0.6500 hn        1 AZ6      0.359500
     39 H7         -2.1620   -1.4250    4.1610 h1        1 AZ6      0.065950
     40 H8         -1.6570   -2.8070    3.0650 h1        1 AZ6      0.065950
     41 H9         -2.0840   -5.6250    9.0130 h4        1 AZ6      0.038600
     42 H10        -0.1570   -3.5110   12.2900 h1        1 AZ6      0.052200
     43 H11         1.2540   -4.6580   12.0270 h1        1 AZ6      0.052200
     44 H12        -0.1060   -3.6240   14.7050 ha        1 AZ6      0.138000
     45 H13        -0.6730   -4.8960   16.7700 ha        1 AZ6      0.143000
     46 H14        -1.1440   -7.3430   16.6490 ha        1 AZ6      0.148000
     47 H15         1.2190   -3.0880   10.3650 h4        1 AZ6      0.038600
     48 H16         1.5000   -0.3870    4.3680 h1        1 AZ6      0.065950
     49 H17        -0.1500    0.1140    4.9940 h1        1 AZ6      0.065950
     50 H18         1.5660   -2.3680    5.7130 h1        1 AZ6      0.067200
     51 H19         0.9750   -0.9970    6.7680 h1        1 AZ6      0.067200
     52 H20        -2.1850   -3.4090    5.4670 h1        1 AZ6      0.067200
     53 H21        -0.5780   -4.0070    4.8320 h1        1 AZ6      0.067200
     54 H22        -0.4620   -7.2460   12.3630 ha        1 AZ6      0.161000
     55 H23        -2.8420    1.3720   -1.8670 hn        1 AZ6      0.359500
     56 O4         -2.6340   -1.2510   -2.3390 o         1 AZ6     -0.601500
     57 O5         -1.0970    2.5390   -0.1400 o         1 AZ6     -0.578500
@<TRIPOS>BOND
     1    1    2 1   
     2    1   33 1   
     3    1   34 1   
     4    1   35 1   
     5    2    3 1   
     6    2    4 1   
     7    2   17 1   
     8    3   18 1   
     9    3   36 1   
    10    3   37 1   
    11    4   16 1   
    12    4   38 1   
    13    5   21 1   
    14    5   25 1   
    15    5   39 1   
    16    5   40 1   
    17    6   24 1   
    18    6   26 ar  
    19    6   31 ar  
    20    7    8 ar  
    21    7   26 ar  
    22    7   41 1   
    23    8   15 ar  
    24    8   27 1   
    25    9   10 1   
    26    9   27 1   
    27    9   42 1   
    28    9   43 1   
    29   10   11 ar  
    30   10   30 ar  
    31   11   12 ar  
    32   11   44 1   
    33   12   13 ar  
    34   12   45 1   
    35   13   14 ar  
    36   13   46 1   
    37   14   28 1   
    38   14   30 ar  
    39   15   31 ar  
    40   15   47 1   
    41   16   32 1   
    42   16   56 2   
    43   17   32 1   
    44   17   57 2   
    45   18   19 2   
    46   18   20 2   
    47   18   21 1   
    48   21   22 1   
    49   22   23 1   
    50   22   48 1   
    51   22   49 1   
    52   23   24 1   
    53   23   50 1   
    54   23   51 1   
    55   24   25 1   
    56   25   52 1   
    57   25   53 1   
    58   28   29 3   
    59   30   54 1   
    60   32   55 1   
@<TRIPOS>SUBSTRUCTURE
     1 AZ6         1 TEMP              0 ****  ****    0 ROOT
