@<TRIPOS>MOLECULE
AZ7
   36    38     1     0     0
SMALL
bcc


@<TRIPOS>ATOM
      1 CL6         0.8380    1.6650    1.4750 cl        1 AZ7     -0.132400
      2 C5          2.0680    0.8510    0.6080 ca        1 AZ7     -0.002600
      3 C6          2.2340   -0.5300    0.8350 ca        1 AZ7     -0.136000
      4 C1          3.2180   -1.2410    0.1600 ca        1 AZ7      0.033400
      5 CL5         3.4280   -2.9000    0.4230 cl        1 AZ7     -0.064400
      6 C4          2.8540    1.5710   -0.2810 ca        1 AZ7     -0.081000
      7 C3          3.8540    0.8760   -0.9770 ca        1 AZ7      0.075400
      8 N9          4.7920    1.3120   -1.9200 nc        1 AZ7     -0.615100
      9 C8          5.5110    0.2010   -2.2540 cd        1 AZ7      0.427800
     10 N7          5.0920   -0.9480   -1.5630 na        1 AZ7     -0.233300
     11 C2          4.0370   -0.5530   -0.7500 ca        1 AZ7     -0.080200
     12 C10         6.6400    0.2410   -3.2370 c3        1 AZ7     -0.091700
     13 C11         7.4020   -1.0650   -3.4060 c3        1 AZ7     -0.020400
     14 C19         6.5550   -2.1410   -4.0830 c3        1 AZ7     -0.211400
     15 C20         6.6800   -3.4700   -3.3170 c         1 AZ7      0.905600
     16 O22         6.1130   -3.5560   -2.1820 o         1 AZ7     -0.832300
     17 O21         7.3510   -4.4040   -3.8310 o         1 AZ7     -0.832300
     18 C12         8.6910   -0.8820   -4.1540 ca        1 AZ7     -0.056300
     19 C17         9.4890   -2.0240   -4.3540 ca        1 AZ7     -0.123500
     20 C16        10.7130   -1.9320   -5.0070 ca        1 AZ7     -0.133500
     21 C15        11.1510   -0.6890   -5.4770 ca        1 AZ7      0.004400
     22 CL9        12.6570   -0.5650   -6.2730 cl        1 AZ7     -0.135400
     23 C14        10.3640    0.4490   -5.3070 ca        1 AZ7     -0.133500
     24 C13         9.1360    0.3450   -4.6500 ca        1 AZ7     -0.123500
     25 H6          1.5780   -1.0450    1.5520 ha        1 AZ7      0.147000
     26 H4          2.7080    2.6480   -0.4430 ha        1 AZ7      0.150000
     27 H7          5.4360   -1.8980   -1.6970 hn        1 AZ7      0.389700
     28 H101        7.3470    1.0400   -2.8780 hc        1 AZ7      0.064200
     29 H102        6.2240    0.5650   -4.2290 hc        1 AZ7      0.064200
     30 H11         7.6850   -1.4380   -2.3750 hc        1 AZ7      0.082700
     31 H191        5.4790   -1.8390   -4.1090 hc        1 AZ7      0.043700
     32 H192        6.8880   -2.2960   -5.1400 hc        1 AZ7      0.043700
     33 H17         9.1120   -3.0100   -4.0070 ha        1 AZ7      0.166500
     34 H13         8.5270    1.2550   -4.5430 ha        1 AZ7      0.166500
     35 H16        11.3260   -2.8330   -5.1550 ha        1 AZ7      0.136500
     36 H14        10.7010    1.4230   -5.6880 ha        1 AZ7      0.136500
@<TRIPOS>BOND
     1    1    2 1   
     2    2    3 ar  
     3    2    6 ar  
     4    3    4 ar  
     5    3   25 1   
     6    4    5 1   
     7    4   11 ar  
     8    6    7 ar  
     9    6   26 1   
    10    7    8 1   
    11    7   11 ar  
    12    8    9 2   
    13    9   10 1   
    14    9   12 1   
    15   10   11 1   
    16   10   27 1   
    17   12   13 1   
    18   12   28 1   
    19   12   29 1   
    20   13   14 1   
    21   13   18 1   
    22   13   30 1   
    23   14   15 1   
    24   14   31 1   
    25   14   32 1   
    26   15   16 1   
    27   15   17 1   
    28   18   19 ar  
    29   18   24 ar  
    30   19   20 ar  
    31   19   33 1   
    32   20   21 ar  
    33   20   35 1   
    34   21   22 1   
    35   21   23 ar  
    36   23   24 ar  
    37   23   36 1   
    38   24   34 1   
@<TRIPOS>SUBSTRUCTURE
     1 AZ7         1 TEMP              0 ****  ****    0 ROOT
