@<TRIPOS>MOLECULE
AZ7
   36    31     1     0     0
SMALL
bcc


@<TRIPOS>ATOM
      1 CL6        -2.5690   -5.0650    4.8180 cl        1 AZ7     -0.039000
      2 C5         -2.2170   -3.7170    3.7690 c2        1 AZ7     -0.080000
      3 C6         -1.6860   -2.7700    4.6300 c2        1 AZ7     -0.121000
      4 C1         -1.1200   -1.6120    4.1220 c1        1 AZ7     -0.054000
      5 CL5        -0.5640   -0.5580    5.3950 cl        1 AZ7     -0.009000
      6 C4         -2.1810   -3.5070    2.4000 c1        1 AZ7     -0.074000
      7 C3         -1.6060   -2.3300    1.8830 c1        1 AZ7     -0.051000
      8 N9         -1.4420   -1.8800    0.6150 n1        1 AZ7     -0.171000
      9 C8         -0.8190   -0.6730    0.6740 c1        1 AZ7      0.056000
     10 N7         -0.5990   -0.3760    1.9810 n2        1 AZ7     -0.208000
     11 C2         -1.0840   -1.3970    2.7310 c2        1 AZ7     -0.032000
     12 C10        -0.6820    0.5840   -0.1550 c2        1 AZ7     -0.105000
     13 C11         0.1080    0.2780   -1.4070 c3        1 AZ7     -0.085000
     14 C19        -0.8270    0.2350   -2.5960 c3        1 AZ7     -0.226000
     15 C20        -0.0910   -0.3170   -3.7970 c2        1 AZ7      0.329000
     16 O22         0.3700    0.4670   -4.6680 o         1 AZ7     -0.576500
     17 O21         0.0490   -1.5610   -3.9320 o         1 AZ7     -0.576500
     18 C12         1.1490    1.3550   -1.6230 c2        1 AZ7     -0.062000
     19 C17         2.4930    1.0610   -1.4620 c2        1 AZ7     -0.112000
     20 C16         3.4430    2.0630   -1.5920 c1        1 AZ7     -0.133000
     21 C15         3.0480    3.3590   -1.8810 c1        1 AZ7     -0.073000
     22 CL9         4.2420    4.6200   -2.0420 cl        1 AZ7     -0.058000
     23 C14         1.7030    3.6540   -2.0420 c1        1 AZ7     -0.137000
     24 C13         0.7530    2.6520   -1.9120 c1        1 AZ7     -0.139000
     25 H6         -1.7080   -2.9200    5.5940 ha        1 AZ7      0.152000
     26 H4         -2.5450   -4.1790    1.7930 ha        1 AZ7      0.158000
     27 H7         -0.1910    0.3750    2.2990 DU        1 AZ7      0.284000
     28 H101       -1.5710    0.9100   -0.4020 ha        1 AZ7      0.116000
     29 H102       -0.2160    1.2680    0.3660 ha        1 AZ7      0.116000
     30 H11         0.5500   -0.5870   -1.3100 hc        1 AZ7      0.140000
     31 H191       -1.5910   -0.3400   -2.3900 hc        1 AZ7      0.078000
     32 H192       -1.1440    1.1390   -2.7950 hc        1 AZ7      0.078000
     33 H17         2.7730    0.1440   -1.2750 ha        1 AZ7      0.212000
     34 H13        -0.0380    3.1920   -2.1100 ha        1 AZ7      0.132000
     35 H16         4.3880    1.8610   -1.4540 ha        1 AZ7      0.140000
     36 H14         1.4230    4.5710   -2.2260 ha        1 AZ7      0.132000
@<TRIPOS>BOND
     1    1    2 1   
     2    2    3 1   
     3    2    6 1   
     4    3    4 1   
     5    3   25 1   
     6    4   11 1   
     7    6   26 1   
     8    7   11 1   
     9    8    9 1   
    10    9   10 1   
    11   10   11 1   
    12   12   13 1   
    13   12   28 1   
    14   12   29 1   
    15   13   14 1   
    16   13   18 1   
    17   13   30 1   
    18   14   15 1   
    19   14   31 1   
    20   14   32 1   
    21   15   16 1   
    22   15   17 1   
    23   18   19 1   
    24   18   24 1   
    25   19   20 1   
    26   19   33 1   
    27   20   35 1   
    28   21   22 1   
    29   21   23 1   
    30   23   36 1   
    31   24   34 1   
@<TRIPOS>SUBSTRUCTURE
     1 AZ7         1 TEMP              0 ****  ****    0 ROOT
