@<TRIPOS>MOLECULE
AZ7
   36    38     1     0     0
SMALL
bcc


@<TRIPOS>ATOM
      1 Cl6         0.8100    1.7480    1.3870 cl        1 AZ7     -0.132400
      2 C5          2.0610    0.9220    0.5640 ca        1 AZ7     -0.002600
      3 C6          2.2990   -0.4260    0.9020 ca        1 AZ7     -0.136000
      4 C1          3.3020   -1.1450    0.2670 ca        1 AZ7      0.033400
      5 Cl5         3.5980   -2.7630    0.6650 cl        1 AZ7     -0.064400
      6 C4          2.7940    1.5980   -0.4010 ca        1 AZ7     -0.081000
      7 C3          3.8130    0.8950   -1.0590 ca        1 AZ7      0.075400
      8 N9          4.7100    1.2910   -2.0580 nc        1 AZ7     -0.615100
      9 C8          5.4760    0.1910   -2.3130 cd        1 AZ7      0.427800
     10 N7          5.1270   -0.9130   -1.5180 na        1 AZ7     -0.233300
     11 C2          4.0690   -0.5000   -0.7170 ca        1 AZ7     -0.080200
     12 C10         6.5830    0.1990   -3.3220 c3        1 AZ7     -0.091700
     13 C11         7.4030   -1.0790   -3.3990 c3        1 AZ7     -0.020400
     14 C19         6.5960   -2.2480   -3.9620 c3        1 AZ7     -0.211400
     15 C20         6.8000   -3.4990   -3.0910 c         1 AZ7      0.905600
     16 O22         6.2600   -3.5140   -1.9390 o         1 AZ7     -0.832300
     17 O21         7.5040   -4.4410   -3.5400 o         1 AZ7     -0.832300
     18 C12         8.6670   -0.9020   -4.1890 ca        1 AZ7     -0.056300
     19 C17         9.5140   -2.0180   -4.3120 ca        1 AZ7     -0.123500
     20 C16        10.7200   -1.9250   -4.9990 ca        1 AZ7     -0.133500
     21 C15        11.0880   -0.7080   -5.5820 ca        1 AZ7      0.004400
     22 Cl9        12.5700   -0.5820   -6.4210 cl        1 AZ7     -0.135400
     23 C14        10.2500    0.4030   -5.4890 ca        1 AZ7     -0.133500
     24 C13         9.0430    0.2990   -4.7970 ca        1 AZ7     -0.123500
     25 H6          1.6820   -0.9080    1.6750 ha        1 AZ7      0.147000
     26 H4          2.5930    2.6490   -0.6500 ha        1 AZ7      0.150000
     27 H7          5.5130   -1.8540   -1.5790 hn        1 AZ7      0.389700
     28 H101        7.2570    1.0580   -3.0470 hc        1 AZ7      0.064200
     29 H102        6.1320    0.4180   -4.3280 hc        1 AZ7      0.064200
     30 H11         7.7240   -1.3500   -2.3460 hc        1 AZ7      0.082700
     31 H191        6.9150   -2.4770   -5.0100 hc        1 AZ7      0.043700
     32 H192        5.5060   -1.9990   -3.9880 hc        1 AZ7      0.043700
     33 H17         9.1920   -2.9880   -3.8750 ha        1 AZ7      0.166500
     34 H13         8.3930    1.1850   -4.7520 ha        1 AZ7      0.166500
     35 H16        11.3720   -2.8060   -5.0860 ha        1 AZ7      0.136500
     36 H14        10.5330    1.3560   -5.9580 ha        1 AZ7      0.136500
@<TRIPOS>BOND
     1    1    2 1   
     2    2    3 ar  
     3    2    6 ar  
     4    3    4 ar  
     5    3   25 1   
     6    4    5 1   
     7    4   11 ar  
     8    6    7 ar  
     9    6   26 1   
    10    7    8 1   
    11    7   11 ar  
    12    8    9 2   
    13    9   10 1   
    14    9   12 1   
    15   10   11 1   
    16   10   27 1   
    17   12   13 1   
    18   12   28 1   
    19   12   29 1   
    20   13   14 1   
    21   13   18 1   
    22   13   30 1   
    23   14   15 1   
    24   14   31 1   
    25   14   32 1   
    26   15   16 1   
    27   15   17 1   
    28   18   19 ar  
    29   18   24 ar  
    30   19   20 ar  
    31   19   33 1   
    32   20   21 ar  
    33   20   35 1   
    34   21   22 1   
    35   21   23 ar  
    36   23   24 ar  
    37   23   36 1   
    38   24   34 1   
@<TRIPOS>SUBSTRUCTURE
     1 AZ7         1 TEMP              0 ****  ****    0 ROOT
