@<TRIPOS>MOLECULE
AZ7
   36    38     1     0     0
SMALL
bcc


@<TRIPOS>ATOM
      1 CL6        -6.9130    0.1550   -1.3360 cl        1 AZ7     -0.132400
      2 C5         -5.2970    0.0870   -0.7780 ca        1 AZ7     -0.002600
      3 C6         -5.0790    0.0470    0.6140 ca        1 AZ7     -0.136000
      4 C1         -3.7880   -0.0080    1.1240 ca        1 AZ7      0.033400
      5 CL5        -3.5130   -0.0560    2.7930 cl        1 AZ7     -0.064400
      6 C4         -4.2640    0.0740   -1.7040 ca        1 AZ7     -0.081000
      7 C3         -2.9510    0.0180   -1.2170 ca        1 AZ7      0.075400
      8 N9         -1.7210   -0.0060   -1.8840 nc        1 AZ7     -0.615100
      9 C8         -0.7770   -0.0610   -0.9000 cd        1 AZ7      0.427800
     10 N7         -1.3330   -0.0650    0.3900 na        1 AZ7     -0.233300
     11 C2         -2.7120   -0.0240    0.2220 ca        1 AZ7     -0.080200
     12 C10         0.6910   -0.0850   -1.1950 c3        1 AZ7     -0.091700
     13 C11         1.6010   -0.0340    0.0230 c3        1 AZ7     -0.020400
     14 C19         1.5200   -1.3120    0.8560 c3        1 AZ7     -0.211400
     15 C20         1.3730   -0.9620    2.3470 c         1 AZ7      0.905600
     16 O22         0.2610   -0.4850    2.7370 o         1 AZ7     -0.832300
     17 O21         2.3580   -1.1420    3.1110 o         1 AZ7     -0.832300
     18 C12         3.0290    0.2500   -0.3410 ca        1 AZ7     -0.056300
     19 C17         3.9590    0.3380    0.7120 ca        1 AZ7     -0.123500
     20 C16         5.2940    0.6320    0.4590 ca        1 AZ7     -0.133500
     21 C15         5.7180    0.8340   -0.8590 ca        1 AZ7      0.004400
     22 CL9         7.3550    1.2040   -1.1780 cl        1 AZ7     -0.135400
     23 C14         4.8150    0.7290   -1.9160 ca        1 AZ7     -0.133500
     24 C13         3.4760    0.4340   -1.6520 ca        1 AZ7     -0.123500
     25 H6         -5.9400    0.0590    1.2990 ha        1 AZ7      0.147000
     26 H4         -4.4560    0.1060   -2.7860 ha        1 AZ7      0.150000
     27 H7         -0.8300   -0.1670    1.2700 hn        1 AZ7      0.389700
     28 H101        0.9090   -1.0140   -1.7880 hc        1 AZ7      0.064200
     29 H102        0.8980    0.8050   -1.8520 hc        1 AZ7      0.064200
     30 H11         1.2620    0.8300    0.6730 hc        1 AZ7      0.082700
     31 H191        0.6440   -1.9330    0.5420 hc        1 AZ7      0.043700
     32 H192        2.4410   -1.9320    0.7160 hc        1 AZ7      0.043700
     33 H17         3.6160    0.1400    1.7490 ha        1 AZ7      0.166500
     34 H13         2.7880    0.3410   -2.5050 ha        1 AZ7      0.166500
     35 H16         6.0090    0.6990    1.2920 ha        1 AZ7      0.136500
     36 H14         5.1500    0.8750   -2.9530 ha        1 AZ7      0.136500
@<TRIPOS>BOND
     1    1    2 1   
     2    2    3 ar  
     3    2    6 ar  
     4    3    4 ar  
     5    3   25 1   
     6    4    5 1   
     7    4   11 ar  
     8    6    7 ar  
     9    6   26 1   
    10    7    8 1   
    11    7   11 ar  
    12    8    9 2   
    13    9   10 1   
    14    9   12 1   
    15   10   11 1   
    16   10   27 1   
    17   12   13 1   
    18   12   28 1   
    19   12   29 1   
    20   13   14 1   
    21   13   18 1   
    22   13   30 1   
    23   14   15 1   
    24   14   31 1   
    25   14   32 1   
    26   15   16 1   
    27   15   17 1   
    28   18   19 ar  
    29   18   24 ar  
    30   19   20 ar  
    31   19   33 1   
    32   20   21 ar  
    33   20   35 1   
    34   21   22 1   
    35   21   23 ar  
    36   23   24 ar  
    37   23   36 1   
    38   24   34 1   
@<TRIPOS>SUBSTRUCTURE
     1 AZ7         1 TEMP              0 ****  ****    0 ROOT
