@<TRIPOS>MOLECULE
AZA
   14     9     1     0     0
SMALL
bcc


@<TRIPOS>ATOM
      1 N1         -0.8200    0.0010   -1.6630 n2        1 AZA     -0.335000
      2 C2          0.5470    0.0010   -1.6630 c1        1 AZA      0.413000
      3 O2          1.1540    0.0010   -2.7150 o         1 AZA     -0.316500
      4 N3          1.2310    0.0010   -0.4820 n2        1 AZA     -0.335000
      5 C4          0.5510    0.0010    0.7000 c1        1 AZA     -0.085000
      6 C5         -0.8000    0.0010    0.7010 c1        1 AZA     -0.085000
      7 C6         -1.4930    0.0010   -0.4990 c1        1 AZA      0.413000
      8 O6         -2.7070   -0.0110   -0.5000 o         1 AZA     -0.316500
      9 N7         -1.2190    0.0010    1.9960 n1        1 AZA     -0.101500
     10 N8         -0.1230    0.0010    2.7910 n2        1 AZA      0.006000
     11 N9          0.9720    0.0010    1.9950 n1        1 AZA     -0.101500
     12 HN1        -1.2750    0.0010   -2.4530 hn        1 AZA      0.276000
     13 HN3         2.1430    0.0010   -0.4830 hn        1 AZA      0.276000
     14 HN9         1.8390    0.0010    2.2760 DU        1 AZA      0.290000
@<TRIPOS>BOND
     1    1    7 1   
     2    1   12 1   
     3    2    3 1   
     4    2    4 1   
     5    4   13 1   
     6    5    6 1   
     7    7    8 1   
     8    9   10 1   
     9   10   11 1   
@<TRIPOS>SUBSTRUCTURE
     1 AZA         1 TEMP              0 ****  ****    0 ROOT
