@<TRIPOS>MOLECULE
AZA
   14    15     1     0     0
SMALL
bcc


@<TRIPOS>ATOM
      1 N1          0.7810    0.0000   -1.6150 n         1 AZA     -0.591500
      2 C2         -0.6060    0.0010   -1.8100 c         1 AZA      0.823500
      3 O2         -1.1150    0.0020   -2.9490 o         1 AZA     -0.619500
      4 N3         -1.4810    0.0020   -0.6860 n         1 AZA     -0.445100
      5 C4         -0.9090    0.0010    0.5610 cc        1 AZA      0.013000
      6 C5          0.5130   -0.0000    0.7730 cd        1 AZA      0.137800
      7 C6          1.4290   -0.0010   -0.3540 c         1 AZA      0.665000
      8 O6          2.6640   -0.0010   -0.3170 o         1 AZA     -0.564500
      9 N7          0.7190   -0.0010    2.1650 nd        1 AZA     -0.248000
     10 N8         -0.4080    0.0000    2.7470 nc        1 AZA     -0.163800
     11 N9         -1.4380    0.0010    1.8550 na        1 AZA     -0.073600
     12 HN1         1.3430    0.0000   -2.4410 hn        1 AZA      0.362500
     13 HN3        -2.4620    0.0020   -0.8440 hn        1 AZA      0.362500
     14 HN9        -2.3880    0.0020    2.1420 hn        1 AZA      0.339700
@<TRIPOS>BOND
     1    1    2 1   
     2    1    7 1   
     3    1   12 1   
     4    2    3 2   
     5    2    4 1   
     6    4    5 1   
     7    4   13 1   
     8    5    6 2   
     9    5   11 1   
    10    6    7 1   
    11    6    9 1   
    12    7    8 2   
    13    9   10 2   
    14   10   11 1   
    15   11   14 1   
@<TRIPOS>SUBSTRUCTURE
     1 AZA         1 TEMP              0 ****  ****    0 ROOT
