@<TRIPOS>MOLECULE
AZB
   34    49     1     0     0
SMALL
bcc


@<TRIPOS>ATOM
      1 C1          0.0000    0.0000    0.0000 c3        1 AZB     -0.515000
      2 N2          3.1020   -5.7800   -2.2190 n2        1 AZB      0.015000
      3 C3          2.0400    0.0000    1.4420 c3        1 AZB     -0.221000
      4 C4          2.8890   -8.3460   -2.1780 c2        1 AZB      0.114000
      5 C5          3.3060   -9.5010   -2.8020 c2        1 AZB     -0.047000
      6 C6          4.1070   -9.4320   -3.9360 c3        1 AZB      0.228000
      7 C7          4.4930   -8.1980   -4.4450 c3        1 AZB     -0.149000
      8 C8          4.0810   -7.0370   -3.8290 c3        1 AZB     -0.088000
      9 C9          3.2740   -7.1020   -2.6870 DU        1 AZB     -0.303000
     10 C11         2.8280   -1.0990   -1.8350 c2        1 AZB      0.110000
     11 C12         3.2920   -2.2210   -2.4910 c2        1 AZB      0.155000
     12 C13         2.9570   -3.4920   -2.0160 DU        1 AZB     -0.232000
     13 C14         2.1540   -3.6160   -0.8790 c3        1 AZB     -0.121000
     14 C15         1.6970   -2.4850   -0.2350 c3        1 AZB     -0.328000
     15 C16         2.0320   -1.2300   -0.7110 DU        1 AZB      0.161000
     16 C17         1.5300    0.0000    0.0000 DU        1 AZB     -0.009000
     17 H1          0.5210   -0.8810   -0.3560 hc        1 AZB      0.233667
     18 H1A         0.4030   -0.9020   -0.4440 hc        1 AZB      0.233667
     19 H1B        -0.3610    0.5600    0.8540 hc        1 AZB      0.233667
     20 HO1         4.0850   -9.8130   -4.1910 ho        1 AZB      0.338000
     21 H3          1.2740    0.1470    0.6900 DU        1 AZB      0.191000
     22 H3A         2.1940   -0.8850    0.8370 hc        1 AZB      0.005500
     23 H3B         1.4100   -0.6410    2.0480 hc        1 AZB      0.005500
     24 H4          2.8000   -7.3530   -1.7540 DU        1 AZB      0.329000
     25 H5          3.2780   -8.5220   -2.3400 ha        1 AZB     -0.053000
     26 H7          3.8680   -8.2550   -3.5620 DU        1 AZB     -0.162000
     27 H8          3.7810   -7.9990   -3.4310 DU        1 AZB      0.222000
     28 H11         3.1000   -2.0760   -2.2160 ha        1 AZB     -0.194000
     29 H12         3.6320   -3.1300   -2.9710 DU        1 AZB      0.300000
     30 H14         2.4160   -2.6330   -1.2500 DU        1 AZB      0.197000
     31 H15         2.3190   -2.3820   -1.1150 DU        1 AZB     -0.071000
     32 H17         1.6130   -1.0740   -0.1170 DU        1 AZB     -0.179000
     33 N1          3.4130   -4.6080   -2.6600 n2        1 AZB      0.022000
     34 O1          4.5140  -10.5740   -4.5470 oh        1 AZB     -0.424000
@<TRIPOS>BOND
     1    1   16 1   
     2    1   17 1   
     3    1   18 1   
     4    1   19 1   
     5    2    9 1   
     6    2   33 1   
     7    3   16 1   
     8    3   21 1   
     9    3   22 1   
    10    3   23 1   
    11    4    5 1   
    12    4    9 1   
    13    4   24 1   
    14    5    6 1   
    15    5   25 1   
    16    6    7 1   
    17    6   26 1   
    18    6   34 1   
    19    7    8 1   
    20    7   26 1   
    21    7   27 1   
    22    8    9 1   
    23    8   26 1   
    24    8   27 1   
    25    9   24 1   
    26    9   27 1   
    27   10   11 1   
    28   10   15 1   
    29   10   28 1   
    30   11   12 1   
    31   11   29 1   
    32   12   13 1   
    33   12   29 1   
    34   12   30 1   
    35   12   33 1   
    36   13   14 1   
    37   13   30 1   
    38   13   31 1   
    39   14   15 1   
    40   14   30 1   
    41   14   31 1   
    42   15   16 1   
    43   15   31 1   
    44   15   32 1   
    45   16   21 1   
    46   16   32 1   
    47   20   34 1   
    48   26   27 1   
    49   30   31 1   
@<TRIPOS>SUBSTRUCTURE
     1 AZB         1 TEMP              0 ****  ****    0 ROOT
