@<TRIPOS>MOLECULE
AZB
   34    30     1     0     0
SMALL
bcc


@<TRIPOS>ATOM
      1 C1         -0.1830    0.0730   -1.4360 c3        1 AZB     -0.266000
      2 N2          2.8360   -5.0750   -4.0480 n2        1 AZB     -0.040000
      3 C3          2.8530   -1.2580    1.2010 c3        1 AZB     -0.280000
      4 C4          4.0030   -8.8380    0.0870 c2        1 AZB     -0.512000
      5 C5          3.9700   -9.3810   -1.0840 c1        1 AZB      0.095000
      6 C6          3.7300   -9.9290   -4.6330 c2        1 AZB      0.186000
      7 C7          3.4750   -8.6290   -4.6730 c1        1 AZB     -0.333000
      8 C8          3.2290   -7.4080   -4.7840 c1        1 AZB      0.046000
      9 C9          2.9650   -6.1230   -4.9750 c2        1 AZB     -0.163000
     10 C11         2.0230    2.9060   -0.5160 c1        1 AZB      0.360000
     11 C12         2.4230   -2.8970   -2.2450 c2        1 AZB     -0.205000
     12 C13         2.8140   -4.1500   -1.9360 c2        1 AZB      0.011000
     13 C14         3.1200   -4.4930   -0.5420 c2        1 AZB     -0.410000
     14 C15         3.4280   -5.6810   -0.0730 c1        1 AZB      0.184000
     15 C16         1.5420    1.6750   -0.6210 c2        1 AZB     -0.543000
     16 C17         0.3230    1.4250   -1.3100 c1        1 AZB     -0.031000
     17 H1          0.4430   -0.7440   -0.9920 hc        1 AZB      0.102667
     18 H1A        -0.3260   -0.1380   -2.5300 hc        1 AZB      0.102667
     19 H1B        -1.2010    0.0460   -0.9590 hc        1 AZB      0.102667
     20 HO1         3.9330  -10.1080   -2.6980 ho        1 AZB      0.295000
     21 H3          1.8500   -1.4400    0.7560 hc        1 AZB      0.071250
     22 H3A         3.6130   -1.1960    0.3910 hc        1 AZB      0.071250
     23 H3B         2.8390   -0.3030    1.7710 hc        1 AZB      0.071250
     24 H4          4.1860   -9.3430    1.0470 ha        1 AZB      0.227500
     25 H5          3.8340   -7.7360    0.2150 ha        1 AZB      0.227500
     26 H7          3.7740  -10.5550   -5.5470 h4        1 AZB      0.169000
     27 H8          2.8090   -5.7410   -6.0040 h4        1 AZB      0.170000
     28 H11         2.3240   -2.1210   -1.4740 ha        1 AZB      0.128500
     29 H12         2.1800   -2.5790   -3.2680 ha        1 AZB      0.128500
     30 H14         3.0780   -3.6350    0.1660 ha        1 AZB      0.196000
     31 H15         2.1140    0.8390   -0.1540 ha        1 AZB      0.171000
     32 H17         3.1110   -2.0900    1.8910 hc        1 AZB      0.071250
     33 N1          2.9650   -5.2660   -2.8340 n2        1 AZB     -0.121000
     34 O1          3.9640  -10.6650   -3.5340 oh        1 AZB     -0.283000
@<TRIPOS>BOND
     1    1   16 1   
     2    1   17 1   
     3    1   18 1   
     4    1   19 1   
     5    2    9 1   
     6    2   33 1   
     7    3   21 1   
     8    3   22 1   
     9    3   23 1   
    10    3   32 1   
    11    4    5 1   
    12    4   24 1   
    13    4   25 1   
    14    6    7 1   
    15    6   26 1   
    16    6   34 1   
    17    7    8 1   
    18    8    9 1   
    19    9   27 1   
    20   10   15 1   
    21   11   12 1   
    22   11   28 1   
    23   11   29 1   
    24   12   13 1   
    25   12   33 1   
    26   13   14 1   
    27   13   30 1   
    28   15   16 1   
    29   15   31 1   
    30   20   34 1   
@<TRIPOS>SUBSTRUCTURE
     1 AZB         1 TEMP              0 ****  ****    0 ROOT
