@<TRIPOS>MOLECULE
AZB
   34    35     1     0     0
SMALL
bcc


@<TRIPOS>ATOM
      1 C1          5.8610    0.6100   -1.2270 c3        1 AZB     -0.088100
      2 N2         -1.1480    0.4380   -0.0190 ne        1 AZB     -0.204400
      3 C3          5.8350    0.6190    1.2660 c3        1 AZB     -0.088100
      4 C4         -3.3560    1.4080    0.0170 ca        1 AZB     -0.057500
      5 C5         -4.7410    1.3320    0.0000 ca        1 AZB     -0.198000
      6 C6         -5.3630    0.0750   -0.0750 ca        1 AZB      0.143100
      7 C7         -4.5990   -1.0990   -0.1330 ca        1 AZB     -0.198000
      8 C8         -3.2120   -1.0160   -0.1150 ca        1 AZB     -0.057500
      9 C9         -2.5670    0.2350   -0.0410 ca        1 AZB      0.054400
     10 C11         3.2070   -1.4090   -0.0010 ca        1 AZB     -0.138500
     11 C12         1.8200   -1.5010   -0.0160 ca        1 AZB     -0.094000
     12 C13         1.0290   -0.3310   -0.0280 ca        1 AZB      0.088400
     13 C14         1.6750    0.9210   -0.0250 ca        1 AZB     -0.094000
     14 C15         3.0640    0.9970   -0.0110 ca        1 AZB     -0.138500
     15 C16         3.8460   -0.1640    0.0010 ca        1 AZB     -0.053300
     16 C17         5.3410   -0.0860    0.0170 c3        1 AZB     -0.026400
     17 H1          6.9780    0.6260   -1.2150 hc        1 AZB      0.037700
     18 H1A         5.5210    0.0730   -2.1450 hc        1 AZB      0.037700
     19 H1B         5.4910    1.6620   -1.2750 hc        1 AZB      0.037700
     20 HO1        -7.0330   -0.8510   -0.1410 ho        1 AZB      0.422000
     21 H3          5.4640    1.6710    1.2980 hc        1 AZB      0.037700
     22 H3A         5.4760    0.0880    2.1800 hc        1 AZB      0.037700
     23 H3B         6.9520    0.6350    1.2770 hc        1 AZB      0.037700
     24 H4         -2.8730    2.3980    0.0760 ha        1 AZB      0.151000
     25 H5         -5.3590    2.2400    0.0450 ha        1 AZB      0.146000
     26 H7         -5.0930   -2.0790   -0.1910 ha        1 AZB      0.146000
     27 H8         -2.6240   -1.9470   -0.1610 ha        1 AZB      0.151000
     28 H11         3.8070   -2.3320    0.0080 ha        1 AZB      0.135500
     29 H12         1.3430   -2.4940   -0.0180 ha        1 AZB      0.147000
     30 H14         1.0900    1.8540   -0.0340 ha        1 AZB      0.147000
     31 H15         3.5540    1.9830   -0.0090 ha        1 AZB      0.135500
     32 H17         5.7550   -1.1360    0.0250 hc        1 AZB      0.051700
     33 N1         -0.3920   -0.5340   -0.0470 nf        1 AZB     -0.216400
     34 O1         -6.7370    0.0700   -0.0880 oh        1 AZB     -0.493100
@<TRIPOS>BOND
     1    1   16 1   
     2    1   17 1   
     3    1   18 1   
     4    1   19 1   
     5    2    9 1   
     6    2   33 2   
     7    3   16 1   
     8    3   21 1   
     9    3   22 1   
    10    3   23 1   
    11    4    5 ar  
    12    4    9 ar  
    13    4   24 1   
    14    5    6 ar  
    15    5   25 1   
    16    6    7 ar  
    17    6   34 1   
    18    7    8 ar  
    19    7   26 1   
    20    8    9 ar  
    21    8   27 1   
    22   10   11 ar  
    23   10   15 ar  
    24   10   28 1   
    25   11   12 ar  
    26   11   29 1   
    27   12   13 ar  
    28   12   33 1   
    29   13   14 ar  
    30   13   30 1   
    31   14   15 ar  
    32   14   31 1   
    33   15   16 1   
    34   16   32 1   
    35   20   34 1   
@<TRIPOS>SUBSTRUCTURE
     1 AZB         1 TEMP              0 ****  ****    0 ROOT
