@<TRIPOS>MOLECULE
AZB
   34    29     1     0     0
SMALL
bcc


@<TRIPOS>ATOM
      1 C1         -1.4700    2.4270    2.2080 c3        1 AZB     -0.206000
      2 N1          2.3330   -2.1140   -0.3200 n1        1 AZB      0.005000
      3 O1         -2.9550   -1.5560   -3.8450 oh        1 AZB     -0.246000
      4 N2          1.8490   -2.7690   -1.2530 n1        1 AZB      0.005000
      5 C3          0.7070    2.6480    3.3540 c3        1 AZB     -0.206000
      6 C4         -0.5700   -2.9130   -1.3800 c1        1 AZB     -0.044000
      7 C5         -1.7610   -2.6150   -2.0250 c1        1 AZB     -0.167000
      8 C6         -1.7620   -1.7740   -3.1260 c2        1 AZB      0.098000
      9 C7         -0.5700   -1.2290   -3.5830 c2        1 AZB     -0.218000
     10 C8          0.6200   -1.5270   -2.9380 c1        1 AZB     -0.079000
     11 C9          0.6200   -2.3690   -1.8370 c1        1 AZB     -0.149000
     12 C11         1.4600    1.4250    0.2750 c1        1 AZB     -0.125000
     13 C12         2.0220    0.2920   -0.2920 c1        1 AZB     -0.114000
     14 C13         1.6590   -0.9640    0.1640 c1        1 AZB     -0.103000
     15 C14         0.7330   -1.0880    1.1880 c2        1 AZB     -0.121000
     16 C15         0.1700    0.0440    1.7550 c1        1 AZB     -0.120000
     17 C16         0.5330    1.3010    1.2990 c1        1 AZB     -0.063000
     18 C17         0.0310    2.5330    2.0110 c3        1 AZB     -0.071000
     19 H1         -1.7890    3.2070    2.7100 hc        1 AZB      0.076667
     20 H1A        -1.9130    2.3980    1.3340 hc        1 AZB      0.076667
     21 H1B        -1.6780    1.6100    2.7060 hc        1 AZB      0.076667
     22 HO1        -3.1690   -0.6930   -3.8110 ho        1 AZB      0.221000
     23 H3          0.6530    3.5730    3.6680 hc        1 AZB      0.076667
     24 H3A         1.6500    2.3860    3.2690 hc        1 AZB      0.076667
     25 H3B         0.2600    2.0570    3.9960 hc        1 AZB      0.076667
     26 H4         -0.5700   -3.5060   -0.6050 ha        1 AZB      0.153000
     27 H5         -2.6000   -2.9980   -1.7040 ha        1 AZB      0.156000
     28 H7         -0.5700   -0.6370   -4.3580 ha        1 AZB      0.139000
     29 H8          1.4590   -1.1440   -3.2600 ha        1 AZB      0.147000
     30 H11         1.7160    2.3090   -0.0460 ha        1 AZB      0.136000
     31 H12         2.6740    0.3800   -1.0120 ha        1 AZB      0.144000
     32 H14         0.4760   -1.9730    1.5100 ha        1 AZB      0.141000
     33 H15        -0.4820   -0.0430    2.4750 ha        1 AZB      0.137000
     34 H17         0.2340    3.3230    1.4750 hc        1 AZB      0.091000
@<TRIPOS>BOND
     1    1   18 1   
     2    1   19 1   
     3    1   20 1   
     4    1   21 1   
     5    2    4 1   
     6    3    8 1   
     7    3   22 1   
     8    5   18 1   
     9    5   23 1   
    10    5   24 1   
    11    5   25 1   
    12    6   11 1   
    13    6   26 1   
    14    7    8 1   
    15    7   27 1   
    16    8    9 1   
    17    9   10 1   
    18    9   28 1   
    19   10   29 1   
    20   12   17 1   
    21   12   30 1   
    22   13   14 1   
    23   13   31 1   
    24   14   15 1   
    25   15   16 1   
    26   15   32 1   
    27   16   33 1   
    28   17   18 1   
    29   18   34 1   
@<TRIPOS>SUBSTRUCTURE
     1 AZB         1 TEMP              0 ****  ****    0 ROOT
