@<TRIPOS>MOLECULE
AZC
   36    36     1     0     0
SMALL
bcc


@<TRIPOS>ATOM
      1 C1          0.5310   -0.4660   -0.5130 c3        1 AZC      0.328300
      2 C2          1.9180   -0.3770    0.1810 c3        1 AZC      0.122100
      3 O2          2.5480   -1.6070   -0.0810 oh        1 AZC     -0.622800
      4 C3          1.6480   -0.1260    1.6800 c3        1 AZC      0.086100
      5 O3          2.9290    0.0650    2.2430 oh        1 AZC     -0.581800
      6 C4          0.7830    1.1440    1.8710 c3        1 AZC      0.093100
      7 O4          0.3660    1.2000    3.2200 oh        1 AZC     -0.576800
      8 C5         -0.5000    1.0250    1.0350 c3        1 AZC      0.149100
      9 O5         -0.1450    0.7630   -0.3460 os        1 AZC     -0.484600
     10 C6         -1.3220    2.3100    0.9350 c3        1 AZC      0.136400
     11 O6         -2.2880    2.0650   -0.0880 oh        1 AZC     -0.682800
     12 N1          0.6790   -0.6190   -2.0160 n4        1 AZC     -0.649800
     13 C7         -0.5820   -0.6950   -2.8130 c         1 AZC      0.510100
     14 O7         -0.5800   -1.3470   -3.8480 o         1 AZC     -0.310100
     15 N2         -1.8140   -0.0040   -2.3670 n4        1 AZC     -0.597600
     16 C8         -2.8040   -0.9860   -1.6330 c         1 AZC      0.619100
     17 C9         -4.2320   -0.7090   -1.9070 c3        1 AZC     -0.189100
     18 O8         -2.2330   -1.8060   -0.9460 o         1 AZC     -0.399100
     19 H1         -0.0720   -1.3480   -0.1310 hx        1 AZC      0.142700
     20 H2          2.5320    0.4720   -0.2360 h1        1 AZC      0.099700
     21 HO2         3.2780   -1.7130    0.5550 ho        1 AZC      0.489000
     22 H3          1.1330   -1.0140    2.1420 h1        1 AZC      0.088700
     23 HO3         2.8510   -0.0690    3.2000 ho        1 AZC      0.453000
     24 H4          1.3730    2.0530    1.5730 h1        1 AZC      0.092700
     25 HO4         0.9990    1.7520    3.7030 ho        1 AZC      0.449000
     26 H5         -1.1360    0.1770    1.4150 h1        1 AZC      0.092700
     27 H61        -1.8140    2.5010    1.9260 h1        1 AZC      0.091200
     28 H62        -0.6810    3.1820    0.6380 h1        1 AZC      0.091200
     29 HO6        -2.9430    2.7740   -0.0230 ho        1 AZC      0.454000
     30 HN1         1.2270   -1.4940   -2.1770 hn        1 AZC      0.517800
     31 HN2        -1.6280    0.7900   -1.7070 hn        1 AZC      0.517300
     32 H91        -4.8500   -1.3910   -1.2530 hc        1 AZC      0.144367
     33 H92        -4.4990    0.3540   -1.6690 hc        1 AZC      0.144367
     34 H93        -4.4850   -0.9260   -2.9800 hc        1 AZC      0.144367
     35 H12         1.2340    0.1790   -2.3760 hn        1 AZC      0.517800
     36 H22        -2.2810    0.3720   -3.2080 hn        1 AZC      0.517300
@<TRIPOS>BOND
     1    1    2 1   
     2    1    9 1   
     3    1   12 1   
     4    1   19 1   
     5    2    3 1   
     6    2    4 1   
     7    2   20 1   
     8    3   21 1   
     9    4    5 1   
    10    4    6 1   
    11    4   22 1   
    12    5   23 1   
    13    6    7 1   
    14    6    8 1   
    15    6   24 1   
    16    7   25 1   
    17    8    9 1   
    18    8   10 1   
    19    8   26 1   
    20   10   11 1   
    21   10   27 1   
    22   10   28 1   
    23   11   29 1   
    24   12   13 1   
    25   12   30 1   
    26   12   35 1   
    27   13   14 2   
    28   13   15 1   
    29   15   16 1   
    30   15   31 1   
    31   15   36 1   
    32   16   17 1   
    33   16   18 2   
    34   17   32 1   
    35   17   33 1   
    36   17   34 1   
@<TRIPOS>SUBSTRUCTURE
     1 AZC         1 TEMP              0 ****  ****    0 ROOT
