@<TRIPOS>MOLECULE
AZC
   34    34     1     0     0
SMALL
bcc


@<TRIPOS>ATOM
      1 C1          0.1990   -0.2030    0.1070 c3        1 AZC      0.296500
      2 C2          1.7090   -0.2220    0.0880 c3        1 AZC      0.127100
      3 O2          2.1540   -1.3890   -0.6340 oh        1 AZC     -0.581800
      4 C3          2.2900   -0.2550    1.4560 c3        1 AZC      0.108100
      5 O3          3.7290   -0.0910    1.3600 oh        1 AZC     -0.607800
      6 C4          1.7380    0.8200    2.3310 c3        1 AZC      0.080100
      7 O4          2.2080    0.6090    3.6770 oh        1 AZC     -0.599800
      8 C5          0.2270    0.8370    2.3390 c3        1 AZC      0.075100
      9 O5         -0.3440    0.8650    0.9850 os        1 AZC     -0.460600
     10 C6         -0.2440    2.0570    3.0940 c3        1 AZC      0.138400
     11 O6         -1.6490    1.9680    3.3090 oh        1 AZC     -0.590800
     12 N1         -0.2750   -0.0040   -1.2090 n         1 AZC     -0.528900
     13 C7         -1.3190   -0.8710   -1.7460 c         1 AZC      0.769100
     14 O7         -1.7810   -1.7640   -1.0590 o         1 AZC     -0.564100
     15 N2         -1.7870   -0.6830   -3.0670 n         1 AZC     -0.618500
     16 C8         -2.8000   -1.5440   -3.5940 c         1 AZC      0.670100
     17 C9         -3.2650   -1.3760   -4.9940 c3        1 AZC     -0.180100
     18 O8         -3.2680   -2.4200   -2.9020 o         1 AZC     -0.526100
     19 H1         -0.1210   -1.0660    0.4290 h2        1 AZC      0.108700
     20 H2          2.0290    0.5770   -0.3730 h1        1 AZC      0.057700
     21 HO2         2.8460   -1.1730   -1.1530 ho        1 AZC      0.424000
     22 H3          2.0940   -1.1280    1.8640 h1        1 AZC      0.070700
     23 HO3         4.1360   -0.7600    1.7990 ho        1 AZC      0.428000
     24 H4          2.0620    1.6820    2.0150 h1        1 AZC      0.060700
     25 HO4         2.6840    1.3060    3.9360 ho        1 AZC      0.413000
     26 H5         -0.0940    0.0350    2.8010 h1        1 AZC      0.078700
     27 H61         0.2170    2.1050    3.9600 h1        1 AZC      0.051200
     28 H62        -0.0430    2.8620    2.5740 h1        1 AZC      0.051200
     29 HO6        -1.9120    2.6370    3.8480 ho        1 AZC      0.421000
     30 HN1         0.0910    0.6570   -1.7350 hn        1 AZC      0.301500
     31 HN2        -1.4050   -0.0540   -3.5980 hn        1 AZC      0.317500
     32 H91        -3.9530   -2.0430   -5.1930 hc        1 AZC      0.070700
     33 H92        -2.5110   -1.4950   -5.6040 hc        1 AZC      0.070700
     34 H93        -3.6400   -0.4760   -5.1080 hc        1 AZC      0.070700
@<TRIPOS>BOND
     1    1    2 1   
     2    1    9 1   
     3    1   12 1   
     4    1   19 1   
     5    2    3 1   
     6    2    4 1   
     7    2   20 1   
     8    3   21 1   
     9    4    5 1   
    10    4    6 1   
    11    4   22 1   
    12    5   23 1   
    13    6    7 1   
    14    6    8 1   
    15    6   24 1   
    16    7   25 1   
    17    8    9 1   
    18    8   10 1   
    19    8   26 1   
    20   10   11 1   
    21   10   27 1   
    22   10   28 1   
    23   11   29 1   
    24   12   13 1   
    25   12   30 1   
    26   13   14 2   
    27   13   15 1   
    28   15   16 1   
    29   15   31 1   
    30   16   17 1   
    31   16   18 2   
    32   17   32 1   
    33   17   33 1   
    34   17   34 1   
@<TRIPOS>SUBSTRUCTURE
     1 AZC         1 TEMP              0 ****  ****    0 ROOT
