@<TRIPOS>MOLECULE
AZC
   34    34     1     0     0
SMALL
bcc


@<TRIPOS>ATOM
      1 C1          0.5310    0.1250   -0.3020 c3        1 AZC      0.243500
      2 C2          1.6740   -0.1610   -1.3160 c3        1 AZC      0.092100
      3 O2          2.8580    0.5340   -0.9720 oh        1 AZC     -0.599800
      4 C3          1.2680    0.3820   -2.6970 c3        1 AZC      0.108100
      5 O3          2.2070   -0.0110   -3.6830 oh        1 AZC     -0.606800
      6 C4         -0.0840   -0.2140   -3.1220 c3        1 AZC      0.122100
      7 O4         -0.5480    0.4050   -4.3080 oh        1 AZC     -0.592800
      8 C5         -1.1270    0.0600   -2.0290 c3        1 AZC      0.109100
      9 O5         -0.6820   -0.4890   -0.7870 os        1 AZC     -0.464600
     10 C6         -2.4490   -0.6460   -2.3460 c3        1 AZC      0.139400
     11 O6         -3.4710   -0.2470   -1.4610 oh        1 AZC     -0.591800
     12 N1          0.8080   -0.4590    0.9940 n         1 AZC     -0.530900
     13 C7          0.3420    0.2580    2.1360 c         1 AZC      0.751100
     14 O7          0.1360    1.4840    2.0740 o         1 AZC     -0.552100
     15 N2          0.2060   -0.4600    3.3450 n         1 AZC     -0.614500
     16 C8         -0.1070    0.1330    4.5800 c         1 AZC      0.668100
     17 C9         -0.1820   -0.8150    5.7540 c3        1 AZC     -0.180100
     18 O8         -0.3140    1.3460    4.6990 o         1 AZC     -0.516100
     19 H1          0.3830    1.2430   -0.2040 h2        1 AZC      0.111700
     20 H2          1.8800   -1.2640   -1.3840 h1        1 AZC      0.058700
     21 HO2         3.1050    0.2700   -0.0770 ho        1 AZC      0.425000
     22 H3          1.2050    1.5050   -2.6590 h1        1 AZC      0.069700
     23 HO3         3.0660    0.3290   -3.3970 ho        1 AZC      0.429000
     24 H4          0.0290   -1.3210   -3.2880 h1        1 AZC      0.060700
     25 HO4         0.1660    0.3230   -4.9550 ho        1 AZC      0.426000
     26 H5         -1.2950    1.1670   -1.9170 h1        1 AZC      0.078700
     27 H61        -2.7950   -0.3290   -3.3670 h1        1 AZC      0.064200
     28 H62        -2.3080   -1.7580   -2.3070 h1        1 AZC      0.064200
     29 HO6        -3.1660   -0.4430   -0.5660 ho        1 AZC      0.408000
     30 HN1         0.6700   -1.4490    1.0070 hn        1 AZC      0.291500
     31 HN2         0.4000   -1.4350    3.3500 hn        1 AZC      0.313500
     32 H91        -0.4420   -0.2250    6.6680 hc        1 AZC      0.071700
     33 H92        -0.9710   -1.5870    5.5850 hc        1 AZC      0.071700
     34 H93         0.8000   -1.3200    5.9160 hc        1 AZC      0.071700
@<TRIPOS>BOND
     1    1    2 1   
     2    1    9 1   
     3    1   12 1   
     4    1   19 1   
     5    2    3 1   
     6    2    4 1   
     7    2   20 1   
     8    3   21 1   
     9    4    5 1   
    10    4    6 1   
    11    4   22 1   
    12    5   23 1   
    13    6    7 1   
    14    6    8 1   
    15    6   24 1   
    16    7   25 1   
    17    8    9 1   
    18    8   10 1   
    19    8   26 1   
    20   10   11 1   
    21   10   27 1   
    22   10   28 1   
    23   11   29 1   
    24   12   13 1   
    25   12   30 1   
    26   13   14 2   
    27   13   15 1   
    28   15   16 1   
    29   15   31 1   
    30   16   17 1   
    31   16   18 2   
    32   17   32 1   
    33   17   33 1   
    34   17   34 1   
@<TRIPOS>SUBSTRUCTURE
     1 AZC         1 TEMP              0 ****  ****    0 ROOT
