@<TRIPOS>MOLECULE
AZC
   36    36     1     0     0
SMALL
bcc


@<TRIPOS>ATOM
      1 C1          0.5240   -0.4750   -0.5100 c3        1 AZC      0.328300
      2 C2          1.9100   -0.4010    0.1880 c3        1 AZC      0.122100
      3 O2          2.5260   -1.6390   -0.0710 oh        1 AZC     -0.622800
      4 C3          1.6390   -0.1460    1.6850 c3        1 AZC      0.086100
      5 O3          2.9190    0.0310    2.2520 oh        1 AZC     -0.581800
      6 C4          0.7880    1.1340    1.8730 c3        1 AZC      0.093100
      7 O4          0.3670    1.1970    3.2200 oh        1 AZC     -0.576800
      8 C5         -0.4940    1.0290    1.0330 c3        1 AZC      0.149100
      9 O5         -0.1380    0.7620   -0.3470 os        1 AZC     -0.484600
     10 C6         -1.3010    2.3240    0.9290 c3        1 AZC      0.136400
     11 O6         -2.2660    2.0890   -0.0960 oh        1 AZC     -0.682800
     12 N1          0.6750   -0.6310   -2.0130 ny        1 AZC     -0.649800
     13 C7         -0.5840   -0.6940   -2.8130 c         1 AZC      0.510100
     14 O7         -0.5870   -1.3470   -3.8470 o         1 AZC     -0.310100
     15 N2         -1.8100    0.0110   -2.3720 ny        1 AZC     -0.597600
     16 C8         -2.8130   -0.9600   -1.6410 c         1 AZC      0.619100
     17 C9         -4.2370   -0.6710   -1.9240 c3        1 AZC     -0.189100
     18 O8         -2.2540   -1.7830   -0.9490 o         1 AZC     -0.399100
     19 H1         -0.0900   -1.3490   -0.1300 hx        1 AZC      0.142700
     20 H2          2.5350    0.4400   -0.2280 h1        1 AZC      0.099700
     21 HO2         3.2530   -1.7530    0.5680 ho        1 AZC      0.489000
     22 H3          1.1120   -1.0270    2.1470 h1        1 AZC      0.088700
     23 HO3         2.8380   -0.1010    3.2090 ho        1 AZC      0.453000
     24 H4          1.3890    2.0370    1.5760 h1        1 AZC      0.092700
     25 HO4         1.0050    1.7420    3.7040 ho        1 AZC      0.449000
     26 H5         -1.1410    0.1900    1.4120 h1        1 AZC      0.092700
     27 H61        -1.7940    2.5220    1.9180 h1        1 AZC      0.091200
     28 H62        -0.6490    3.1880    0.6330 h1        1 AZC      0.091200
     29 HO6        -2.9140    2.8050   -0.0340 ho        1 AZC      0.454000
     30 HN1         1.2140   -1.5130   -2.1710 hn        1 AZC      0.517800
     31 HN2        -1.6180    0.8030   -1.7120 hn        1 AZC      0.517300
     32 H91        -4.4950    0.3960   -1.6930 hc        1 AZC      0.144367
     33 H92        -4.8650   -1.3430   -1.2700 hc        1 AZC      0.144367
     34 H93        -4.4860   -0.8910   -2.9980 hc        1 AZC      0.144367
     35 H12         1.2400    0.1600   -2.3720 hn        1 AZC      0.517800
     36 H22        -2.2700    0.3930   -3.2140 hn        1 AZC      0.517300
@<TRIPOS>BOND
     1    1    2 1   
     2    1    9 1   
     3    1   12 1   
     4    1   19 1   
     5    2    3 1   
     6    2    4 1   
     7    2   20 1   
     8    3   21 1   
     9    4    5 1   
    10    4    6 1   
    11    4   22 1   
    12    5   23 1   
    13    6    7 1   
    14    6    8 1   
    15    6   24 1   
    16    7   25 1   
    17    8    9 1   
    18    8   10 1   
    19    8   26 1   
    20   10   11 1   
    21   10   27 1   
    22   10   28 1   
    23   11   29 1   
    24   12   13 1   
    25   12   30 1   
    26   12   35 1   
    27   13   14 2   
    28   13   15 1   
    29   15   16 1   
    30   15   31 1   
    31   15   36 1   
    32   16   17 1   
    33   16   18 2   
    34   17   32 1   
    35   17   33 1   
    36   17   34 1   
@<TRIPOS>SUBSTRUCTURE
     1 AZC         1 TEMP              0 ****  ****    0 ROOT
