@<TRIPOS>MOLECULE
AZC
   36    36     1     0     0
SMALL
bcc


@<TRIPOS>ATOM
      1 C1          0.5220   -0.4710   -0.5250 c3        1 AZC      0.328300
      2 C2          1.9150   -0.4000    0.1580 c3        1 AZC      0.122100
      3 O2          2.5310   -1.6350   -0.1170 oh        1 AZC     -0.622800
      4 C3          1.6610   -0.1560    1.6600 c3        1 AZC      0.086100
      5 O3          2.9470    0.0200    2.2130 oh        1 AZC     -0.581800
      6 C4          0.8100    1.1210    1.8670 c3        1 AZC      0.093100
      7 O4          0.4040    1.1740    3.2190 oh        1 AZC     -0.576800
      8 C5         -0.4820    1.0200    1.0410 c3        1 AZC      0.149100
      9 O5         -0.1410    0.7630   -0.3450 os        1 AZC     -0.484600
     10 C6         -1.2920    2.3140    0.9550 c3        1 AZC      0.136400
     11 O6         -2.2690    2.0840   -0.0600 oh        1 AZC     -0.682800
     12 N1          0.6550   -0.6170   -2.0300 n4        1 AZC     -0.649800
     13 C7         -0.6130   -0.6760   -2.8170 c         1 AZC      0.510100
     14 O7         -0.6260   -1.3210   -3.8550 o         1 AZC     -0.310100
     15 N2         -1.8350    0.0240   -2.3560 n4        1 AZC     -0.597600
     16 C8         -2.8280   -0.9540   -1.6210 c         1 AZC      0.619100
     17 C9         -4.2550   -0.6660   -1.8850 c3        1 AZC     -0.189100
     18 O8         -2.2600   -1.7820   -0.9410 o         1 AZC     -0.399100
     19 H1         -0.0870   -1.3490   -0.1430 hx        1 AZC      0.142700
     20 H2          2.5340    0.4460   -0.2590 h1        1 AZC      0.099700
     21 HO2         3.2650   -1.7520    0.5120 ho        1 AZC      0.489000
     22 H3          1.1410   -1.0410    2.1220 h1        1 AZC      0.088700
     23 HO3         2.8770   -0.1190    3.1700 ho        1 AZC      0.453000
     24 H4          1.4050    2.0270    1.5690 h1        1 AZC      0.092700
     25 HO4         1.0470    1.7160    3.7000 ho        1 AZC      0.449000
     26 H5         -1.1230    0.1760    1.4210 h1        1 AZC      0.092700
     27 H61        -1.7740    2.5030    1.9520 h1        1 AZC      0.091200
     28 H62        -0.6460    3.1810    0.6580 h1        1 AZC      0.091200
     29 HO6        -2.9170    2.7980    0.0150 ho        1 AZC      0.454000
     30 HN1         1.1940   -1.4960   -2.2010 hn        1 AZC      0.517800
     31 HN2        -1.6360    0.8110   -1.6920 hn        1 AZC      0.517300
     32 H91        -4.8740   -1.3430   -1.2280 hc        1 AZC      0.144367
     33 H92        -4.5120    0.4000   -1.6440 hc        1 AZC      0.144367
     34 H93        -4.5160   -0.8790   -2.9570 hc        1 AZC      0.144367
     35 H12         1.2140    0.1780   -2.3900 hn        1 AZC      0.517800
     36 H22        -2.3050    0.4100   -3.1900 hn        1 AZC      0.517300
@<TRIPOS>BOND
     1    1    2 1   
     2    1    9 1   
     3    1   12 1   
     4    1   19 1   
     5    2    3 1   
     6    2    4 1   
     7    2   20 1   
     8    3   21 1   
     9    4    5 1   
    10    4    6 1   
    11    4   22 1   
    12    5   23 1   
    13    6    7 1   
    14    6    8 1   
    15    6   24 1   
    16    7   25 1   
    17    8    9 1   
    18    8   10 1   
    19    8   26 1   
    20   10   11 1   
    21   10   27 1   
    22   10   28 1   
    23   11   29 1   
    24   12   13 1   
    25   12   30 1   
    26   12   35 1   
    27   13   14 2   
    28   13   15 1   
    29   15   16 1   
    30   15   31 1   
    31   15   36 1   
    32   16   17 1   
    33   16   18 2   
    34   17   32 1   
    35   17   33 1   
    36   17   34 1   
@<TRIPOS>SUBSTRUCTURE
     1 AZC         1 TEMP              0 ****  ****    0 ROOT
