@<TRIPOS>MOLECULE
AZD
   39    40     1     0     0
SMALL
bcc


@<TRIPOS>ATOM
      1 PA          0.1910   -0.2220   -0.4480 p5        1 AZD      1.602800
      2 O1A         1.5810   -0.4990   -0.8640 o         1 AZD     -0.884500
      3 O2A        -0.5530   -1.0240    0.5520 o         1 AZD     -0.884500
      4 O3A         0.0880    1.3590   -0.1020 os        1 AZD     -0.830800
      5 PB          0.0560    2.9100    0.4380 p5        1 AZD      1.592800
      6 O1B         0.7710    2.9920    1.7300 o         1 AZD     -0.888000
      7 O2B        -1.2560    3.5540    0.2350 o         1 AZD     -0.888000
      8 O3B         1.0890    3.4850   -0.7010 oh        1 AZD     -0.807400
      9 O5'        -0.7980   -0.3830   -1.7700 os        1 AZD     -0.595200
     10 C5'        -0.2270   -0.5310   -3.0270 c3        1 AZD      0.184400
     11 C4'        -0.5340   -1.8960   -3.6710 c3        1 AZD      0.047800
     12 O4'        -1.0560   -2.8390   -2.7020 os        1 AZD     -0.409600
     13 C3'        -1.5500   -1.8310   -4.8060 c2        1 AZD      0.309300
     14 N3'        -1.4220   -1.5630   -6.0460 ne        1 AZD     -0.458400
     15 N4'        -0.4010   -0.8510   -6.7480 n1        1 AZD     -0.113300
     16 N5'         0.5060   -1.3060   -7.3260 n1        1 AZD     -0.509000
     17 C2'        -2.8660   -2.2520   -4.1690 c3        1 AZD     -0.158700
     18 C1'        -2.4080   -3.1730   -3.0210 c3        1 AZD      0.319500
     19 N1         -3.2640   -3.1450   -1.8190 n         1 AZD     -0.356000
     20 C2         -4.4130   -3.9610   -1.8590 c         1 AZD      0.787500
     21 O2         -4.7160   -4.6830   -2.8450 o         1 AZD     -0.716500
     22 N3         -5.2640   -3.9820   -0.7410 ns        1 AZD     -0.600500
     23 C4         -5.0010   -3.2470    0.4340 c         1 AZD      0.715700
     24 O4         -5.8310   -3.3660    1.3650 o         1 AZD     -0.709500
     25 C5         -3.7850   -2.4460    0.4290 cc        1 AZD     -0.309400
     26 C5A        -3.4630   -1.6700    1.6430 c3        1 AZD     -0.038900
     27 C6         -2.9660   -2.4220   -0.6770 cd        1 AZD      0.106600
     28 H5'1       -0.6450    0.2700   -3.7020 h1        1 AZD      0.039700
     29 H5'2        0.8920   -0.4130   -2.9560 h1        1 AZD      0.039700
     30 H4'         0.4270   -2.3700   -4.0130 h1        1 AZD      0.056700
     31 H3'         1.6810    2.8260   -1.0380 ho        1 AZD      0.424000
     32 H2'1       -3.5310   -2.8110   -4.8670 hc        1 AZD      0.052200
     33 H2'2       -3.4070   -1.3490   -3.7920 hc        1 AZD      0.052200
     34 H1'        -2.3990   -4.2550   -3.3570 h2        1 AZD      0.053700
     35 HN3        -6.0750   -4.5510   -0.8020 hn        1 AZD      0.313500
     36 H51        -2.4020   -1.2960    1.5990 hc        1 AZD      0.055700
     37 H52        -3.5960   -2.3070    2.5520 hc        1 AZD      0.055700
     38 H53        -4.1520   -0.7930    1.7330 hc        1 AZD      0.055700
     39 H6         -2.0020   -1.8160   -0.6840 h4        1 AZD      0.294000
@<TRIPOS>BOND
     1    1    2 1   
     2    1    3 1   
     3    1    4 1   
     4    1    9 1   
     5    4    5 1   
     6    5    6 1   
     7    5    7 1   
     8    5    8 1   
     9    8   31 1   
    10    9   10 1   
    11   10   11 1   
    12   10   28 1   
    13   10   29 1   
    14   11   12 1   
    15   11   13 1   
    16   11   30 1   
    17   12   18 1   
    18   13   14 2   
    19   13   17 1   
    20   14   15 1   
    21   15   16 3   
    22   17   18 1   
    23   17   32 1   
    24   17   33 1   
    25   18   19 1   
    26   18   34 1   
    27   19   20 1   
    28   19   27 1   
    29   20   21 2   
    30   20   22 1   
    31   22   23 1   
    32   22   35 1   
    33   23   24 2   
    34   23   25 1   
    35   25   26 1   
    36   25   27 2   
    37   26   36 1   
    38   26   37 1   
    39   26   38 1   
    40   27   39 1   
@<TRIPOS>SUBSTRUCTURE
     1 AZD         1 TEMP              0 ****  ****    0 ROOT
