@<TRIPOS>MOLECULE
AZD
   39    40     1     0     0
SMALL
bcc


@<TRIPOS>ATOM
      1 PA          0.1730   -0.2320   -0.4130 p5        1 AZD      1.602800
      2 O1A         1.5690   -0.5140   -0.8070 o         1 AZD     -0.884500
      3 O2A        -0.5910   -1.0350    0.5710 o         1 AZD     -0.884500
      4 O3A         0.0710    1.3470   -0.0640 os        1 AZD     -0.830800
      5 PB          0.0350    2.8970    0.4800 p5        1 AZD      1.592800
      6 O1B         0.7290    2.9720    1.7840 o         1 AZD     -0.888000
      7 O2B        -1.2710    3.5470    0.2570 o         1 AZD     -0.888000
      8 O3B         1.0900    3.4720   -0.6400 oh        1 AZD     -0.807400
      9 O5'        -0.7950   -0.3850   -1.7530 os        1 AZD     -0.595200
     10 C5'        -0.2030   -0.5320   -3.0010 c3        1 AZD      0.184400
     11 C4'        -0.5040   -1.8930   -3.6540 c3        1 AZD      0.047800
     12 O4'        -1.0460   -2.8370   -2.6980 os        1 AZD     -0.409600
     13 C3'        -1.5000   -1.8200   -4.8060 c2        1 AZD      0.309300
     14 N3'        -1.3500   -1.5490   -6.0430 ne        1 AZD     -0.458400
     15 N4'        -0.3150   -0.8390   -6.7250 n1        1 AZD     -0.113300
     16 N5'         0.6000   -1.2950   -7.2890 n1        1 AZD     -0.509000
     17 C2'        -2.8290   -2.2380   -4.1930 c3        1 AZD     -0.158700
     18 C1'        -2.3940   -3.1640   -3.0400 c3        1 AZD      0.319500
     19 N1         -3.2700   -3.1370   -1.8530 n         1 AZD     -0.356000
     20 C2         -4.4210   -3.9480   -1.9150 c         1 AZD      0.787500
     21 O2         -4.7100   -4.6670   -2.9090 o         1 AZD     -0.716500
     22 N3         -5.2910   -3.9700   -0.8110 n         1 AZD     -0.600500
     23 C4         -5.0450   -3.2400    0.3700 c         1 AZD      0.715700
     24 O4         -5.8910   -3.3590    1.2860 o         1 AZD     -0.709500
     25 C5         -3.8260   -2.4430    0.3880 cc        1 AZD     -0.309400
     26 C5A        -3.5220   -1.6720    1.6100 c3        1 AZD     -0.038900
     27 C6         -2.9890   -2.4190   -0.7030 cd        1 AZD      0.106600
     28 H5'1       -0.6050    0.2730   -3.6800 h1        1 AZD      0.039700
     29 H5'2        0.9150   -0.4180   -2.9100 h1        1 AZD      0.039700
     30 H4'         0.4610   -2.3700   -3.9820 h1        1 AZD      0.056700
     31 H3'         1.6850    2.8110   -0.9680 ho        1 AZD      0.424000
     32 H2'1       -3.3720   -1.3350   -3.8220 hc        1 AZD      0.052200
     33 H2'2       -3.4840   -2.7920   -4.9040 hc        1 AZD      0.052200
     34 H1'        -2.3830   -4.2460   -3.3800 h2        1 AZD      0.053700
     35 HN3        -6.1030   -4.5350   -0.8880 hn        1 AZD      0.313500
     36 H51        -2.4590   -1.3030    1.5850 hc        1 AZD      0.055700
     37 H52        -3.6720   -2.3120    2.5150 hc        1 AZD      0.055700
     38 H53        -4.2090   -0.7930    1.6910 hc        1 AZD      0.055700
     39 H6         -2.0220   -1.8170   -0.6920 h4        1 AZD      0.294000
@<TRIPOS>BOND
     1    1    2 1   
     2    1    3 1   
     3    1    4 1   
     4    1    9 1   
     5    4    5 1   
     6    5    6 1   
     7    5    7 1   
     8    5    8 1   
     9    8   31 1   
    10    9   10 1   
    11   10   11 1   
    12   10   28 1   
    13   10   29 1   
    14   11   12 1   
    15   11   13 1   
    16   11   30 1   
    17   12   18 1   
    18   13   14 2   
    19   13   17 1   
    20   14   15 1   
    21   15   16 3   
    22   17   18 1   
    23   17   32 1   
    24   17   33 1   
    25   18   19 1   
    26   18   34 1   
    27   19   20 1   
    28   19   27 1   
    29   20   21 2   
    30   20   22 1   
    31   22   23 1   
    32   22   35 1   
    33   23   24 2   
    34   23   25 1   
    35   25   26 1   
    36   25   27 2   
    37   26   36 1   
    38   26   37 1   
    39   26   38 1   
    40   27   39 1   
@<TRIPOS>SUBSTRUCTURE
     1 AZD         1 TEMP              0 ****  ****    0 ROOT
