@<TRIPOS>MOLECULE
AZD
   39    40     1     0     0
SMALL
bcc


@<TRIPOS>ATOM
      1 PA         49.5260    2.1600    9.5900 p5        1 AZD      1.602800
      2 O1A        48.5560    1.5400   10.5150 o         1 AZD     -0.884500
      3 O2A        50.1120    1.4710    8.4160 o         1 AZD     -0.884500
      4 O3A        48.9420    3.6120    9.1660 os        1 AZD     -0.830800
      5 PB         48.2400    4.9810    8.5910 p5        1 AZD      1.592800
      6 O1B        47.1450    4.6170    7.6660 o         1 AZD     -0.888000
      7 O2B        49.2270    6.0260    8.2520 o         1 AZD     -0.888000
      8 O3B        47.5290    5.3920   10.0130 oh        1 AZD     -0.807400
      9 O5'        50.8990    2.5410   10.4420 os        1 AZD     -0.595200
     10 C5'        50.8850    2.4380   11.8260 c3        1 AZD      0.184400
     11 C4'        51.8520    1.3650   12.3610 c3        1 AZD      0.047800
     12 O4'        52.3060    0.4810   11.3060 os        1 AZD     -0.409600
     13 C3'        53.1040    1.9340   13.0200 c2        1 AZD      0.309300
     14 N3'        53.3240    2.3550   14.2030 ne        1 AZD     -0.458400
     15 N4'        52.4260    2.8240   15.2110 n1        1 AZD     -0.113300
     16 N5'        51.9930    2.2150   16.1090 n1        1 AZD     -0.509000
     17 C2'        54.1790    1.8400   11.9480 c3        1 AZD     -0.158700
     18 C1'        53.7090    0.6420   11.0990 c3        1 AZD      0.319500
     19 N1         54.0330    0.7300    9.6620 n         1 AZD     -0.356000
     20 C2         55.3340    0.3290    9.2960 c         1 AZD      0.787500
     21 O2         56.1900   -0.0860   10.1210 o         1 AZD     -0.716500
     22 N3         55.6990    0.3840    7.9400 n         1 AZD     -0.600500
     23 C4         54.8090    0.7900    6.9240 c         1 AZD      0.715700
     24 O4         55.2540    0.7790    5.7540 o         1 AZD     -0.709500
     25 C5         53.4700    1.1640    7.3590 cc        1 AZD     -0.309400
     26 C5A        52.5010    1.5840    6.3270 c3        1 AZD     -0.038900
     27 C6         53.1280    1.1200    8.6910 cd        1 AZD      0.106600
     28 H5'1       51.1990    3.4310   12.2580 h1        1 AZD      0.039700
     29 H5'2       49.8440    2.1890   12.1810 h1        1 AZD      0.039700
     30 H4'        51.2980    0.6820   13.0630 h1        1 AZD      0.056700
     31 H3'        47.3610    4.6490   10.5760 ho        1 AZD      0.424000
     32 H2'1       54.2040    2.7880   11.3560 hc        1 AZD      0.052200
     33 H2'2       55.1950    1.6420   12.3620 hc        1 AZD      0.052200
     34 H1'        54.1970   -0.3170   11.4590 h2        1 AZD      0.053700
     35 HN3        56.6260    0.1130    7.7110 hn        1 AZD      0.313500
     36 H51        51.4600    1.6130    6.7570 hc        1 AZD      0.055700
     37 H52        52.7620    2.6030    5.9460 hc        1 AZD      0.055700
     38 H53        52.5280    0.8750    5.4630 hc        1 AZD      0.055700
     39 H6         52.0780    1.3890    9.0390 h4        1 AZD      0.294000
@<TRIPOS>BOND
     1    1    2 1   
     2    1    3 1   
     3    1    4 1   
     4    1    9 1   
     5    4    5 1   
     6    5    6 1   
     7    5    7 1   
     8    5    8 1   
     9    8   31 1   
    10    9   10 1   
    11   10   11 1   
    12   10   28 1   
    13   10   29 1   
    14   11   12 1   
    15   11   13 1   
    16   11   30 1   
    17   12   18 1   
    18   13   14 2   
    19   13   17 1   
    20   14   15 1   
    21   15   16 3   
    22   17   18 1   
    23   17   32 1   
    24   17   33 1   
    25   18   19 1   
    26   18   34 1   
    27   19   20 1   
    28   19   27 1   
    29   20   21 2   
    30   20   22 1   
    31   22   23 1   
    32   22   35 1   
    33   23   24 2   
    34   23   25 1   
    35   25   26 1   
    36   25   27 2   
    37   26   36 1   
    38   26   37 1   
    39   26   38 1   
    40   27   39 1   
@<TRIPOS>SUBSTRUCTURE
     1 AZD         1 TEMP              0 ****  ****    0 ROOT
