@<TRIPOS>MOLECULE
AZE
   50    50     1     0     0
SMALL
bcc


@<TRIPOS>ATOM
      1 C1         -0.7810   -0.0590    0.5390 c3        1 AZE     -0.003800
      2 C2          0.2290    0.9460    1.1010 c3        1 AZE     -0.069400
      3 C3         -0.1270    1.3950    2.5000 c3        1 AZE     -0.076400
      4 C4         -0.1610    0.2170    3.4480 c3        1 AZE     -0.039200
      5 C5         -0.8650   -0.9680    2.8810 c2        1 AZE     -0.110400
      6 C6         -1.1500   -1.0980    1.5700 ce        1 AZE     -0.075200
      7 C7         -1.7650   -2.3120    1.0320 ce        1 AZE     -0.112000
      8 C8         -3.0620   -2.5800    0.8400 cf        1 AZE     -0.130000
      9 C9         -4.2150   -1.7460    1.1470 cf        1 AZE     -0.073200
     10 C10        -4.3360   -1.0940    2.3230 ce        1 AZE     -0.131000
     11 C11        -5.4770   -0.2920    2.7000 ce        1 AZE     -0.129000
     12 C12        -5.5560    0.3370    3.8870 cf        1 AZE     -0.121000
     13 C13        -6.6770    1.1570    4.3210 cf        1 AZE     -0.089200
     14 C14        -6.6470    1.7450    5.5340 c2        1 AZE     -0.158200
     15 C15        -7.7140    2.5960    6.0900 c3        1 AZE     -0.063900
     16 C16        -0.1450   -0.7410   -0.6700 c3        1 AZE     -0.085100
     17 C17        -2.0350    0.6780    0.0800 c3        1 AZE     -0.085100
     18 C18        -1.1890   -2.0110    3.8860 c3        1 AZE     -0.061900
     19 C19        -5.2630   -1.7000    0.0940 c3        1 AZE     -0.059900
     20 C20        -7.8190    1.3050    3.3850 c3        1 AZE     -0.059900
     21 H21         1.2470    0.4750    1.1140 hc        1 AZE      0.041700
     22 H22         0.2760    1.8340    0.4190 hc        1 AZE      0.041700
     23 H31         0.6280    2.1430    2.8590 hc        1 AZE      0.042200
     24 H32        -1.1260    1.9050    2.4940 hc        1 AZE      0.042200
     25 H41         0.8900   -0.0900    3.7060 hc        1 AZE      0.046200
     26 H42        -0.6600    0.5230    4.4070 hc        1 AZE      0.046200
     27 H7         -1.0160   -3.0710    0.7300 ha        1 AZE      0.124000
     28 H8         -3.3340   -3.5490    0.3750 ha        1 AZE      0.122000
     29 H10        -3.5170   -1.1630    3.0630 ha        1 AZE      0.134000
     30 H11        -6.2930   -0.2160    1.9620 ha        1 AZE      0.124000
     31 H12        -4.7260    0.2490    4.6120 ha        1 AZE      0.121000
     32 H14        -5.7700    1.5990    6.1890 ha        1 AZE      0.119000
     33 H151       -8.6760    2.0280    6.1690 hc        1 AZE      0.042367
     34 H152       -7.8910    3.4890    5.4390 hc        1 AZE      0.042367
     35 H153       -7.4400    2.9590    7.1120 hc        1 AZE      0.042367
     36 H161       -0.8920   -1.3850   -1.1910 hc        1 AZE      0.037200
     37 H162        0.2250    0.0300   -1.3890 hc        1 AZE      0.037200
     38 H163        0.7160   -1.3760   -0.3520 hc        1 AZE      0.037200
     39 H171       -2.4550    1.2930    0.9110 hc        1 AZE      0.037200
     40 H172       -2.8150   -0.0550   -0.2440 hc        1 AZE      0.037200
     41 H173       -1.7900    1.3500   -0.7770 hc        1 AZE      0.037200
     42 H181       -0.2550   -2.3440    4.4030 hc        1 AZE      0.042367
     43 H182       -1.6720   -2.9040    3.4180 hc        1 AZE      0.042367
     44 H183       -1.8850   -1.5980    4.6590 hc        1 AZE      0.042367
     45 H191       -4.9810   -2.3200   -0.7920 hc        1 AZE      0.042367
     46 H192       -5.4140   -0.6460   -0.2510 hc        1 AZE      0.042367
     47 H193       -6.2370   -2.0810    0.4920 hc        1 AZE      0.042367
     48 H201       -8.6250    1.9490    3.8150 hc        1 AZE      0.042367
     49 H202       -7.4740    1.7690    2.4270 hc        1 AZE      0.042367
     50 H203       -8.2590    0.3030    3.1520 hc        1 AZE      0.042367
@<TRIPOS>BOND
     1    1    2 1   
     2    1    6 1   
     3    1   16 1   
     4    1   17 1   
     5    2    3 1   
     6    2   21 1   
     7    2   22 1   
     8    3    4 1   
     9    3   23 1   
    10    3   24 1   
    11    4    5 1   
    12    4   25 1   
    13    4   26 1   
    14    5    6 2   
    15    5   18 1   
    16    6    7 1   
    17    7    8 2   
    18    7   27 1   
    19    8    9 1   
    20    8   28 1   
    21    9   10 2   
    22    9   19 1   
    23   10   11 1   
    24   10   29 1   
    25   11   12 2   
    26   11   30 1   
    27   12   13 1   
    28   12   31 1   
    29   13   14 2   
    30   13   20 1   
    31   14   15 1   
    32   14   32 1   
    33   15   33 1   
    34   15   34 1   
    35   15   35 1   
    36   16   36 1   
    37   16   37 1   
    38   16   38 1   
    39   17   39 1   
    40   17   40 1   
    41   17   41 1   
    42   18   42 1   
    43   18   43 1   
    44   18   44 1   
    45   19   45 1   
    46   19   46 1   
    47   19   47 1   
    48   20   48 1   
    49   20   49 1   
    50   20   50 1   
@<TRIPOS>SUBSTRUCTURE
     1 AZE         1 TEMP              0 ****  ****    0 ROOT
