@<TRIPOS>MOLECULE
AZE
   50    46     1     0     0
SMALL
bcc


@<TRIPOS>ATOM
      1 C1          2.5360    0.1610   -0.6860 c3        1 AZE     -0.008000
      2 C2          4.1560    0.1150   -0.6170 c3        1 AZE     -0.149000
      3 C3          4.6430    0.1070    0.5070 c3        1 AZE     -0.155000
      4 C4          4.1640   -1.1000    1.4750 c3        1 AZE     -0.122000
      5 C5          2.7400   -1.2220    1.5310 c2        1 AZE     -0.102000
      6 C6          1.9290   -0.8450    0.1330 c2        1 AZE     -0.076000
      7 C7          0.9750   -1.8450   -0.4820 c2        1 AZE     -0.109000
      8 C8         -0.3540   -1.7020   -0.3090 c1        1 AZE     -0.134000
      9 C9         -0.8910   -0.5410    0.4980 c1        1 AZE     -0.073000
     10 C10        -1.9120    0.1970    0.0200 c1        1 AZE     -0.152000
     11 C11        -2.5210   -0.1350   -1.3250 c1        1 AZE     -0.124500
     12 C12        -3.8280    0.1040   -1.5500 c1        1 AZE     -0.124500
     13 C13        -4.6870    0.7030   -0.4580 c1        1 AZE     -0.073000
     14 C14        -5.0900    1.9850   -0.5460 c1        1 AZE     -0.152000
     15 C15        -4.6850    2.8260   -1.7370 c2        1 AZE     -0.185000
     16 C16         2.0050    1.5390   -0.3580 c3        1 AZE     -0.204000
     17 C17         2.0730    0.0130   -2.1180 c3        1 AZE     -0.204000
     18 C18         2.1000   -2.1330    2.5550 c3        1 AZE     -0.182000
     19 C19        -0.2830   -0.2100    1.8430 c3        1 AZE     -0.182000
     20 C20        -5.0920   -0.1380    0.7320 c3        1 AZE     -0.182000
     21 H21         4.4580   -0.6910   -1.0860 hc        1 AZE      0.081000
     22 H22         4.5040    0.8970   -1.0950 hc        1 AZE      0.081000
     23 H31         5.6180    0.0580    0.4170 hc        1 AZE      0.080500
     24 H32         4.4170    0.9550    0.9430 hc        1 AZE      0.080500
     25 H41         4.4860   -1.9990    1.2540 hc        1 AZE      0.086000
     26 H42         4.5870   -0.9600    2.3450 hc        1 AZE      0.086000
     27 H7          1.3210   -2.5940   -1.0030 ha        1 AZE      0.124000
     28 H8         -0.9700   -2.3480   -0.7060 ha        1 AZE      0.124000
     29 H10        -2.2590    0.9460    0.5410 ha        1 AZE      0.124500
     30 H11        -1.9660   -0.5210   -2.0290 ha        1 AZE      0.124000
     31 H12        -4.2200   -0.1100   -2.4180 ha        1 AZE      0.124000
     32 H14        -5.6450    2.3720    0.1580 ha        1 AZE      0.124500
     33 H151       -5.0980    3.7120   -1.6670 ha        1 AZE      0.081333
     34 H152       -4.9840    2.3900   -2.5620 ha        1 AZE      0.081333
     35 H153       -3.7100    2.9210   -1.7530 ha        1 AZE      0.081333
     36 H161        1.0570    1.5900   -0.5990 hc        1 AZE      0.076667
     37 H162        2.5080    2.2120   -0.8640 hc        1 AZE      0.076667
     38 H163        2.1070    1.7090    0.6020 hc        1 AZE      0.076667
     39 H171        2.5150    0.6880   -2.6750 hc        1 AZE      0.076667
     40 H172        2.3020   -0.8820   -2.4450 hc        1 AZE      0.076667
     41 H173        1.1020    0.1380   -2.1620 hc        1 AZE      0.076667
     42 H181        2.7820   -2.7200    2.9430 hc        1 AZE      0.081000
     43 H182        1.4090   -2.6770    2.1220 hc        1 AZE      0.081000
     44 H183        1.6930   -1.5920    3.2640 hc        1 AZE      0.081000
     45 H191       -0.0390   -1.0390    2.3050 hc        1 AZE      0.084000
     46 H192       -0.9340    0.2860    2.3830 hc        1 AZE      0.084000
     47 H193        0.5180    0.3390    1.7130 hc        1 AZE      0.084000
     48 H201       -4.7220   -1.0400    0.6360 hc        1 AZE      0.084000
     49 H202       -6.0700   -0.1890    0.7780 hc        1 AZE      0.084000
     50 H203       -4.7470    0.2710    1.5540 hc        1 AZE      0.084000
@<TRIPOS>BOND
     1    1    2 1   
     2    1    6 1   
     3    1   16 1   
     4    1   17 1   
     5    2    3 1   
     6    2   21 1   
     7    2   22 1   
     8    3    4 1   
     9    3   23 1   
    10    3   24 1   
    11    4    5 1   
    12    4   25 1   
    13    4   26 1   
    14    5    6 1   
    15    5   18 1   
    16    6    7 1   
    17    7    8 1   
    18    7   27 1   
    19    8   28 1   
    20    9   10 1   
    21    9   19 1   
    22   10   29 1   
    23   11   12 1   
    24   11   30 1   
    25   12   31 1   
    26   13   14 1   
    27   13   20 1   
    28   14   32 1   
    29   15   33 1   
    30   15   34 1   
    31   15   35 1   
    32   16   36 1   
    33   16   37 1   
    34   16   38 1   
    35   17   39 1   
    36   17   40 1   
    37   17   41 1   
    38   18   42 1   
    39   18   43 1   
    40   18   44 1   
    41   19   45 1   
    42   19   46 1   
    43   19   47 1   
    44   20   48 1   
    45   20   49 1   
    46   20   50 1   
@<TRIPOS>SUBSTRUCTURE
     1 AZE         1 TEMP              0 ****  ****    0 ROOT
