@<TRIPOS>MOLECULE
AZE
   50    50     1     0     0
SMALL
bcc


@<TRIPOS>ATOM
      1 C1         -0.7750   -0.0420    0.5460 c3        1 AZE     -0.003800
      2 C2          0.2330    0.9620    1.1120 c3        1 AZE     -0.069400
      3 C3         -0.1270    1.4100    2.5100 c3        1 AZE     -0.076400
      4 C4         -0.1660    0.2320    3.4570 c3        1 AZE     -0.039200
      5 C5         -0.8690   -0.9510    2.8860 c2        1 AZE     -0.110400
      6 C6         -1.1490   -1.0810    1.5750 ce        1 AZE     -0.075200
      7 C7         -1.7640   -2.2930    1.0330 ce        1 AZE     -0.112000
      8 C8         -3.0610   -2.5600    0.8360 cf        1 AZE     -0.130000
      9 C9         -4.2140   -1.7240    1.1390 cf        1 AZE     -0.073200
     10 C10        -4.3390   -1.0740    2.3160 ce        1 AZE     -0.131000
     11 C11        -5.4790   -0.2710    2.6900 ce        1 AZE     -0.129000
     12 C12        -5.5630    0.3560    3.8780 cf        1 AZE     -0.121000
     13 C13        -6.6850    1.1760    4.3080 cf        1 AZE     -0.089200
     14 C14        -6.6610    1.7580    5.5240 c2        1 AZE     -0.158200
     15 C15        -7.7300    2.6100    6.0780 c3        1 AZE     -0.063900
     16 C16        -0.1360   -0.7230   -0.6620 c3        1 AZE     -0.085100
     17 C17        -2.0270    0.6970    0.0820 c3        1 AZE     -0.085100
     18 C18        -1.1980   -1.9950    3.8890 c3        1 AZE     -0.061900
     19 C19        -5.2580   -1.6750    0.0830 c3        1 AZE     -0.059900
     20 C20        -7.8210    1.3320    3.3660 c3        1 AZE     -0.059900
     21 H21         0.2840    1.8510    0.4300 hc        1 AZE      0.041700
     22 H22         1.2510    0.4890    1.1280 hc        1 AZE      0.041700
     23 H31        -1.1250    1.9220    2.5000 hc        1 AZE      0.042200
     24 H32         0.6270    2.1570    2.8720 hc        1 AZE      0.042200
     25 H41         0.8830   -0.0770    3.7190 hc        1 AZE      0.046200
     26 H42        -0.6680    0.5380    4.4140 hc        1 AZE      0.046200
     27 H7         -1.0150   -3.0530    0.7340 ha        1 AZE      0.124000
     28 H8         -3.3330   -3.5280    0.3700 ha        1 AZE      0.122000
     29 H10        -3.5230   -1.1450    3.0590 ha        1 AZE      0.134000
     30 H11        -6.2930   -0.1910    1.9470 ha        1 AZE      0.124000
     31 H12        -4.7370    0.2650    4.6060 ha        1 AZE      0.121000
     32 H14        -5.7890    1.6080    6.1840 ha        1 AZE      0.119000
     33 H151       -7.4620    2.9660    7.1030 hc        1 AZE      0.042367
     34 H152       -8.6940    2.0450    6.1460 hc        1 AZE      0.042367
     35 H153       -7.9000    3.5070    5.4300 hc        1 AZE      0.042367
     36 H161        0.7230   -1.3600   -0.3410 hc        1 AZE      0.037200
     37 H162        0.2370    0.0470   -1.3790 hc        1 AZE      0.037200
     38 H163       -0.8820   -1.3670   -1.1860 hc        1 AZE      0.037200
     39 H171       -2.4490    1.3130    0.9120 hc        1 AZE      0.037200
     40 H172       -2.8060   -0.0340   -0.2450 hc        1 AZE      0.037200
     41 H173       -1.7780    1.3690   -0.7740 hc        1 AZE      0.037200
     42 H181       -1.6810   -2.8870    3.4200 hc        1 AZE      0.042367
     43 H182       -1.8970   -1.5810    4.6600 hc        1 AZE      0.042367
     44 H183       -0.2660   -2.3290    4.4100 hc        1 AZE      0.042367
     45 H191       -5.4050   -0.6210   -0.2630 hc        1 AZE      0.042367
     46 H192       -6.2340   -2.0540    0.4770 hc        1 AZE      0.042367
     47 H193       -4.9730   -2.2960   -0.8020 hc        1 AZE      0.042367
     48 H201       -8.6270    1.9780    3.7920 hc        1 AZE      0.042367
     49 H202       -7.4680    1.7970    2.4110 hc        1 AZE      0.042367
     50 H203       -8.2630    0.3320    3.1270 hc        1 AZE      0.042367
@<TRIPOS>BOND
     1    1    2 1   
     2    1    6 1   
     3    1   16 1   
     4    1   17 1   
     5    2    3 1   
     6    2   21 1   
     7    2   22 1   
     8    3    4 1   
     9    3   23 1   
    10    3   24 1   
    11    4    5 1   
    12    4   25 1   
    13    4   26 1   
    14    5    6 2   
    15    5   18 1   
    16    6    7 1   
    17    7    8 2   
    18    7   27 1   
    19    8    9 1   
    20    8   28 1   
    21    9   10 2   
    22    9   19 1   
    23   10   11 1   
    24   10   29 1   
    25   11   12 2   
    26   11   30 1   
    27   12   13 1   
    28   12   31 1   
    29   13   14 2   
    30   13   20 1   
    31   14   15 1   
    32   14   32 1   
    33   15   33 1   
    34   15   34 1   
    35   15   35 1   
    36   16   36 1   
    37   16   37 1   
    38   16   38 1   
    39   17   39 1   
    40   17   40 1   
    41   17   41 1   
    42   18   42 1   
    43   18   43 1   
    44   18   44 1   
    45   19   45 1   
    46   19   46 1   
    47   19   47 1   
    48   20   48 1   
    49   20   49 1   
    50   20   50 1   
@<TRIPOS>SUBSTRUCTURE
     1 AZE         1 TEMP              0 ****  ****    0 ROOT
