@<TRIPOS>MOLECULE
AZE
   50    50     1     0     0
SMALL
bcc


@<TRIPOS>ATOM
      1 C1         29.8660   21.5610   45.0240 c3        1 AZE     -0.004800
      2 C2         29.4820   21.5930   43.5410 c3        1 AZE     -0.070400
      3 C3         30.4960   20.8950   42.6670 c3        1 AZE     -0.076400
      4 C4         30.6220   19.4420   43.0660 c3        1 AZE     -0.042200
      5 C5         30.7520   19.2590   44.5390 c2        1 AZE     -0.099400
      6 C6         30.4090   20.2120   45.4320 ce        1 AZE     -0.085200
      7 C7         30.5490   20.0180   46.8730 ce        1 AZE     -0.114000
      8 C8         31.6750   19.5930   47.4690 cf        1 AZE     -0.136000
      9 C9         31.8350   19.4180   48.9070 cf        1 AZE     -0.068200
     10 C10        33.0820   19.3040   49.4190 ce        1 AZE     -0.132000
     11 C11        33.4140   19.1540   50.8160 ce        1 AZE     -0.130000
     12 C12        34.6830   18.9940   51.2390 cf        1 AZE     -0.119000
     13 C13        35.0830   18.8430   52.6290 cf        1 AZE     -0.090200
     14 C14        36.3860   18.6800   52.9360 c2        1 AZE     -0.155200
     15 C15        36.9210   18.5170   54.3000 c3        1 AZE     -0.063900
     16 C16        28.6130   21.9040   45.8280 c3        1 AZE     -0.085100
     17 C17        30.9270   22.6230   45.3000 c3        1 AZE     -0.085100
     18 C18        31.2700   17.9240   44.9280 c3        1 AZE     -0.063900
     19 C19        30.6010   19.3820   49.7270 c3        1 AZE     -0.061900
     20 C20        34.0140   18.8780   53.6580 c3        1 AZE     -0.059900
     21 H21        28.4830   21.0970   43.4120 hc        1 AZE      0.042200
     22 H22        29.3720   22.6610   43.2170 hc        1 AZE      0.042200
     23 H31        30.1820   20.9650   41.5930 hc        1 AZE      0.042200
     24 H32        31.4920   21.4020   42.7580 hc        1 AZE      0.042200
     25 H41        29.7160   18.8740   42.7160 hc        1 AZE      0.047700
     26 H42        31.5140   18.9890   42.5550 hc        1 AZE      0.047700
     27 H7         29.6530   20.2660   47.4690 ha        1 AZE      0.129000
     28 H8         32.5700   19.3690   46.8600 ha        1 AZE      0.126000
     29 H10        33.9470   19.3320   48.7290 ha        1 AZE      0.121000
     30 H11        32.5820   19.1850   51.5390 ha        1 AZE      0.126000
     31 H12        35.5090   18.9690   50.5040 ha        1 AZE      0.121000
     32 H14        37.1380   18.6630   52.1300 ha        1 AZE      0.119000
     33 H151       38.0320   18.3980   54.2790 hc        1 AZE      0.042700
     34 H152       36.6780   19.4090   54.9320 hc        1 AZE      0.042700
     35 H153       36.4830   17.6130   54.7940 hc        1 AZE      0.042700
     36 H161       28.8770   22.1660   46.8810 hc        1 AZE      0.036200
     37 H162       28.0990   22.7830   45.3700 hc        1 AZE      0.036200
     38 H163       27.9060   21.0400   45.8370 hc        1 AZE      0.036200
     39 H171       31.2420   22.5810   46.3710 hc        1 AZE      0.036200
     40 H172       31.8240   22.4570   44.6580 hc        1 AZE      0.036200
     41 H173       30.5160   23.6390   45.0860 hc        1 AZE      0.036200
     42 H181       30.9740   17.6520   45.9710 hc        1 AZE      0.043700
     43 H182       30.8790   17.1380   44.2330 hc        1 AZE      0.043700
     44 H183       32.3870   17.9180   44.8670 hc        1 AZE      0.043700
     45 H191       30.7700   18.8970   50.7190 hc        1 AZE      0.044033
     46 H192       30.2290   20.4230   49.9020 hc        1 AZE      0.044033
     47 H193       29.7980   18.8080   49.2000 hc        1 AZE      0.044033
     48 H201       34.4280   18.7590   54.6890 hc        1 AZE      0.042700
     49 H202       33.4650   19.8520   53.6110 hc        1 AZE      0.042700
     50 H203       33.2800   18.0520   53.4780 hc        1 AZE      0.042700
@<TRIPOS>BOND
     1    1    2 1   
     2    1    6 1   
     3    1   16 1   
     4    1   17 1   
     5    2    3 1   
     6    2   21 1   
     7    2   22 1   
     8    3    4 1   
     9    3   23 1   
    10    3   24 1   
    11    4    5 1   
    12    4   25 1   
    13    4   26 1   
    14    5    6 2   
    15    5   18 1   
    16    6    7 1   
    17    7    8 2   
    18    7   27 1   
    19    8    9 1   
    20    8   28 1   
    21    9   10 2   
    22    9   19 1   
    23   10   11 1   
    24   10   29 1   
    25   11   12 2   
    26   11   30 1   
    27   12   13 1   
    28   12   31 1   
    29   13   14 2   
    30   13   20 1   
    31   14   15 1   
    32   14   32 1   
    33   15   33 1   
    34   15   34 1   
    35   15   35 1   
    36   16   36 1   
    37   16   37 1   
    38   16   38 1   
    39   17   39 1   
    40   17   40 1   
    41   17   41 1   
    42   18   42 1   
    43   18   43 1   
    44   18   44 1   
    45   19   45 1   
    46   19   46 1   
    47   19   47 1   
    48   20   48 1   
    49   20   49 1   
    50   20   50 1   
@<TRIPOS>SUBSTRUCTURE
     1 AZE         1 TEMP              0 ****  ****    0 ROOT
