@<TRIPOS>MOLECULE
AZF
   22    22     1     0     0
SMALL
bcc


@<TRIPOS>ATOM
      1 O4          0.9380   -2.1190    3.4350 oh        1 AZF     -0.605800
      2 C4          0.3270   -1.6210    2.2550 c3        1 AZF      0.152100
      3 C3          1.3870   -1.0180    1.3170 c3        1 AZF      0.101100
      4 O3          1.8320    0.1760    1.9430 oh        1 AZF     -0.606800
      5 C2          0.7710   -0.7120   -0.0560 c3        1 AZF      0.112800
      6 N           0.0540   -1.8620   -0.6240 n3        1 AZF     -0.584000
      7 C5         -0.3390   -2.8240    1.5550 c3        1 AZF      0.122500
      8 C6         -1.4630   -3.3800    2.4480 c3        1 AZF      0.130400
      9 O6         -1.9110   -4.6330    1.9750 oh        1 AZF     -0.599800
     10 N2         -0.8840   -2.4320    0.2370 n3        1 AZF     -0.591000
     11 H4          1.4230   -1.3780    3.8210 ho        1 AZF      0.422000
     12 HA         -0.4340   -0.8390    2.5250 h1        1 AZF      0.063700
     13 H3          2.2500   -1.7330    1.2140 h1        1 AZF      0.058700
     14 H5          0.4520   -3.6310    1.4620 h1        1 AZF      0.045700
     15 HB          2.4880    0.5730    1.3590 ho        1 AZF      0.409000
     16 H2C1        0.1240    0.2060    0.0540 h1        1 AZF      0.047700
     17 H2C2        1.5920   -0.4730   -0.7870 h1        1 AZF      0.047700
     18 H          -0.4870   -1.5080   -1.4090 hn        1 AZF      0.365800
     19 H2         -1.1930   -3.2920   -0.2090 hn        1 AZF      0.377800
     20 H6C1       -2.3740   -2.7240    2.4290 h1        1 AZF      0.067200
     21 H6C2       -1.0730   -3.4620    3.4980 h1        1 AZF      0.067200
     22 H6         -1.1880   -5.2610    2.0950 ho        1 AZF      0.398000
@<TRIPOS>BOND
     1    1    2 1   
     2    1   11 1   
     3    2    3 1   
     4    2    7 1   
     5    2   12 1   
     6    3    4 1   
     7    3    5 1   
     8    3   13 1   
     9    4   15 1   
    10    5    6 1   
    11    5   16 1   
    12    5   17 1   
    13    6   10 1   
    14    6   18 1   
    15    7    8 1   
    16    7   10 1   
    17    7   14 1   
    18    8    9 1   
    19    8   20 1   
    20    8   21 1   
    21    9   22 1   
    22   10   19 1   
@<TRIPOS>SUBSTRUCTURE
     1 AZF         1 TEMP              0 ****  ****    0 ROOT
