@<TRIPOS>MOLECULE
AZF
   22    22     1     0     0
SMALL
bcc


@<TRIPOS>ATOM
      1 O4         -2.1740    0.8890   -0.2970 oh        1 AZF     -0.591800
      2 C4         -0.7350    0.8890   -0.2970 c3        1 AZF      0.155100
      3 C3         -0.2630    0.8890    1.1130 c3        1 AZF      0.069100
      4 O3          1.2260    1.0680    1.1180 oh        1 AZF     -0.605800
      5 C2         -0.5740   -0.3020    1.8120 c3        1 AZF      0.108800
      6 N          -0.1980   -1.4310    1.1870 n3        1 AZF     -0.542000
      7 C5         -0.2480   -0.3120   -1.1180 c3        1 AZF      0.085500
      8 C6          1.1040   -0.2630   -1.3010 c3        1 AZF      0.094400
      9 O6          1.4550   -1.0380   -2.4260 oh        1 AZF     -0.612800
     10 N2         -0.6510   -1.5320   -0.1980 n3        1 AZF     -0.570000
     11 H4         -2.4700    1.5900   -0.7540 ho        1 AZF      0.417000
     12 HA         -0.4230    1.7070   -0.7290 h1        1 AZF      0.090700
     13 H3         -0.6710    1.6420    1.5800 h1        1 AZF      0.059700
     14 H5         -0.7130   -0.3570   -1.9750 h1        1 AZF      0.092700
     15 HB          1.4410    1.7420    1.6540 ho        1 AZF      0.406000
     16 H2C1       -0.1370   -0.2710    2.6840 h1        1 AZF      0.066200
     17 H2C2       -1.5400   -0.3340    1.9520 h1        1 AZF      0.066200
     18 H           0.7110   -1.5060    1.2160 hn        1 AZF      0.324800
     19 H2         -0.3380   -2.3060   -0.5650 hn        1 AZF      0.393800
     20 H6C1        1.5530   -0.6180   -0.5090 h1        1 AZF      0.042200
     21 H6C2        1.3800    0.6620   -1.4440 h1        1 AZF      0.042200
     22 H6          2.2660   -0.8080   -2.7020 ho        1 AZF      0.408000
@<TRIPOS>BOND
     1    1    2 1   
     2    1   11 1   
     3    2    3 1   
     4    2    7 1   
     5    2   12 1   
     6    3    4 1   
     7    3    5 1   
     8    3   13 1   
     9    4   15 1   
    10    5    6 1   
    11    5   16 1   
    12    5   17 1   
    13    6   10 1   
    14    6   18 1   
    15    7    8 1   
    16    7   10 1   
    17    7   14 1   
    18    8    9 1   
    19    8   20 1   
    20    8   21 1   
    21    9   22 1   
    22   10   19 1   
@<TRIPOS>SUBSTRUCTURE
     1 AZF         1 TEMP              0 ****  ****    0 ROOT
