@<TRIPOS>MOLECULE
AZF
   22    22     1     0     0
SMALL
bcc


@<TRIPOS>ATOM
      1 O4          0.0390   -0.0040   -0.2550 oh        1 AZF     -0.602800
      2 C4          1.4470    0.0050   -0.0860 c3        1 AZF      0.149100
      3 C3          1.8120   -0.0350    1.4070 c3        1 AZF      0.100100
      4 O3          1.4320    1.2250    1.9400 oh        1 AZF     -0.607800
      5 C2          3.3210   -0.2610    1.5780 c3        1 AZF      0.112800
      6 N           3.8100   -1.4180    0.8150 n3        1 AZF     -0.583000
      7 C5          1.9910   -1.2700   -0.7670 c3        1 AZF      0.158500
      8 C6          1.7020   -1.1920   -2.2750 c3        1 AZF      0.133400
      9 O6          1.9920   -2.4720   -2.8170 oh        1 AZF     -0.609800
     10 N2          3.4470   -1.4140   -0.5310 n3        1 AZF     -0.595000
     11 H4         -0.2990    0.7370    0.2660 ho        1 AZF      0.420000
     12 HA          1.8770    0.9310   -0.5580 h1        1 AZF      0.060700
     13 H3          1.2280   -0.8510    1.9170 h1        1 AZF      0.060700
     14 H5          1.4070   -2.1500   -0.3580 h1        1 AZF      0.064700
     15 HB          1.6620    1.2160    2.8760 ho        1 AZF      0.408000
     16 H2C1        3.5440   -0.4900    2.6570 h1        1 AZF      0.047200
     17 H2C2        3.8450    0.7020    1.3110 h1        1 AZF      0.047200
     18 H           4.8250   -1.3580    0.8150 hn        1 AZF      0.363800
     19 H2          3.6980   -2.3310   -0.8930 hn        1 AZF      0.381800
     20 H6C1        0.6140   -0.9480   -2.4140 h1        1 AZF      0.043200
     21 H6C2        2.3310   -0.4080   -2.7740 h1        1 AZF      0.043200
     22 H6          1.7880   -2.4240   -3.7570 ho        1 AZF      0.404000
@<TRIPOS>BOND
     1    1    2 1   
     2    1   11 1   
     3    2    3 1   
     4    2    7 1   
     5    2   12 1   
     6    3    4 1   
     7    3    5 1   
     8    3   13 1   
     9    4   15 1   
    10    5    6 1   
    11    5   16 1   
    12    5   17 1   
    13    6   10 1   
    14    6   18 1   
    15    7    8 1   
    16    7   10 1   
    17    7   14 1   
    18    8    9 1   
    19    8   20 1   
    20    8   21 1   
    21    9   22 1   
    22   10   19 1   
@<TRIPOS>SUBSTRUCTURE
     1 AZF         1 TEMP              0 ****  ****    0 ROOT
