@<TRIPOS>MOLECULE
AZF
   22    22     1     0     0
SMALL
bcc


@<TRIPOS>ATOM
      1 O4          0.0410    0.0010   -0.2550 oh        1 AZF     -0.602800
      2 C4          1.4490    0.0070   -0.0900 c3        1 AZF      0.149100
      3 C3          1.8180   -0.0210    1.4030 c3        1 AZF      0.100100
      4 O3          1.4430    1.2450    1.9250 oh        1 AZF     -0.607800
      5 C2          3.3270   -0.2500    1.5710 c3        1 AZF      0.112800
      6 N           3.8100   -1.4150    0.8180 n3        1 AZF     -0.583000
      7 C5          1.9880   -1.2760   -0.7610 c3        1 AZF      0.158500
      8 C6          1.6950   -1.2100   -2.2690 c3        1 AZF      0.133400
      9 O6          1.9800   -2.4960   -2.8000 oh        1 AZF     -0.609800
     10 N2          3.4430   -1.4230   -0.5280 n3        1 AZF     -0.595000
     11 H4         -0.2940    0.7470    0.2600 ho        1 AZF      0.420000
     12 HA          1.8810    0.9270   -0.5720 h1        1 AZF      0.060700
     13 H3          1.2330   -0.8310    1.9210 h1        1 AZF      0.060700
     14 H5          1.4020   -2.1500   -0.3420 h1        1 AZF      0.064700
     15 HB          1.6750    1.2430    2.8610 ho        1 AZF      0.408000
     16 H2C1        3.8530    0.7090    1.2950 h1        1 AZF      0.047200
     17 H2C2        3.5510   -0.4700    2.6520 h1        1 AZF      0.047200
     18 H           4.8250   -1.3580    0.8150 hn        1 AZF      0.363800
     19 H2          3.6910   -2.3430   -0.8820 hn        1 AZF      0.381800
     20 H6C1        2.3250   -0.4330   -2.7760 h1        1 AZF      0.043200
     21 H6C2        0.6070   -0.9640   -2.4080 h1        1 AZF      0.043200
     22 H6          1.7750   -2.4560   -3.7410 ho        1 AZF      0.404000
@<TRIPOS>BOND
     1    1    2 1   
     2    1   11 1   
     3    2    3 1   
     4    2    7 1   
     5    2   12 1   
     6    3    4 1   
     7    3    5 1   
     8    3   13 1   
     9    4   15 1   
    10    5    6 1   
    11    5   16 1   
    12    5   17 1   
    13    6   10 1   
    14    6   18 1   
    15    7    8 1   
    16    7   10 1   
    17    7   14 1   
    18    8    9 1   
    19    8   20 1   
    20    8   21 1   
    21    9   22 1   
    22   10   19 1   
@<TRIPOS>SUBSTRUCTURE
     1 AZF         1 TEMP              0 ****  ****    0 ROOT
