@<TRIPOS>MOLECULE
AZF
   22    22     1     0     0
SMALL
bcc


@<TRIPOS>ATOM
      1 O4          0.0420    0.0060   -0.2580 oh        1 AZF     -0.602800
      2 C4          1.4500    0.0080   -0.0880 c3        1 AZF      0.149100
      3 C3          1.8130   -0.0320    1.4060 c3        1 AZF      0.100100
      4 O3          1.4390    1.2310    1.9360 oh        1 AZF     -0.607800
      5 C2          3.3210   -0.2640    1.5780 c3        1 AZF      0.112800
      6 N           3.8050   -1.4240    0.8180 n7        1 AZF     -0.583000
      7 C5          1.9890   -1.2700   -0.7660 c3        1 AZF      0.158500
      8 C6          1.7020   -1.1940   -2.2750 c3        1 AZF      0.133400
      9 O6          1.9870   -2.4750   -2.8140 oh        1 AZF     -0.609800
     10 N2          3.4440   -1.4210   -0.5290 n7        1 AZF     -0.595000
     11 H4         -0.2930    0.7490    0.2610 ho        1 AZF      0.420000
     12 HA          1.8850    0.9310   -0.5610 h1        1 AZF      0.060700
     13 H3          1.2250   -0.8440    1.9170 h1        1 AZF      0.060700
     14 H5          1.4000   -2.1470   -0.3560 h1        1 AZF      0.064700
     15 HB          1.6670    1.2220    2.8730 ho        1 AZF      0.408000
     16 H2C1        3.5410   -0.4920    2.6580 h1        1 AZF      0.047200
     17 H2C2        3.8500    0.6960    1.3110 h1        1 AZF      0.047200
     18 H           4.8210   -1.3690    0.8200 hn        1 AZF      0.363800
     19 H2          3.6910   -2.3400   -0.8890 hn        1 AZF      0.381800
     20 H6C1        2.3350   -0.4140   -2.7740 h1        1 AZF      0.043200
     21 H6C2        0.6150   -0.9450   -2.4160 h1        1 AZF      0.043200
     22 H6          1.7850   -2.4280   -3.7550 ho        1 AZF      0.404000
@<TRIPOS>BOND
     1    1    2 1   
     2    1   11 1   
     3    2    3 1   
     4    2    7 1   
     5    2   12 1   
     6    3    4 1   
     7    3    5 1   
     8    3   13 1   
     9    4   15 1   
    10    5    6 1   
    11    5   16 1   
    12    5   17 1   
    13    6   10 1   
    14    6   18 1   
    15    7    8 1   
    16    7   10 1   
    17    7   14 1   
    18    8    9 1   
    19    8   20 1   
    20    8   21 1   
    21    9   22 1   
    22   10   19 1   
@<TRIPOS>SUBSTRUCTURE
     1 AZF         1 TEMP              0 ****  ****    0 ROOT
