@<TRIPOS>MOLECULE
AZG
   15    16     1     0     0
SMALL
bcc


@<TRIPOS>ATOM
      1 C4         -1.0190    0.0700   -0.4900 ca        1 AZG      0.568300
      2 N3         -1.4790    0.0760    0.7820 nb        1 AZG     -0.703000
      3 C2         -0.4880   -0.0670    1.7410 ca        1 AZG      0.897900
      4 N2         -0.9000   -0.1790    3.0690 nh        1 AZG     -0.927500
      5 N1          0.8940   -0.1650    1.5100 nb        1 AZG     -0.811000
      6 C6          1.3120   -0.1670    0.2320 ca        1 AZG      0.729600
      7 O6          2.6410   -0.2660   -0.0830 oh        1 AZG     -0.610300
      8 C5          0.3940   -0.0560   -0.8360 ca        1 AZG     -0.387800
      9 N7          0.4140   -0.0090   -2.2330 na        1 AZG     -0.014100
     10 N8         -0.8420    0.1260   -2.6840 nc        1 AZG     -0.116400
     11 N9         -1.7020    0.1800   -1.7540 nd        1 AZG     -0.294000
     12 HN21       -0.2160   -0.0300    3.7730 hn        1 AZG      0.435800
     13 HN22       -1.8310    0.1000    3.2780 hn        1 AZG      0.435800
     14 HO6         3.1670   -0.3450    0.7310 ho        1 AZG      0.453000
     15 HN7         1.2020   -0.0820   -2.8310 hn        1 AZG      0.344700
@<TRIPOS>BOND
     1    1    2 ar  
     2    1    8 ar  
     3    1   11 1   
     4    2    3 ar  
     5    3    4 1   
     6    3    5 ar  
     7    4   12 1   
     8    4   13 1   
     9    5    6 ar  
    10    6    7 1   
    11    6    8 ar  
    12    7   14 1   
    13    8    9 1   
    14    9   10 1   
    15    9   15 1   
    16   10   11 2   
@<TRIPOS>SUBSTRUCTURE
     1 AZG         1 TEMP              0 ****  ****    0 ROOT
