@<TRIPOS>MOLECULE
AZG
   15    10     1     0     0
SMALL
bcc


@<TRIPOS>ATOM
      1 C4         -0.4740   -0.0050   -1.2890 c1        1 AZG      0.021000
      2 N3          0.8890   -0.0050   -1.2890 n1        1 AZG     -0.177000
      3 C2          1.5720   -0.0050   -0.1080 c1        1 AZG      0.179000
      4 N2          2.9920    0.0130   -0.1420 n2        1 AZG     -0.325000
      5 N1          0.8910   -0.0050    1.0770 n2        1 AZG     -0.285000
      6 C6         -0.4530   -0.0050    1.0800 c1        1 AZG      0.231000
      7 O6         -0.5240   -0.3150    2.4560 o         1 AZG     -0.239000
      8 C5         -1.1490   -0.0050   -0.1190 c1        1 AZG     -0.212000
      9 N7         -2.4800   -0.0050   -0.4010 n1        1 AZG     -0.132000
     10 N8         -2.6230   -0.0050   -1.7470 n2        1 AZG      0.063000
     11 N9         -1.3860   -0.0050   -2.2990 n1        1 AZG     -0.132000
     12 HN21        3.4290    0.0150   -0.9420 hn        1 AZG      0.231000
     13 HN22        3.4660    0.0210    0.6370 hn        1 AZG      0.231000
     14 HO6        -0.9910    0.3110    2.8770 ho        1 AZG      0.252000
     15 HN7        -3.1580   -0.0050    0.2090 DU        1 AZG      0.295000
@<TRIPOS>BOND
     1    1    8 1   
     2    2    3 1   
     3    3    5 1   
     4    4   12 1   
     5    4   13 1   
     6    5    6 1   
     7    6    8 1   
     8    7   14 1   
     9    9   10 1   
    10   10   11 1   
@<TRIPOS>SUBSTRUCTURE
     1 AZG         1 TEMP              0 ****  ****    0 ROOT
