@<TRIPOS>MOLECULE
AZG
   16    17     1     0     0
SMALL
bcc


@<TRIPOS>ATOM
      1 C4         -0.0120    0.0320   -0.0250 ca        1 AZG      0.511300
      2 N3          1.3470    0.0280   -0.1150 nb        1 AZG     -0.579000
      3 C2          1.9600    0.0490    1.0970 ca        1 AZG      0.702900
      4 N2          3.4530    0.0460    1.0620 n4        1 AZG     -0.810300
      5 N1          1.4120    0.0730    2.3730 nb        1 AZG     -0.760000
      6 C6          0.0640    0.0770    2.4480 ca        1 AZG      0.746600
      7 O6         -0.6000    0.1000    3.6310 oh        1 AZG     -0.568300
      8 C5         -0.7220    0.0570    1.2590 ca        1 AZG     -0.286800
      9 N7         -2.0610    0.0520    0.9030 na        1 AZG      0.023900
     10 N8         -2.1620    0.0280   -0.4420 nc        1 AZG     -0.070400
     11 N9         -1.0380    0.0150   -1.0270 nd        1 AZG     -0.221000
     12 HN21        3.8010    0.8930    1.5280 hn        1 AZG      0.484133
     13 HN22        3.7980   -0.7850    1.5590 hn        1 AZG      0.484133
     14 HO6         0.0220    0.1130    4.3860 ho        1 AZG      0.481000
     15 HN7        -2.8600    0.0650    1.5050 hn        1 AZG      0.376700
     16 H23         3.7830    0.0270    0.0860 hn        1 AZG      0.484133
@<TRIPOS>BOND
     1    1    2 ar  
     2    1    8 ar  
     3    1   11 1   
     4    2    3 ar  
     5    3    4 1   
     6    3    5 ar  
     7    4   12 1   
     8    4   13 1   
     9    4   16 1   
    10    5    6 ar  
    11    6    7 1   
    12    6    8 ar  
    13    7   14 1   
    14    8    9 1   
    15    9   10 1   
    16    9   15 1   
    17   10   11 2   
@<TRIPOS>SUBSTRUCTURE
     1 AZG         1 TEMP              0 ****  ****    0 ROOT
