@<TRIPOS>MOLECULE
AZG
   15    16     1     0     0
SMALL
bcc


@<TRIPOS>ATOM
      1 C4          0.0190    0.0330   -0.0070 ca        1 AZG      0.568300
      2 N3          1.3690    0.0330   -0.0970 nb        1 AZG     -0.703000
      3 C2          2.0160   -0.0580    1.1250 ca        1 AZG      0.897900
      4 N2          3.4060   -0.1740    1.1020 nh        1 AZG     -0.927500
      5 N1          1.4110   -0.1020    2.3930 nb        1 AZG     -0.811000
      6 C6          0.0680   -0.0990    2.4410 ca        1 AZG      0.729600
      7 O6         -0.6030   -0.1460    3.6340 oh        1 AZG     -0.610300
      8 C5         -0.7040   -0.0370    1.2600 ca        1 AZG     -0.387800
      9 N7         -2.0530   -0.0030    0.8900 na        1 AZG     -0.014100
     10 N8         -2.1380    0.0740   -0.4450 nc        1 AZG     -0.116400
     11 N9         -1.0060    0.1020   -1.0170 nd        1 AZG     -0.294000
     12 HN21        3.8650    0.0680    0.2540 hn        1 AZG      0.435800
     13 HN22        3.8940    0.0110    1.9460 hn        1 AZG      0.435800
     14 HO6         0.0350   -0.1940    4.3680 ho        1 AZG      0.453000
     15 HN7        -2.8450   -0.0500    1.4850 hn        1 AZG      0.344700
@<TRIPOS>BOND
     1    1    2 ar  
     2    1    8 ar  
     3    1   11 1   
     4    2    3 ar  
     5    3    4 1   
     6    3    5 ar  
     7    4   12 1   
     8    4   13 1   
     9    5    6 ar  
    10    6    7 1   
    11    6    8 ar  
    12    7   14 1   
    13    8    9 1   
    14    9   10 1   
    15    9   15 1   
    16   10   11 2   
@<TRIPOS>SUBSTRUCTURE
     1 AZG         1 TEMP              0 ****  ****    0 ROOT
