@<TRIPOS>MOLECULE
AZH
   18    17     1     0     0
SMALL
bcc


@<TRIPOS>ATOM
      1 N           1.5300    1.8370    0.0390 n3        1 AZH     -0.911800
      2 CA          1.1820    0.4930    0.4560 c3        1 AZH      0.003500
      3 CB         -0.2080    0.0710   -0.0270 c3        1 AZH     -0.104400
      4 CG         -1.2630    0.9550    0.6020 c3        1 AZH      0.099800
      5 ND         -2.6660    0.5820    0.3760 n2        1 AZH     -0.047200
      6 NE         -3.0990   -0.4670    0.0030 n1        1 AZH      0.175000
      7 NZ         -3.7210   -1.4900   -0.1380 n2        1 AZH     -0.239400
      8 C           2.1600   -0.6570   -0.0470 c         1 AZH      0.907600
      9 O           3.2390   -0.2870   -0.5650 o         1 AZH     -0.792300
     10 OX0         1.7450   -1.8310    0.1250 o         1 AZH     -0.792300
     11 HN1         2.3160    2.1430    0.5840 hn        1 AZH      0.356300
     12 HN2         1.8370    1.8070   -0.9180 hn        1 AZH      0.356300
     13 HA          1.2040    0.4480    1.5820 h1        1 AZH      0.049700
     14 HB1C       -0.2580    0.1360   -1.1440 hc        1 AZH      0.081700
     15 HB2C       -0.3270   -1.0070    0.2770 hc        1 AZH      0.081700
     16 HG1C       -1.1500    0.9860    1.7290 h1        1 AZH      0.141200
     17 HG2C       -1.2140    2.0130    0.1970 h1        1 AZH      0.141200
     18 HZ         -3.9660   -1.7520   -1.0950 hn        1 AZH      0.492400
@<TRIPOS>BOND
     1    1    2 1   
     2    1   11 1   
     3    1   12 1   
     4    2    3 1   
     5    2    8 1   
     6    2   13 1   
     7    3    4 1   
     8    3   14 1   
     9    3   15 1   
    10    4    5 1   
    11    4   16 1   
    12    4   17 1   
    13    5    6 2   
    14    6    7 2   
    15    7   18 1   
    16    8    9 1   
    17    8   10 1   
@<TRIPOS>SUBSTRUCTURE
     1 AZH         1 TEMP              0 ****  ****    0 ROOT
