@<TRIPOS>MOLECULE
AZJ
   60    57     1     0     0
SMALL
bcc


@<TRIPOS>ATOM
      1 CAA        -0.3400   -0.4890   -0.9690 c2        1 AZJ     -0.231000
      2 NAC         6.0150   -3.8500    5.5980 n1        1 AZJ      0.003000
      3 OAD         7.8100   -0.2450   10.6950 o         1 AZJ     -0.334000
      4 OAE         2.9330   -1.9380    0.7790 o         1 AZJ     -0.326000
      5 OAF        10.4640    2.5170   11.5220 o         1 AZJ     -0.708000
      6 OAG        12.2320    0.7040   10.2850 os        1 AZJ     -0.196000
      7 CAH         5.4010   -2.8700    5.4870 c1        1 AZJ     -0.146000
      8 CAI        12.6780    1.6170   12.5850 c2        1 AZJ     -0.655000
      9 CAJ         8.0390    1.1490   15.1370 c2        1 AZJ     -0.124000
     10 CAK        13.8020    1.3370   11.9110 c2        1 AZJ     -0.062000
     11 CAL         9.1450    0.7730   14.5770 c1        1 AZJ     -0.075000
     12 CAM        13.4320    0.8110   10.5670 c1        1 AZJ      0.244000
     13 CAN         3.9590   -1.5210    4.1120 c1        1 AZJ     -0.086000
     14 CAO         0.8730   -0.5940   -1.4970 c2        1 AZJ     -0.231000
     15 CAP         7.6280    3.0790    9.8520 c2        1 AZJ     -0.152000
     16 CAQ         6.0300    1.4190    8.8860 c3        1 AZJ     -0.133000
     17 CAR         4.0030    1.0760    6.6850 c3        1 AZJ     -0.121000
     18 CAS         6.3200    1.0260    7.4320 c3        1 AZJ     -0.052000
     19 CAT        10.4260    0.0550   12.6150 c3        1 AZJ     -0.593000
     20 NAU         6.5920   -0.1200    4.8950 n2        1 AZJ     -0.099000
     21 NAV         9.5090    0.6760    9.4860 n         1 AZJ     -0.445000
     22 OAW         1.7120   -0.3880    1.8020 oh        1 AZJ     -0.304000
     23 CAX         8.1720    0.6760    9.9420 c2        1 AZJ      0.313000
     24 CAY         2.7150   -1.3110    1.8190 c2        1 AZJ      0.424000
     25 CAZ         7.0030   -0.8390    3.8350 c1        1 AZJ     -0.135000
     26 CBA        10.2770    0.3900   14.0410 c2        1 AZJ     -0.201000
     27 CBB         4.6220   -1.6440    5.3830 c3        1 AZJ      0.112000
     28 CBC         3.3850   -1.4200    3.0690 c1        1 AZJ     -0.110000
     29 CBD         5.5580   -0.4360    5.6290 c2        1 AZJ      0.098000
     30 CBE         7.2970    1.8190    9.5620 c2        1 AZJ     -0.161000
     31 NBF         5.2190    0.2970    6.8140 n3        1 AZJ     -0.229000
     32 SBG        11.2000    1.3160   11.7330 s6        1 AZJ      1.946000
     33 H1          1.2420    0.0910   -2.2720 ha        1 AZJ      0.117000
     34 H2         -1.0540    0.2880   -1.2710 ha        1 AZJ      0.117000
     35 H3         -0.7170   -1.1830   -0.2050 ha        1 AZJ      0.117000
     36 H4          7.8860   -1.8530    2.0140 ha        1 AZJ      0.244000
     37 H5          8.3540    6.3700   10.3700 ha        1 AZJ     -0.000500
     38 H6          8.2800    5.7000   10.2990 ha        1 AZJ     -0.000500
     39 H7         14.8600    1.4410   12.1910 ha        1 AZJ      0.237000
     40 H8          7.7610    2.2110   15.2490 ha        1 AZJ      0.175000
     41 H9         12.6670    2.0290   13.6070 h4        1 AZJ      0.251000
     42 H10         7.3100    0.4230   15.5380 ha        1 AZJ      0.175000
     43 H11        11.1680    0.2300   14.6750 ha        1 AZJ      0.157000
     44 H12         3.8220   -1.6890    6.1920 hc        1 AZJ      0.168000
     45 H13         1.3040   -0.3730    0.9130 ho        1 AZJ      0.264000
     46 H14         1.5880   -1.3780   -1.2000 ha        1 AZJ      0.117000
     47 H15         3.6200    1.2850    7.7190 h1        1 AZJ      0.091000
     48 H16         6.9700    3.9250    9.6000 ha        1 AZJ      0.141500
     49 H17         5.3000    2.2700    8.9120 hc        1 AZJ      0.116500
     50 H18         5.5740    0.5580    9.4460 hc        1 AZJ      0.116500
     51 H19         4.1680    2.0520    6.1530 h1        1 AZJ      0.091000
     52 H20         3.2270    0.4900    6.1250 h1        1 AZJ      0.091000
     53 H21         6.5780    1.9590    6.8520 h1        1 AZJ      0.087000
     54 H22         7.2260    0.3530    7.4260 h1        1 AZJ      0.087000
     55 H23         9.4080   -0.1580   12.1560 h1        1 AZJ      0.202500
     56 H24        11.0110   -0.9000   12.5120 h1        1 AZJ      0.202500
     57 H25         9.8740   -0.2340    9.2920 hn        1 AZJ      0.208000
     58 H26         8.5610    3.3500   10.3700 ha        1 AZJ      0.141500
     59 HAV2        9.6890    1.3250    8.7480 hn        1 AZJ      0.208000
     60 CAB         7.4750   -1.3760    2.8680 c1        1 AZJ     -0.155000
@<TRIPOS>BOND
     1    1   14 1   
     2    1   34 1   
     3    1   35 1   
     4    2    7 1   
     5    3   23 1   
     6    4   24 1   
     7    5   32 1   
     8    6   12 1   
     9    6   32 1   
    10    7   27 1   
    11    8   10 1   
    12    8   32 1   
    13    8   41 1   
    14    9   11 1   
    15    9   40 1   
    16    9   42 1   
    17   10   12 1   
    18   10   39 1   
    19   11   26 1   
    20   13   27 1   
    21   13   28 1   
    22   14   33 1   
    23   14   46 1   
    24   15   30 1   
    25   15   48 1   
    26   15   58 1   
    27   16   18 1   
    28   16   30 1   
    29   16   49 1   
    30   16   50 1   
    31   17   31 1   
    32   17   47 1   
    33   17   51 1   
    34   17   52 1   
    35   18   31 1   
    36   18   53 1   
    37   18   54 1   
    38   19   26 1   
    39   19   32 1   
    40   19   55 1   
    41   19   56 1   
    42   20   25 1   
    43   20   29 1   
    44   21   23 1   
    45   21   57 1   
    46   21   59 1   
    47   22   24 1   
    48   22   45 1   
    49   23   30 1   
    50   24   28 1   
    51   25   60 1   
    52   26   43 1   
    53   27   29 1   
    54   27   44 1   
    55   29   31 1   
    56   36   60 1   
    57   37   38 1   
@<TRIPOS>SUBSTRUCTURE
     1 AZJ         1 TEMP              0 ****  ****    0 ROOT
