@<TRIPOS>MOLECULE
AZK
   25    24     1     0     0
SMALL
bcc


@<TRIPOS>ATOM
      1 N          -1.4840    0.5730   -2.5530 n3        1 AZK     -0.906800
      2 CA         -0.5080   -0.2480   -1.8140 c3        1 AZK      0.128500
      3 CB         -0.8740   -0.2780   -0.3900 c3        1 AZK     -0.076400
      4 CG          0.4000   -0.2940    0.4680 c3        1 AZK     -0.078400
      5 CD          0.3460    0.8020    1.4760 c3        1 AZK     -0.104400
      6 CE          1.1540    0.4000    2.6650 c3        1 AZK      0.158800
      7 NZ          0.7500    1.1560    3.7850 n2        1 AZK     -0.444200
      8 NZ2         1.6730    1.4400    4.8330 n1        1 AZK      0.216000
      9 NZ3         2.6360    1.7380    5.9270 n1        1 AZK     -0.062000
     10 C          -0.5240   -1.5690   -2.3350 c3        1 AZK      0.084400
     11 O           0.1720   -0.8790   -3.3820 oh        1 AZK     -0.592800
     12 H          -1.1510    0.7430   -3.4260 hn        1 AZK      0.347300
     13 H2         -2.3480    0.0740   -2.6190 hn        1 AZK      0.347300
     14 HA          0.4380    0.1620   -1.9220 h1        1 AZK      0.075700
     15 HB2        -1.4010    0.5200   -0.1680 hc        1 AZK      0.050700
     16 HB3        -1.4490   -1.1480   -0.1910 hc        1 AZK      0.050700
     17 HG2         1.2140   -0.1630   -0.1390 hc        1 AZK      0.045700
     18 HG3         0.4760   -1.1550    0.9270 hc        1 AZK      0.045700
     19 HD2        -0.5430    0.9460    1.7340 hc        1 AZK      0.048700
     20 HD3         0.6970    1.5930    1.1060 hc        1 AZK      0.048700
     21 HE2         1.0130   -0.5480    2.8410 h1        1 AZK      0.063700
     22 HE3         2.1550    0.5680    2.4800 h1        1 AZK      0.063700
     23 HC1        -1.5270   -1.4980   -1.9790 h1        1 AZK      0.049200
     24 HC2        -1.0070   -1.9620   -3.1410 h1        1 AZK      0.049200
     25 HO         -0.3060   -0.9750   -4.1820 ho        1 AZK      0.392000
@<TRIPOS>BOND
     1    1    2 1   
     2    1   12 1   
     3    1   13 1   
     4    2    3 1   
     5    2   10 1   
     6    2   14 1   
     7    3    4 1   
     8    3   15 1   
     9    3   16 1   
    10    4    5 1   
    11    4   17 1   
    12    4   18 1   
    13    5    6 1   
    14    5   19 1   
    15    5   20 1   
    16    6    7 1   
    17    6   21 1   
    18    6   22 1   
    19    7    8 1   
    20    8    9 3   
    21   10   11 1   
    22   10   23 1   
    23   10   24 1   
    24   11   25 1   
@<TRIPOS>SUBSTRUCTURE
     1 AZK         1 TEMP              0 ****  ****    0 ROOT
