@<TRIPOS>MOLECULE
AZK
   25    24     1     0     0
SMALL
bcc


@<TRIPOS>ATOM
      1 N           3.0410    1.3330    0.0880 n3        1 AZK     -0.910800
      2 CA          2.6020   -0.0470    0.1590 c3        1 AZK      0.119500
      3 CB          1.2340   -0.3430   -0.4740 c3        1 AZK     -0.117400
      4 CG          0.1220    0.4490    0.1780 c3        1 AZK     -0.079400
      5 CD         -1.2330   -0.0100   -0.3200 c3        1 AZK     -0.103400
      6 CE         -2.3380    0.8130    0.3360 c3        1 AZK      0.158800
      7 NZ         -3.6870    0.5980   -0.1450 n2        1 AZK     -0.444200
      8 NZ2        -4.2290   -0.5330   -0.1180 n1        1 AZK      0.216000
      9 NZ3        -4.8910   -1.4530   -0.1880 n1        1 AZK     -0.059000
     10 C           3.6380   -0.9960   -0.4820 c3        1 AZK      0.141400
     11 O           4.8170   -1.0880    0.2860 oh        1 AZK     -0.599800
     12 H           3.0700    1.6490   -0.8620 hn        1 AZK      0.349800
     13 H2          2.4210    1.9210    0.6080 hn        1 AZK      0.349800
     14 HA          2.5450   -0.3110    1.2590 h1        1 AZK      0.072700
     15 HB2         1.2660   -0.1180   -1.5720 hc        1 AZK      0.048700
     16 HB3         1.0240   -1.4390   -0.3630 hc        1 AZK      0.048700
     17 HG2         0.1760    0.3270    1.2930 hc        1 AZK      0.041700
     18 HG3         0.2450    1.5420   -0.0430 hc        1 AZK      0.041700
     19 HD2        -1.2800    0.1010   -1.4350 hc        1 AZK      0.049200
     20 HD3        -1.3700   -1.0970   -0.0840 hc        1 AZK      0.049200
     21 HE2        -2.2720    0.6780    1.4560 h1        1 AZK      0.062700
     22 HE3        -2.1770    1.9070    0.1110 h1        1 AZK      0.062700
     23 HC1         3.2310   -2.0430   -0.5000 h1        1 AZK      0.043200
     24 HC2         3.8800   -0.6720   -1.5300 h1        1 AZK      0.043200
     25 HO          5.1630   -0.1940    0.4020 ho        1 AZK      0.415000
@<TRIPOS>BOND
     1    1    2 1   
     2    1   12 1   
     3    1   13 1   
     4    2    3 1   
     5    2   10 1   
     6    2   14 1   
     7    3    4 1   
     8    3   15 1   
     9    3   16 1   
    10    4    5 1   
    11    4   17 1   
    12    4   18 1   
    13    5    6 1   
    14    5   19 1   
    15    5   20 1   
    16    6    7 1   
    17    6   21 1   
    18    6   22 1   
    19    7    8 1   
    20    8    9 3   
    21   10   11 1   
    22   10   23 1   
    23   10   24 1   
    24   11   25 1   
@<TRIPOS>SUBSTRUCTURE
     1 AZK         1 TEMP              0 ****  ****    0 ROOT
