@<TRIPOS>MOLECULE
AZL
   63    59     1     0     0
SMALL
bcc


@<TRIPOS>ATOM
      1 C23         0.8370    2.1630    2.6760 c1        1 AZL      0.386000
      2 O23         1.9590    2.2520    2.2030 o         1 AZL     -0.398000
      3 O24         0.6250    1.4170    3.8830 os        1 AZL     -0.277000
      4 C24         1.8170    0.8410    4.4190 c3        1 AZL      0.000000
      5 C25         1.4440   -0.2360    5.4490 c3        1 AZL     -0.221000
      6 N9         -0.2940    2.8270    2.0130 n2        1 AZL     -0.318000
      7 C15        -0.2520    3.0690    0.6070 c3        1 AZL      0.022000
      8 C14        -0.7350    1.8520   -0.1260 c1        1 AZL      0.272000
      9 O14        -1.8590    1.3310    0.1760 o         1 AZL     -0.390000
     10 C16        -1.1700    4.3090    0.2550 c3        1 AZL     -0.122000
     11 C17        -0.6120    5.5580    0.9510 c2        1 AZL     -0.076000
     12 C18         0.5700    6.1380    0.4810 c2        1 AZL     -0.125000
     13 C22        -1.3590    6.2050    1.9260 c1        1 AZL     -0.112000
     14 C19         0.9950    7.3540    0.9850 c1        1 AZL     -0.125000
     15 C21        -0.9300    7.4280    2.4330 c1        1 AZL     -0.126000
     16 C20         0.2480    8.0020    1.9610 c1        1 AZL     -0.126000
     17 N8          0.0760    1.2750   -1.2050 n2        1 AZL     -0.315000
     18 C9         -0.2800    0.0220   -2.1000 c3        1 AZL      0.007000
     19 C8         -0.2050   -1.1090   -1.3550 c1        1 AZL      0.260000
     20 O8          0.3110   -1.0830   -0.2930 o         1 AZL     -0.365000
     21 C10         0.7880    0.1120   -3.2400 c3        1 AZL     -0.165000
     22 C11         1.3200    1.2670   -3.1280 c3        1 AZL     -0.168000
     23 C12         1.1960    1.6830   -1.6080 c3        1 AZL     -0.030000
     24 N1         -0.9160   -9.5880   -2.4040 n3        1 AZL     -0.349000
     25 C2         -0.6390   -8.5050   -1.5260 c3        1 AZL     -0.078000
     26 C3         -1.0240   -7.1890   -2.2150 c3        1 AZL     -0.161000
     27 C4         -0.5940   -5.9990   -1.3350 c3        1 AZL     -0.158000
     28 C5         -0.9380   -4.6750   -2.0510 c3        1 AZL     -0.130000
     29 N6         -0.6550   -3.5250   -1.1310 n3        1 AZL     -0.146000
     30 N7         -0.8540   -2.3140   -1.8150 n2        1 AZL     -0.296000
     31 H241        2.3470    0.4270    3.6840 h1        1 AZL      0.094500
     32 H242        2.3500    1.5370    4.8510 h1        1 AZL      0.094500
     33 H251        1.0130    0.2150    6.2860 hc        1 AZL      0.090000
     34 H252        2.2540   -0.7250    5.7200 hc        1 AZL      0.090000
     35 H253        0.7850   -0.8790    5.0380 hc        1 AZL      0.090000
     36 HN9        -1.0420    2.9940    2.4680 hn        1 AZL      0.247000
     37 H15         0.6950    3.2690    0.3320 h1        1 AZL      0.148000
     38 H161       -1.1740    4.4530   -0.7330 hc        1 AZL      0.104000
     39 H162       -2.0740    4.1430    0.5590 hc        1 AZL      0.104000
     40 H18         1.0990    5.6820   -0.2040 ha        1 AZL      0.125000
     41 H22        -2.2060    5.7920    2.2660 ha        1 AZL      0.134000
     42 H19         1.8700    7.7810    0.6350 ha        1 AZL      0.133000
     43 H21        -1.4460    7.8770    3.1070 ha        1 AZL      0.133000
     44 H20         0.5490    8.8620    2.3170 ha        1 AZL      0.133000
     45 H9         -1.2190   -0.0490   -2.4770 h1        1 AZL      0.127000
     46 H101        0.3710    0.0300   -4.0830 hc        1 AZL      0.113000
     47 H102        1.4940   -0.6140   -3.1260 hc        1 AZL      0.113000
     48 H111        0.8330    1.9290   -3.7060 hc        1 AZL      0.099000
     49 H112        2.2260    1.2260   -3.3760 hc        1 AZL      0.099000
     50 H121        1.2450    2.6830   -1.5210 h1        1 AZL      0.092500
     51 H122        1.8850    1.2840   -1.1070 h1        1 AZL      0.092500
     52 HN11       -1.5750  -10.0840   -2.0650 hn        1 AZL      0.143500
     53 HN12       -0.1680  -10.1010   -2.5050 hn        1 AZL      0.143500
     54 H21A        0.3000   -8.4950   -1.3120 h1        1 AZL      0.065000
     55 H22A       -1.1760   -8.6120   -0.6780 h1        1 AZL      0.065000
     56 H31        -2.0110   -7.1630   -2.3510 hc        1 AZL      0.088000
     57 H32        -0.5460   -7.1290   -3.1340 hc        1 AZL      0.088000
     58 H41        -1.0740   -6.0370   -0.4670 hc        1 AZL      0.088500
     59 H42         0.3570   -6.0430   -1.1790 hc        1 AZL      0.088500
     60 H51        -1.8520   -4.6720   -2.2860 h1        1 AZL      0.089000
     61 H52        -0.4000   -4.5910   -2.8500 h1        1 AZL      0.089000
     62 HN6        -1.2330   -3.5660   -0.3950 hn        1 AZL      0.162000
     63 HN7        -1.3460   -2.3020   -2.5940 hn        1 AZL      0.266000
@<TRIPOS>BOND
     1    1    2 1   
     2    1    3 1   
     3    3    4 1   
     4    4    5 1   
     5    4   31 1   
     6    4   32 1   
     7    5   33 1   
     8    5   34 1   
     9    5   35 1   
    10    6    7 1   
    11    6   36 1   
    12    7    8 1   
    13    7   10 1   
    14    7   37 1   
    15    8    9 1   
    16   10   11 1   
    17   10   38 1   
    18   10   39 1   
    19   11   12 1   
    20   11   13 1   
    21   12   14 1   
    22   12   40 1   
    23   13   41 1   
    24   14   42 1   
    25   15   16 1   
    26   15   43 1   
    27   16   44 1   
    28   17   18 1   
    29   17   23 1   
    30   18   19 1   
    31   18   21 1   
    32   18   45 1   
    33   19   20 1   
    34   21   22 1   
    35   21   46 1   
    36   21   47 1   
    37   22   23 1   
    38   22   48 1   
    39   22   49 1   
    40   23   50 1   
    41   23   51 1   
    42   24   25 1   
    43   24   52 1   
    44   24   53 1   
    45   25   26 1   
    46   25   54 1   
    47   25   55 1   
    48   26   27 1   
    49   26   56 1   
    50   26   57 1   
    51   27   28 1   
    52   27   58 1   
    53   27   59 1   
    54   28   29 1   
    55   28   60 1   
    56   28   61 1   
    57   29   30 1   
    58   29   62 1   
    59   30   63 1   
@<TRIPOS>SUBSTRUCTURE
     1 AZL         1 TEMP              0 ****  ****    0 ROOT
