@<TRIPOS>MOLECULE
AZL
   63    64     1     0     0
SMALL
bcc


@<TRIPOS>ATOM
      1 C23        -1.2110    1.5050    0.5770 c         1 AZL      0.732100
      2 O23        -1.3170    1.7090   -0.6440 o         1 AZL     -0.587000
      3 O24        -0.8500    2.5440    1.4050 os        1 AZL     -0.438900
      4 C24        -0.7210    3.8240    0.7520 c3        1 AZL      0.150400
      5 C25        -0.3390    4.8010    1.8370 c3        1 AZL     -0.103100
      6 N9         -1.4740    0.3330    1.2720 n         1 AZL     -0.508900
      7 C15        -1.5460   -0.9100    0.5440 c3        1 AZL      0.048700
      8 C14        -0.2050   -1.6880    0.6150 c         1 AZL      0.628100
      9 O14         0.4410   -1.7270    1.6850 o         1 AZL     -0.629100
     10 C16        -2.6180   -1.8640    1.1130 c3        1 AZL     -0.036100
     11 C17        -3.9960   -1.3670    0.8610 ca        1 AZL     -0.083300
     12 C18        -4.5320   -1.4090   -0.4320 ca        1 AZL     -0.118500
     13 C22        -4.7760   -0.8720    1.9120 ca        1 AZL     -0.118500
     14 C19        -5.8290   -0.9610   -0.6700 ca        1 AZL     -0.126000
     15 C21        -6.0750   -0.4250    1.6710 ca        1 AZL     -0.126000
     16 C20        -6.6030   -0.4680    0.3810 ca        1 AZL     -0.125000
     17 N8          0.2750   -2.3050   -0.5180 n         1 AZL     -0.456800
     18 C9          1.4370   -3.1880   -0.4910 c3        1 AZL      0.033700
     19 C8          2.7580   -2.3900   -0.5920 c         1 AZL      0.616100
     20 O8          3.4290   -2.3620   -1.6410 o         1 AZL     -0.604100
     21 C10         1.2940   -4.1580   -1.6840 c3        1 AZL     -0.086400
     22 C11         0.1250   -3.6480   -2.5200 c3        1 AZL     -0.089400
     23 C12        -0.5000   -2.4850   -1.7340 c3        1 AZL      0.086000
     24 N1          6.3670    4.5710   -1.3830 n3        1 AZL     -0.916800
     25 C2          6.5100    3.2570   -0.8020 c3        1 AZL      0.158800
     26 C3          5.1990    2.4740   -0.7480 c3        1 AZL     -0.082400
     27 C4          5.4230    1.1340   -0.0810 c3        1 AZL     -0.079400
     28 C5          4.1110    0.3570   -0.0300 c3        1 AZL      0.106800
     29 N6          4.2630   -0.9340    0.6770 n3        1 AZL     -0.539200
     30 N7          3.2110   -1.7990    0.5900 n         1 AZL     -0.419300
     31 H241        0.0680    3.7430   -0.0410 h1        1 AZL      0.055200
     32 H242       -1.7010    4.0840    0.2740 h1        1 AZL      0.055200
     33 H251       -1.1280    4.8430    2.6250 hc        1 AZL      0.050700
     34 H252        0.6220    4.4990    2.3180 hc        1 AZL      0.050700
     35 H253       -0.2190    5.8140    1.3840 hc        1 AZL      0.050700
     36 HN9        -1.1480    0.2790    2.2140 hn        1 AZL      0.333500
     37 H15        -1.8080   -0.6620   -0.5300 h1        1 AZL      0.108700
     38 H161       -2.4840   -2.8610    0.6120 hc        1 AZL      0.064700
     39 H162       -2.4450   -2.0140    2.2120 hc        1 AZL      0.064700
     40 H18        -3.9220   -1.7960   -1.2620 ha        1 AZL      0.129500
     41 H22        -4.3620   -0.8310    2.9300 ha        1 AZL      0.129500
     42 H19        -6.2420   -0.9940   -1.6890 ha        1 AZL      0.133000
     43 H21        -6.6820   -0.0350    2.5010 ha        1 AZL      0.133000
     44 H20        -7.6270   -0.1140    0.1920 ha        1 AZL      0.133000
     45 H9          1.4480   -3.7620    0.4830 h1        1 AZL      0.087700
     46 H101        2.2370   -4.1850   -2.2870 hc        1 AZL      0.073700
     47 H102        1.0930   -5.1880   -1.3010 hc        1 AZL      0.073700
     48 H111        0.4780   -3.2900   -3.5180 hc        1 AZL      0.059700
     49 H112       -0.6300   -4.4540   -2.6890 hc        1 AZL      0.059700
     50 H121       -1.5750   -2.7090   -1.4850 h1        1 AZL      0.053200
     51 H122       -0.4680   -1.5340   -2.3360 h1        1 AZL      0.053200
     52 HN11        7.2650    4.9940   -1.5080 hn        1 AZL      0.348300
     53 HN12        5.8980    4.5260   -2.2650 hn        1 AZL      0.348300
     54 H21A        7.2720    2.6230   -1.3490 h1        1 AZL      0.025700
     55 H22A        6.8940    3.3970    0.2500 h1        1 AZL      0.025700
     56 H31         4.4300    3.0580   -0.1780 hc        1 AZL      0.048700
     57 H32         4.8010    2.3190   -1.7850 hc        1 AZL      0.048700
     58 H41         6.1930    0.5510   -0.6520 hc        1 AZL      0.049200
     59 H42         5.8190    1.2890    0.9570 hc        1 AZL      0.049200
     60 H51         3.3490    0.9600    0.5390 h1        1 AZL      0.049700
     61 H52         3.7290    0.2260   -1.0850 h1        1 AZL      0.049700
     62 HN6         5.0750   -1.4010    0.2800 hn        1 AZL      0.366800
     63 HN7         2.5360   -1.6450    1.3220 hn        1 AZL      0.352500
@<TRIPOS>BOND
     1    1    2 2   
     2    1    3 1   
     3    1    6 1   
     4    3    4 1   
     5    4    5 1   
     6    4   31 1   
     7    4   32 1   
     8    5   33 1   
     9    5   34 1   
    10    5   35 1   
    11    6    7 1   
    12    6   36 1   
    13    7    8 1   
    14    7   10 1   
    15    7   37 1   
    16    8    9 2   
    17    8   17 1   
    18   10   11 1   
    19   10   38 1   
    20   10   39 1   
    21   11   12 ar  
    22   11   13 ar  
    23   12   14 ar  
    24   12   40 1   
    25   13   15 ar  
    26   13   41 1   
    27   14   16 ar  
    28   14   42 1   
    29   15   16 ar  
    30   15   43 1   
    31   16   44 1   
    32   17   18 1   
    33   17   23 1   
    34   18   19 1   
    35   18   21 1   
    36   18   45 1   
    37   19   20 2   
    38   19   30 1   
    39   21   22 1   
    40   21   46 1   
    41   21   47 1   
    42   22   23 1   
    43   22   48 1   
    44   22   49 1   
    45   23   50 1   
    46   23   51 1   
    47   24   25 1   
    48   24   52 1   
    49   24   53 1   
    50   25   26 1   
    51   25   54 1   
    52   25   55 1   
    53   26   27 1   
    54   26   56 1   
    55   26   57 1   
    56   27   28 1   
    57   27   58 1   
    58   27   59 1   
    59   28   29 1   
    60   28   60 1   
    61   28   61 1   
    62   29   30 1   
    63   29   62 1   
    64   30   63 1   
@<TRIPOS>SUBSTRUCTURE
     1 AZL         1 TEMP              0 ****  ****    0 ROOT
