@<TRIPOS>MOLECULE
AZM
   21    21     1     0     0
SMALL
bcc


@<TRIPOS>ATOM
      1 C1         -0.1490   -0.0460    0.2430 cc        1 AZM     -0.191700
      2 C2          0.9820    0.0490    2.3090 cc        1 AZM      0.289300
      3 C3          3.0580   -0.6000    3.5610 c         1 AZM      0.594100
      4 C4          3.9540   -0.0250    4.5920 c3        1 AZM     -0.190100
      5 N1          0.1990    0.1110   -2.4640 n4        1 AZM     -0.802500
      6 N2          1.4430    1.0300    1.3920 nd        1 AZM     -0.219000
      7 N3          0.8330    0.9710    0.2990 nd        1 AZM     -0.199000
      8 N4          1.5900   -0.0320    3.6180 n4        1 AZM     -0.663500
      9 O1         -1.5540   -1.3470   -1.3480 o         1 AZM     -0.516800
     10 O2         -1.8220    1.0670   -1.2940 o         1 AZM     -0.516800
     11 O3          3.2380   -1.4170    2.6850 o         1 AZM     -0.375100
     12 S1         -1.0850   -0.0740   -1.1470 sy        1 AZM      1.418800
     13 S2         -0.2150   -0.9050    1.6430 ss        1 AZM      0.535200
     14 H41         3.4890   -0.0200    5.6120 hc        1 AZM      0.139033
     15 H42         4.2430    1.0240    4.3110 hc        1 AZM      0.139033
     16 H43         4.8910   -0.6520    4.6290 hc        1 AZM      0.139033
     17 HN11        0.1540    1.0480   -2.8830 hn        1 AZM      0.484467
     18 HN12        1.1620   -0.0250   -2.1540 hn        1 AZM      0.484467
     19 HN4         1.0240   -0.6330    4.2290 hn        1 AZM      0.483800
     20 H13         0.0400   -0.5620   -3.2230 hn        1 AZM      0.484467
     21 H421        1.6280    0.9130    4.0360 hn        1 AZM      0.483800
@<TRIPOS>BOND
     1    1    7 2   
     2    1   12 1   
     3    1   13 1   
     4    2    6 2   
     5    2    8 1   
     6    2   13 1   
     7    3    4 1   
     8    3    8 1   
     9    3   11 2   
    10    4   14 1   
    11    4   15 1   
    12    4   16 1   
    13    5   12 1   
    14    5   17 1   
    15    5   18 1   
    16    5   20 1   
    17    6    7 1   
    18    8   19 1   
    19    8   21 1   
    20    9   12 2   
    21   10   12 2   
@<TRIPOS>SUBSTRUCTURE
     1 AZM         1 TEMP              0 ****  ****    0 ROOT
