@<TRIPOS>MOLECULE
AZM
   20    20     1     0     0
SMALL
bcc


@<TRIPOS>ATOM
      1 C1         -0.0710    0.2150    0.1100 cc        1 AZM     -0.316700
      2 C2          1.3600   -0.0280    2.0450 cc        1 AZM      0.548300
      3 C3          3.3460   -0.0080    3.5570 c         1 AZM      0.668100
      4 C4          3.6590   -0.0510    5.0260 c3        1 AZM     -0.179100
      5 N1         -0.1690   -0.3950   -2.4780 nz        1 AZM     -0.781500
      6 N2          1.9800    0.6540    0.9310 nd        1 AZM     -0.275000
      7 N3          1.2240    0.7670   -0.0440 nd        1 AZM     -0.165000
      8 N4          1.9620   -0.2550    3.2320 ns        1 AZM     -0.502400
      9 O1         -2.2240   -0.4030   -0.9590 o         1 AZM     -0.570300
     10 O2         -1.2510    1.6980   -1.5610 o         1 AZM     -0.570300
     11 O3          4.1670    0.1930    2.6680 o         1 AZM     -0.449100
     12 S1         -1.1300    0.4300   -1.0530 sy        1 AZM      1.477800
     13 S2         -0.2350   -0.4970    1.6360 ss        1 AZM      0.101200
     14 H41         3.0770    0.7280    5.5780 hc        1 AZM      0.096033
     15 H42         4.7530    0.1570    5.1550 hc        1 AZM      0.096033
     16 H43         3.4310   -1.0580    5.4530 hc        1 AZM      0.096033
     17 HN11       -0.7490   -1.0890   -2.9460 hn        1 AZM      0.458133
     18 HN12        0.0970    0.3080   -3.1690 hn        1 AZM      0.458133
     19 HN4         1.3950   -0.6320    3.9670 hn        1 AZM      0.349500
     20 H13         0.6800   -0.8580   -2.1690 hn        1 AZM      0.458133
@<TRIPOS>BOND
     1    1    7 2   
     2    1   12 1   
     3    1   13 1   
     4    2    6 2   
     5    2    8 1   
     6    2   13 1   
     7    3    4 1   
     8    3    8 1   
     9    3   11 2   
    10    4   14 1   
    11    4   15 1   
    12    4   16 1   
    13    5   12 1   
    14    5   17 1   
    15    5   18 1   
    16    5   20 1   
    17    6    7 1   
    18    8   19 1   
    19    9   12 2   
    20   10   12 2   
@<TRIPOS>SUBSTRUCTURE
     1 AZM         1 TEMP              0 ****  ****    0 ROOT
