@<TRIPOS>MOLECULE
AZM
   20    20     1     0     0
SMALL
bcc


@<TRIPOS>ATOM
      1 C1         -0.0760    0.1980    0.1130 cc        1 AZM     -0.316700
      2 C2          1.3600   -0.0450    2.0440 cc        1 AZM      0.548300
      3 C3          3.3420    0.0050    3.5610 c         1 AZM      0.668100
      4 C4          3.6550   -0.0660    5.0280 c3        1 AZM     -0.179100
      5 N1         -0.1500   -0.3470   -2.4900 n4        1 AZM     -0.781500
      6 N2          1.9560    0.6860    0.9500 nd        1 AZM     -0.275000
      7 N3          1.1990    0.7990   -0.0240 nd        1 AZM     -0.165000
      8 N4          1.9680   -0.2820    3.2260 n         1 AZM     -0.502400
      9 O1         -2.2050   -0.4670   -0.9760 o         1 AZM     -0.570300
     10 O2         -1.3060    1.6820   -1.5210 o         1 AZM     -0.570300
     11 O3          4.1560    0.2580    2.6790 o         1 AZM     -0.449100
     12 S1         -1.1410    0.4060   -1.0460 sy        1 AZM      1.477800
     13 S2         -0.2170   -0.5590    1.6200 ss        1 AZM      0.101200
     14 H41         3.0440    0.6770    5.6000 hc        1 AZM      0.096033
     15 H42         4.7400    0.1770    5.1660 hc        1 AZM      0.096033
     16 H43         3.4620   -1.0910    5.4290 hc        1 AZM      0.096033
     17 HN11        0.0920    0.3820   -3.1620 hn        1 AZM      0.458133
     18 HN12       -0.7050   -1.0490   -2.9770 hn        1 AZM      0.458133
     19 HN4         1.4140   -0.6980    3.9500 hn        1 AZM      0.349500
     20 H13         0.7150   -0.7880   -2.1920 hn        1 AZM      0.458133
@<TRIPOS>BOND
     1    1    7 2   
     2    1   12 1   
     3    1   13 1   
     4    2    6 2   
     5    2    8 1   
     6    2   13 1   
     7    3    4 1   
     8    3    8 1   
     9    3   11 2   
    10    4   14 1   
    11    4   15 1   
    12    4   16 1   
    13    5   12 1   
    14    5   17 1   
    15    5   18 1   
    16    5   20 1   
    17    6    7 1   
    18    8   19 1   
    19    9   12 2   
    20   10   12 2   
@<TRIPOS>SUBSTRUCTURE
     1 AZM         1 TEMP              0 ****  ****    0 ROOT
