@<TRIPOS>MOLECULE
AZM
   19    19     1     0     0
SMALL
bcc


@<TRIPOS>ATOM
      1 C1          0.1410   -0.0080   -0.8790 cc        1 AZM     -0.105700
      2 C2         -0.0270    0.5040    1.4300 cc        1 AZM      0.416300
      3 C3         -0.2040   -0.5750    3.6020 c         1 AZM      0.658100
      4 C4         -0.3290   -0.3780    5.0870 c3        1 AZM     -0.168100
      5 N1          1.3890    0.3440   -3.1270 n3        1 AZM     -1.016700
      6 N2          0.0450    1.6460    0.6150 nd        1 AZM     -0.363000
      7 N3          0.1320    1.3470   -0.6180 nd        1 AZM     -0.216000
      8 N4         -0.1320    0.5720    2.8080 n         1 AZM     -0.520400
      9 O1          0.5590   -1.8770   -2.4820 o         1 AZM     -0.654800
     10 O2         -1.0200   -0.1900   -3.1130 o         1 AZM     -0.654800
     11 O3         -0.1600   -1.6960    3.0610 o         1 AZM     -0.578100
     12 S1          0.2000   -0.5130   -2.5060 sy        1 AZM      1.491800
     13 S2          0.0340   -0.9290    0.5110 ss        1 AZM      0.214200
     14 H41        -0.3650   -1.3830    5.5770 hc        1 AZM      0.080367
     15 H42         0.5480    0.1890    5.4830 hc        1 AZM      0.080367
     16 H43        -1.2670    0.1790    5.3290 hc        1 AZM      0.080367
     17 HN11        2.3110    0.0010   -3.2320 hn        1 AZM      0.453800
     18 HN12        1.3020    1.2950   -3.3870 hn        1 AZM      0.453800
     19 HN4        -0.1710    1.4730    3.2340 hn        1 AZM      0.348500
@<TRIPOS>BOND
     1    1    7 2   
     2    1   12 1   
     3    1   13 1   
     4    2    6 2   
     5    2    8 1   
     6    2   13 1   
     7    3    4 1   
     8    3    8 1   
     9    3   11 2   
    10    4   14 1   
    11    4   15 1   
    12    4   16 1   
    13    5   12 1   
    14    5   17 1   
    15    5   18 1   
    16    6    7 1   
    17    8   19 1   
    18    9   12 2   
    19   10   12 2   
@<TRIPOS>SUBSTRUCTURE
     1 AZM         1 TEMP              0 ****  ****    0 ROOT
