@<TRIPOS>MOLECULE
AZN
   29    31     1     0     0
SMALL
bcc


@<TRIPOS>ATOM
      1 C2         -0.0750   -0.0160    0.0780 ca        1 AZN     -0.138600
      2 C3          0.0050    0.3000    2.5680 ca        1 AZN     -0.120600
      3 C4          1.3410    0.0190    0.0290 ca        1 AZN     -0.186600
      4 C5         -0.7790   -0.0270   -1.1270 ca        1 AZN      0.118100
      5 C8          2.1370    0.0660    1.2620 c         1 AZN      0.593300
      6 C9          1.9960    0.0190   -1.1980 ca        1 AZN      0.012000
      7 C10        -0.0820   -0.0110   -2.3790 ca        1 AZN      0.185100
      8 C11         2.1260    0.6760    3.6760 ca        1 AZN     -0.096000
      9 C12         0.0650    0.9080    4.9130 ca        1 AZN     -0.132000
     10 C14         1.4580    0.9580    4.8670 ca        1 AZN     -0.132000
     11 C13         1.3050    0.0030   -2.4190 ca        1 AZN     -0.297500
     12 C1         -0.7900   -0.0510    1.3640 c         1 AZN      0.591300
     13 C6          1.4050    0.3500    2.5210 ca        1 AZN     -0.119600
     14 C7         -0.6590    0.5770    3.7690 ca        1 AZN     -0.099000
     15 O6          3.2380    1.0490   -3.7030 o         1 AZN     -0.736200
     16 O4          2.9030   -1.2790   -3.9340 o         1 AZN     -0.736200
     17 O3         -0.9190   -0.0160   -3.4610 oh        1 AZN     -0.557100
     18 O1         -2.1520   -0.0360   -1.0800 oh        1 AZN     -0.482100
     19 O5          1.3780    0.2290   -4.9290 o         1 AZN     -0.736200
     20 O          -1.9870   -0.3500    1.4730 o         1 AZN     -0.523100
     21 O2          3.3670   -0.1010    1.2760 o         1 AZN     -0.543100
     22 S1          2.3260   -0.0010   -3.8960 s6        1 AZN      1.472100
     23 H9          3.1030    0.0420   -1.2180 ha        1 AZN      0.170000
     24 H11         3.2270    0.7040    3.6270 ha        1 AZN      0.155000
     25 H12        -0.4640    1.1290    5.8510 ha        1 AZN      0.126000
     26 H14         2.0310    1.2170    5.7690 ha        1 AZN      0.127000
     27 H7         -1.7590    0.5240    3.7940 ha        1 AZN      0.152000
     28 H3         -0.4020    0.0540   -4.2900 ho        1 AZN      0.500000
     29 H1         -2.4830   -0.0670   -1.9920 ho        1 AZN      0.433000
@<TRIPOS>BOND
     1    1    3 ar  
     2    1    4 ar  
     3    1   12 1   
     4    2   12 1   
     5    2   13 ar  
     6    2   14 ar  
     7    3    5 1   
     8    3    6 ar  
     9    4    7 ar  
    10    4   18 1   
    11    5   13 1   
    12    5   21 2   
    13    6   11 ar  
    14    6   23 1   
    15    7   11 ar  
    16    7   17 1   
    17    8   10 ar  
    18    8   13 ar  
    19    8   24 1   
    20    9   10 ar  
    21    9   14 ar  
    22    9   25 1   
    23   10   26 1   
    24   11   22 1   
    25   12   20 2   
    26   14   27 1   
    27   15   22 1   
    28   16   22 1   
    29   17   28 1   
    30   18   29 1   
    31   19   22 1   
@<TRIPOS>SUBSTRUCTURE
     1 AZN         1 TEMP              0 ****  ****    0 ROOT
