@<TRIPOS>MOLECULE
AZN
   29    31     1     0     0
SMALL
bcc


@<TRIPOS>ATOM
      1 C2          0.9150   -0.0820   -0.6250 ca        1 AZN     -0.196600
      2 C3          0.4090    0.0070   -3.0980 ca        1 AZN     -0.123600
      3 C4         -0.4810   -0.0080   -0.3590 ca        1 AZN     -0.194600
      4 C5          1.7930   -0.0970    0.4610 ca        1 AZN      0.144100
      5 C8         -1.4730    0.0120   -1.4390 c         1 AZN      0.591300
      6 C9         -0.9380    0.0450    0.9520 ca        1 AZN      0.024000
      7 C10         1.2920   -0.0280    1.8150 ca        1 AZN      0.237100
      8 C11        -1.8710    0.2200   -3.8880 ca        1 AZN     -0.098000
      9 C12        -0.0470    0.2160   -5.4700 ca        1 AZN     -0.135000
     10 C14        -1.4140    0.2890   -5.2030 ca        1 AZN     -0.126000
     11 C13        -0.0710    0.0360    2.0560 ca        1 AZN     -0.317500
     12 C1          1.4000   -0.1400   -2.0080 c         1 AZN      0.603300
     13 C6         -0.9640    0.0810   -2.8300 ca        1 AZN     -0.111600
     14 C7          0.8610    0.0740   -4.4240 ca        1 AZN     -0.094000
     15 O6         -1.7390    1.2080    3.5790 o         1 AZN     -0.736867
     16 O4         -1.5280   -1.1360    3.7830 o         1 AZN     -0.736867
     17 O3          2.2740   -0.0380    2.7570 oh        1 AZN     -0.505100
     18 O1          3.1570   -0.1630    0.3950 oh        1 AZN     -0.487100
     19 O5          0.2100    0.2700    4.5550 o         1 AZN     -0.736867
     20 O           2.6020   -0.3010   -2.2980 o         1 AZN     -0.593100
     21 O2         -2.6970   -0.0180   -1.2290 o         1 AZN     -0.545100
     22 S1         -0.8770    0.1020    3.6600 s6        1 AZN      1.473100
     23 H9         -2.0280    0.1040    1.1410 ha        1 AZN      0.172000
     24 H11        -2.9480    0.2730   -3.6600 ha        1 AZN      0.158000
     25 H12         0.3150    0.2690   -6.5070 ha        1 AZN      0.128000
     26 H14        -2.1330    0.4000   -6.0280 ha        1 AZN      0.128000
     27 H7          1.9430    0.0110   -4.6220 ha        1 AZN      0.153000
     28 H3          1.8820    0.0490    3.6510 ho        1 AZN      0.486000
     29 H1          3.4450   -0.2520   -0.5260 ho        1 AZN      0.441000
@<TRIPOS>BOND
     1    1    3 ar  
     2    1    4 ar  
     3    1   12 1   
     4    2   12 1   
     5    2   13 ar  
     6    2   14 ar  
     7    3    5 1   
     8    3    6 ar  
     9    4    7 ar  
    10    4   18 1   
    11    5   13 1   
    12    5   21 2   
    13    6   11 ar  
    14    6   23 1   
    15    7   11 ar  
    16    7   17 1   
    17    8   10 ar  
    18    8   13 ar  
    19    8   24 1   
    20    9   10 ar  
    21    9   14 ar  
    22    9   25 1   
    23   10   26 1   
    24   11   22 1   
    25   12   20 2   
    26   14   27 1   
    27   15   22 1   
    28   16   22 1   
    29   17   28 1   
    30   18   29 1   
    31   19   22 1   
@<TRIPOS>SUBSTRUCTURE
     1 AZN         1 TEMP              0 ****  ****    0 ROOT
