@<TRIPOS>MOLECULE
AZN
   29    25     1     0     0
SMALL
bcc


@<TRIPOS>ATOM
      1 C2         -0.7320   -0.0360   -0.4430 c1        1 AZN     -0.176000
      2 C3         -0.7410   -0.0650    2.2120 c1        1 AZN     -0.103000
      3 C4          0.6460    0.0280   -0.4380 c1        1 AZN     -0.174000
      4 C5         -1.4290   -0.0340   -1.6600 c1        1 AZN      0.099000
      5 C8          1.4080    0.0480    0.8920 c2        1 AZN      0.311000
      6 C9          1.3490    0.0950   -1.6500 c1        1 AZN      0.024000
      7 C10        -0.7330    0.0330   -2.8600 c1        1 AZN      0.192000
      8 C11         1.3340    0.0180    3.4350 c1        1 AZN     -0.098000
      9 C12        -0.7540   -0.0920    4.6290 c1        1 AZN     -0.130500
     10 C14         0.6360   -0.0280    4.6350 c1        1 AZN     -0.130500
     11 C13         0.6580    0.0980   -2.8550 c1        1 AZN     -0.762000
     12 C1         -1.5020   -0.0860    0.8810 c1        1 AZN      0.323000
     13 C6          0.6380   -0.0020    2.2170 c2        1 AZN     -0.091000
     14 C7         -1.4450   -0.1110    3.4240 c1        1 AZN     -0.094000
     15 O6          1.8580    1.7000   -4.6640 o         1 AZN     -1.059667
     16 O4          3.0740   -0.3730   -3.9980 o         1 AZN     -1.059667
     17 O3         -1.3350    0.2940   -4.1050 oh        1 AZN     -0.259000
     18 O1         -2.8290    0.1120   -1.6550 oh        1 AZN     -0.241000
     19 O5          1.2330   -0.5940   -5.4150 o         1 AZN     -1.059667
     20 O          -2.7140   -0.1750    0.8770 o         1 AZN     -0.354000
     21 O2          2.6220    0.0690    0.8960 o         1 AZN     -0.306000
     22 S1          1.7240    0.2490   -4.2630 s6        1 AZN      2.886000
     23 H9          2.3240    0.1400   -1.6470 ha        1 AZN      0.172000
     24 H11         2.3090    0.0630    3.4390 ha        1 AZN      0.158000
     25 H12        -1.2450   -0.1240    5.4730 ha        1 AZN      0.128000
     26 H14         1.1210   -0.0140    5.4820 ha        1 AZN      0.128000
     27 H7         -2.4190   -0.1710    3.4210 ha        1 AZN      0.153000
     28 H3         -1.8500   -0.3940   -4.3350 ho        1 AZN      0.285000
     29 H1         -3.2070   -0.6470   -1.9250 ho        1 AZN      0.240000
@<TRIPOS>BOND
     1    1    4 1   
     2    1   12 1   
     3    2   13 1   
     4    2   14 1   
     5    3    5 1   
     6    3    6 1   
     7    4   18 1   
     8    5   13 1   
     9    5   21 1   
    10    6   23 1   
    11    7   11 1   
    12    7   17 1   
    13    8   13 1   
    14    8   24 1   
    15    9   10 1   
    16    9   25 1   
    17   10   26 1   
    18   11   22 1   
    19   12   20 1   
    20   14   27 1   
    21   15   22 1   
    22   16   22 1   
    23   17   28 1   
    24   18   29 1   
    25   19   22 1   
@<TRIPOS>SUBSTRUCTURE
     1 AZN         1 TEMP              0 ****  ****    0 ROOT
