@<TRIPOS>MOLECULE
AZN
   29    31     1     0     0
SMALL
bcc


@<TRIPOS>ATOM
      1 C2         -0.0760   -0.0120    0.0780 ca        1 AZN     -0.138600
      2 C3          0.0020    0.3120    2.5670 ca        1 AZN     -0.120600
      3 C4          1.3400    0.0150    0.0310 ca        1 AZN     -0.186600
      4 C5         -0.7790   -0.0220   -1.1290 ca        1 AZN      0.118100
      5 C8          2.1350    0.0600    1.2650 c         1 AZN      0.593300
      6 C9          1.9970    0.0060   -1.1960 ca        1 AZN      0.012000
      7 C10        -0.0790   -0.0150   -2.3790 ca        1 AZN      0.185100
      8 C11         2.1240    0.6780    3.6770 ca        1 AZN     -0.096000
      9 C12         0.0620    0.9270    4.9100 ca        1 AZN     -0.132000
     10 C14         1.4560    0.9680    4.8650 ca        1 AZN     -0.132000
     11 C13         1.3080   -0.0100   -2.4180 ca        1 AZN     -0.297500
     12 C1         -0.7930   -0.0380    1.3620 c         1 AZN      0.591300
     13 C6          1.4020    0.3530    2.5220 ca        1 AZN     -0.119600
     14 C7         -0.6620    0.5960    3.7660 ca        1 AZN     -0.099000
     15 O6          3.2490    1.0200   -3.7030 o         1 AZN     -0.736200
     16 O4          2.9010   -1.3070   -3.9250 o         1 AZN     -0.736200
     17 O3         -0.9150   -0.0190   -3.4620 oh        1 AZN     -0.557100
     18 O1         -2.1520   -0.0230   -1.0840 oh        1 AZN     -0.482100
     19 O5          1.3860    0.2060   -4.9280 o         1 AZN     -0.736200
     20 O          -1.9920   -0.3290    1.4700 o         1 AZN     -0.523100
     21 O2          3.3630   -0.1140    1.2820 o         1 AZN     -0.543100
     22 S1          2.3310   -0.0250   -3.8930 s6        1 AZN      1.472100
     23 H9          3.1040    0.0220   -1.2140 ha        1 AZN      0.170000
     24 H11         3.2250    0.6980    3.6290 ha        1 AZN      0.155000
     25 H12        -0.4660    1.1540    5.8460 ha        1 AZN      0.126000
     26 H14         2.0290    1.2260    5.7670 ha        1 AZN      0.127000
     27 H7         -1.7620    0.5510    3.7890 ha        1 AZN      0.152000
     28 H3         -0.3960    0.0450   -4.2910 ho        1 AZN      0.500000
     29 H1         -2.4810   -0.0540   -1.9960 ho        1 AZN      0.433000
@<TRIPOS>BOND
     1    1    3 ar  
     2    1    4 ar  
     3    1   12 1   
     4    2   12 1   
     5    2   13 ar  
     6    2   14 ar  
     7    3    5 1   
     8    3    6 ar  
     9    4    7 ar  
    10    4   18 1   
    11    5   13 1   
    12    5   21 2   
    13    6   11 ar  
    14    6   23 1   
    15    7   11 ar  
    16    7   17 1   
    17    8   10 ar  
    18    8   13 ar  
    19    8   24 1   
    20    9   10 ar  
    21    9   14 ar  
    22    9   25 1   
    23   10   26 1   
    24   11   22 1   
    25   12   20 2   
    26   14   27 1   
    27   15   22 1   
    28   16   22 1   
    29   17   28 1   
    30   18   29 1   
    31   19   22 1   
@<TRIPOS>SUBSTRUCTURE
     1 AZN         1 TEMP              0 ****  ****    0 ROOT
