@<TRIPOS>MOLECULE
AZO
   47    49     1     0     0
SMALL
bcc


@<TRIPOS>ATOM
      1 N1         -1.0140   -0.3390   -2.3780 n1        1 AZO     -0.355800
      2 C1         -0.4290    0.0180   -1.4380 cg        1 AZO      0.241800
      3 C2          0.2920    0.4510   -0.2940 ca        1 AZO     -0.010000
      4 C3          1.5580    1.0360   -0.4510 ca        1 AZO     -0.083000
      5 C4          2.2770    1.4640    0.6620 ca        1 AZO     -0.137000
      6 C5          1.7480    1.3140    1.9450 ca        1 AZO     -0.100000
      7 C6          0.4970    0.7290    2.1260 ca        1 AZO     -0.131000
      8 C7         -0.2290    0.3060    1.0040 ca        1 AZO      0.141100
      9 O1         -1.5330   -0.1360    1.2380 os        1 AZO     -0.361400
     10 C8         -1.8370   -1.4550    0.9370 ca        1 AZO      0.661600
     11 C9         -3.1890   -1.8070    1.1530 ca        1 AZO     -0.386600
     12 C10        -3.5150   -3.1580    0.8640 ca        1 AZO      0.674600
     13 N3         -2.6040   -4.0640    0.4060 nb        1 AZO     -0.752000
     14 C11        -1.3450   -3.5850    0.2450 ca        1 AZO      0.689900
     15 N2         -0.8920   -2.3280    0.4850 nb        1 AZO     -0.763000
     16 O2         -4.8370   -3.4800    1.0960 os        1 AZO     -0.352400
     17 C12        -5.2580   -4.7870    0.8170 ca        1 AZO      0.117100
     18 C13        -5.2480   -5.2650   -0.4980 ca        1 AZO     -0.122000
     19 C14        -5.8000   -6.5150   -0.7680 ca        1 AZO     -0.113000
     20 C15        -6.3560   -7.2730    0.2620 ca        1 AZO     -0.132000
     21 C16        -6.3630   -6.7890    1.5680 ca        1 AZO     -0.095000
     22 C17        -5.8080   -5.5380    1.8730 ca        1 AZO     -0.016800
     23 C18        -5.8280   -5.0430    3.2480 ce        1 AZO     -0.173400
     24 C19        -6.9820   -4.2170    3.6320 c         1 AZO      0.654300
     25 O3         -8.0320   -4.0100    3.0210 o         1 AZO     -0.527000
     26 O4         -6.8420   -3.6100    4.8620 os        1 AZO     -0.462900
     27 C20        -7.9240   -2.7840    5.2880 c3        1 AZO      0.130700
     28 C21        -4.8650   -5.3060    4.1650 c2        1 AZO      0.112100
     29 O5         -3.7960   -6.0930    3.8220 os        1 AZO     -0.310900
     30 C22        -2.8470   -6.2810    4.8740 c3        1 AZO      0.107700
     31 H3          1.9790    1.1540   -1.4620 ha        1 AZO      0.149000
     32 H4          3.2680    1.9220    0.5270 ha        1 AZO      0.143000
     33 H5          2.3220    1.6530    2.8210 ha        1 AZO      0.142000
     34 H6          0.0660    0.6040    3.1300 ha        1 AZO      0.155000
     35 H9         -3.9340   -1.0910    1.5130 ha        1 AZO      0.186000
     36 H11        -0.5920   -4.3110   -0.1300 h5        1 AZO      0.061100
     37 H13        -4.8040   -4.6580   -1.3000 ha        1 AZO      0.150000
     38 H14        -5.7970   -6.9010   -1.7990 ha        1 AZO      0.137000
     39 H15        -6.7930   -8.2590    0.0440 ha        1 AZO      0.135000
     40 H16        -6.8080   -7.3890    2.3760 ha        1 AZO      0.139000
     41 H201       -7.5870   -2.3970    6.2820 h1        1 AZO      0.049367
     42 H202       -8.8550   -3.3940    5.3810 h1        1 AZO      0.049367
     43 H203       -8.0830   -1.9540    4.5580 h1        1 AZO      0.049367
     44 H21        -4.9010   -4.9140    5.1970 h4        1 AZO      0.158000
     45 H221       -3.3260   -6.7930    5.7430 h1        1 AZO      0.050367
     46 H222       -2.0660   -6.9320    4.4080 h1        1 AZO      0.050367
     47 H223       -2.4130   -5.3010    5.1870 h1        1 AZO      0.050367
@<TRIPOS>BOND
     1    1    2 3   
     2    2    3 1   
     3    3    4 ar  
     4    3    8 ar  
     5    4    5 ar  
     6    4   31 1   
     7    5    6 ar  
     8    5   32 1   
     9    6    7 ar  
    10    6   33 1   
    11    7    8 ar  
    12    7   34 1   
    13    8    9 1   
    14    9   10 1   
    15   10   11 ar  
    16   10   15 ar  
    17   11   12 ar  
    18   11   35 1   
    19   12   13 ar  
    20   12   16 1   
    21   13   14 ar  
    22   14   15 ar  
    23   14   36 1   
    24   16   17 1   
    25   17   18 ar  
    26   17   22 ar  
    27   18   19 ar  
    28   18   37 1   
    29   19   20 ar  
    30   19   38 1   
    31   20   21 ar  
    32   20   39 1   
    33   21   22 ar  
    34   21   40 1   
    35   22   23 1   
    36   23   24 1   
    37   23   28 2   
    38   24   25 2   
    39   24   26 1   
    40   26   27 1   
    41   27   41 1   
    42   27   42 1   
    43   27   43 1   
    44   28   29 1   
    45   28   44 1   
    46   29   30 1   
    47   30   45 1   
    48   30   46 1   
    49   30   47 1   
@<TRIPOS>SUBSTRUCTURE
     1 AZO         1 TEMP              0 ****  ****    0 ROOT
