@<TRIPOS>MOLECULE
AZO
   47    49     1     0     0
SMALL
bcc


@<TRIPOS>ATOM
      1 N1         -4.2710    2.6750   -1.5760 n1        1 AZO     -0.355800
      2 C1         -4.7250    1.6990   -1.1360 cg        1 AZO      0.241800
      3 C2         -5.2840    0.5110   -0.5950 ca        1 AZO     -0.010000
      4 C3         -6.6410    0.4820   -0.2380 ca        1 AZO     -0.083000
      5 C4         -7.2030   -0.6760    0.2950 ca        1 AZO     -0.137000
      6 C5         -6.4220   -1.8170    0.4830 ca        1 AZO     -0.100000
      7 C6         -5.0710   -1.8100    0.1440 ca        1 AZO     -0.131000
      8 C7         -4.5100   -0.6460   -0.4000 ca        1 AZO      0.141100
      9 O1         -3.1920   -0.7470   -0.8540 os        1 AZO     -0.361400
     10 C8         -2.2290    0.0390   -0.2370 ca        1 AZO      0.661600
     11 C9         -0.9350   -0.0830   -0.7890 ca        1 AZO     -0.386600
     12 C10         0.0660    0.7020   -0.1610 ca        1 AZO      0.674600
     13 N3         -0.1840    1.5230    0.8990 nb        1 AZO     -0.752000
     14 C11        -1.4730    1.5390    1.3230 ca        1 AZO      0.689900
     15 N2         -2.5260    0.8420    0.8240 nb        1 AZO     -0.763000
     16 O2          1.3240    0.5560   -0.7100 os        1 AZO     -0.352400
     17 C12         2.3750    1.3100   -0.1690 ca        1 AZO      0.117100
     18 C13         2.3630    2.7060   -0.2680 ca        1 AZO     -0.122000
     19 C14         3.4800    3.4240    0.1520 ca        1 AZO     -0.113000
     20 C15         4.5930    2.7540    0.6610 ca        1 AZO     -0.132000
     21 C16         4.5960    1.3640    0.7540 ca        1 AZO     -0.095000
     22 C17         3.4830    0.6150    0.3470 ca        1 AZO     -0.016800
     23 C18         3.5060   -0.8440    0.4480 ce        1 AZO     -0.173400
     24 C19         3.9710   -1.5770   -0.7380 c         1 AZO      0.654300
     25 O3          4.5130   -1.1490   -1.7580 o         1 AZO     -0.527000
     26 O4          3.7700   -2.9390   -0.6590 os        1 AZO     -0.462900
     27 C20         4.1920   -3.7080   -1.7850 c3        1 AZO      0.130700
     28 C21         3.1350   -1.5360    1.5530 c2        1 AZO      0.112100
     29 O5          2.7180   -0.8590    2.6710 os        1 AZO     -0.310900
     30 C22         2.3420   -1.7050    3.7600 c3        1 AZO      0.107700
     31 H3         -7.2590    1.3810   -0.3840 ha        1 AZO      0.149000
     32 H4         -8.2680   -0.6880    0.5700 ha        1 AZO      0.143000
     33 H5         -6.8720   -2.7280    0.9070 ha        1 AZO      0.142000
     34 H6         -4.4420   -2.7010    0.2860 ha        1 AZO      0.155000
     35 H9         -0.7170   -0.7310   -1.6440 ha        1 AZO      0.186000
     36 H11        -1.6940    2.2050    2.1840 h5        1 AZO      0.061100
     37 H13         1.4780    3.2210   -0.6690 ha        1 AZO      0.150000
     38 H14         3.4820    4.5210    0.0790 ha        1 AZO      0.137000
     39 H15         5.4740    3.3240    0.9890 ha        1 AZO      0.135000
     40 H16         5.4790    0.8410    1.1520 ha        1 AZO      0.139000
     41 H201        3.6480   -3.3740   -2.7010 h1        1 AZO      0.049367
     42 H202        5.2930   -3.5950   -1.9330 h1        1 AZO      0.049367
     43 H203        3.9210   -4.7560   -1.5060 h1        1 AZO      0.049367
     44 H21         3.1550   -2.6390    1.6020 h4        1 AZO      0.158000
     45 H221        2.0360   -0.9820    4.5570 h1        1 AZO      0.050367
     46 H222        1.4860   -2.3590    3.4660 h1        1 AZO      0.050367
     47 H223        3.2120   -2.3210    4.0920 h1        1 AZO      0.050367
@<TRIPOS>BOND
     1    1    2 3   
     2    2    3 1   
     3    3    4 ar  
     4    3    8 ar  
     5    4    5 ar  
     6    4   31 1   
     7    5    6 ar  
     8    5   32 1   
     9    6    7 ar  
    10    6   33 1   
    11    7    8 ar  
    12    7   34 1   
    13    8    9 1   
    14    9   10 1   
    15   10   11 ar  
    16   10   15 ar  
    17   11   12 ar  
    18   11   35 1   
    19   12   13 ar  
    20   12   16 1   
    21   13   14 ar  
    22   14   15 ar  
    23   14   36 1   
    24   16   17 1   
    25   17   18 ar  
    26   17   22 ar  
    27   18   19 ar  
    28   18   37 1   
    29   19   20 ar  
    30   19   38 1   
    31   20   21 ar  
    32   20   39 1   
    33   21   22 ar  
    34   21   40 1   
    35   22   23 1   
    36   23   24 1   
    37   23   28 2   
    38   24   25 2   
    39   24   26 1   
    40   26   27 1   
    41   27   41 1   
    42   27   42 1   
    43   27   43 1   
    44   28   29 1   
    45   28   44 1   
    46   29   30 1   
    47   30   45 1   
    48   30   46 1   
    49   30   47 1   
@<TRIPOS>SUBSTRUCTURE
     1 AZO         1 TEMP              0 ****  ****    0 ROOT
