@<TRIPOS>MOLECULE
AZO
   47    49     1     0     0
SMALL
bcc


@<TRIPOS>ATOM
      1 N1         -1.0020   -0.3470   -2.3770 n1        1 AZO     -0.355800
      2 C1         -0.4190    0.0110   -1.4360 cg        1 AZO      0.241800
      3 C2          0.2990    0.4450   -0.2910 ca        1 AZO     -0.010000
      4 C3          1.5660    1.0290   -0.4460 ca        1 AZO     -0.083000
      5 C4          2.2820    1.4580    0.6680 ca        1 AZO     -0.137000
      6 C5          1.7500    1.3100    1.9500 ca        1 AZO     -0.100000
      7 C6          0.4980    0.7270    2.1290 ca        1 AZO     -0.131000
      8 C7         -0.2250    0.3030    1.0060 ca        1 AZO      0.141100
      9 O1         -1.5300   -0.1380    1.2380 os        1 AZO     -0.361400
     10 C8         -1.8350   -1.4570    0.9370 ca        1 AZO      0.661600
     11 C9         -3.1870   -1.8080    1.1510 ca        1 AZO     -0.386600
     12 C10        -3.5130   -3.1580    0.8640 ca        1 AZO      0.674600
     13 N3         -2.6030   -4.0660    0.4090 nb        1 AZO     -0.752000
     14 C11        -1.3430   -3.5880    0.2500 ca        1 AZO      0.689900
     15 N2         -0.8890   -2.3310    0.4890 nb        1 AZO     -0.763000
     16 O2         -4.8360   -3.4790    1.0930 os        1 AZO     -0.352400
     17 C12        -5.2580   -4.7860    0.8150 ca        1 AZO      0.117100
     18 C13        -5.2470   -5.2660   -0.4990 ca        1 AZO     -0.122000
     19 C14        -5.7990   -6.5160   -0.7700 ca        1 AZO     -0.113000
     20 C15        -6.3570   -7.2720    0.2610 ca        1 AZO     -0.132000
     21 C16        -6.3660   -6.7860    1.5660 ca        1 AZO     -0.095000
     22 C17        -5.8100   -5.5360    1.8700 ca        1 AZO     -0.016800
     23 C18        -5.8320   -5.0390    3.2460 ce        1 AZO     -0.173400
     24 C19        -6.9830   -4.2080    3.6250 c         1 AZO      0.654300
     25 O3         -8.0310   -3.9980    3.0120 o         1 AZO     -0.527000
     26 O4         -6.8430   -3.5990    4.8540 os        1 AZO     -0.462900
     27 C20        -7.9230   -2.7690    5.2780 c3        1 AZO      0.130700
     28 C21        -4.8730   -5.3050    4.1650 c2        1 AZO      0.112100
     29 O5         -3.8060   -6.0970    3.8250 os        1 AZO     -0.310900
     30 C22        -2.8600   -6.2870    4.8800 c3        1 AZO      0.107700
     31 H3          1.9900    1.1450   -1.4560 ha        1 AZO      0.149000
     32 H4          3.2750    1.9150    0.5350 ha        1 AZO      0.143000
     33 H5          2.3220    1.6510    2.8260 ha        1 AZO      0.142000
     34 H6          0.0650    0.6040    3.1320 ha        1 AZO      0.155000
     35 H9         -3.9320   -1.0910    1.5090 ha        1 AZO      0.186000
     36 H11        -0.5900   -4.3150   -0.1220 h5        1 AZO      0.061100
     37 H13        -4.8010   -4.6600   -1.3010 ha        1 AZO      0.150000
     38 H14        -5.7950   -6.9020   -1.8000 ha        1 AZO      0.137000
     39 H15        -6.7950   -8.2570    0.0430 ha        1 AZO      0.135000
     40 H16        -6.8120   -7.3860    2.3740 ha        1 AZO      0.139000
     41 H201       -7.5870   -2.3820    6.2710 h1        1 AZO      0.049367
     42 H202       -8.8570   -3.3750    5.3690 h1        1 AZO      0.049367
     43 H203       -8.0770   -1.9400    4.5450 h1        1 AZO      0.049367
     44 H21        -4.9090   -4.9130    5.1970 h4        1 AZO      0.158000
     45 H221       -3.3430   -6.7960    5.7480 h1        1 AZO      0.050367
     46 H222       -2.0800   -6.9420    4.4170 h1        1 AZO      0.050367
     47 H223       -2.4230   -5.3090    5.1920 h1        1 AZO      0.050367
@<TRIPOS>BOND
     1    1    2 3   
     2    2    3 1   
     3    3    4 ar  
     4    3    8 ar  
     5    4    5 ar  
     6    4   31 1   
     7    5    6 ar  
     8    5   32 1   
     9    6    7 ar  
    10    6   33 1   
    11    7    8 ar  
    12    7   34 1   
    13    8    9 1   
    14    9   10 1   
    15   10   11 ar  
    16   10   15 ar  
    17   11   12 ar  
    18   11   35 1   
    19   12   13 ar  
    20   12   16 1   
    21   13   14 ar  
    22   14   15 ar  
    23   14   36 1   
    24   16   17 1   
    25   17   18 ar  
    26   17   22 ar  
    27   18   19 ar  
    28   18   37 1   
    29   19   20 ar  
    30   19   38 1   
    31   20   21 ar  
    32   20   39 1   
    33   21   22 ar  
    34   21   40 1   
    35   22   23 1   
    36   23   24 1   
    37   23   28 2   
    38   24   25 2   
    39   24   26 1   
    40   26   27 1   
    41   27   41 1   
    42   27   42 1   
    43   27   43 1   
    44   28   29 1   
    45   28   44 1   
    46   29   30 1   
    47   30   45 1   
    48   30   46 1   
    49   30   47 1   
@<TRIPOS>SUBSTRUCTURE
     1 AZO         1 TEMP              0 ****  ****    0 ROOT
