@<TRIPOS>MOLECULE
AZO
   47    49     1     0     0
SMALL
bcc


@<TRIPOS>ATOM
      1 N1         -0.9700   -0.3550   -2.3890 n1        1 AZO     -0.355800
      2 C1         -0.3800   -0.0050   -1.4500 cg        1 AZO      0.241800
      3 C2          0.3480    0.4200   -0.3080 ca        1 AZO     -0.010000
      4 C3          1.6200    0.9920   -0.4670 ca        1 AZO     -0.083000
      5 C4          2.3460    1.4120    0.6440 ca        1 AZO     -0.137000
      6 C5          1.8180    1.2670    1.9290 ca        1 AZO     -0.100000
      7 C6          0.5610    0.6960    2.1120 ca        1 AZO     -0.131000
      8 C7         -0.1710    0.2810    0.9910 ca        1 AZO      0.141100
      9 O1         -1.4790   -0.1480    1.2290 os        1 AZO     -0.361400
     10 C8         -1.7990   -1.4630    0.9270 ca        1 AZO      0.661600
     11 C9         -3.1530   -1.8010    1.1470 ca        1 AZO     -0.386600
     12 C10        -3.4940   -3.1470    0.8580 ca        1 AZO      0.674600
     13 N3         -2.5950   -4.0640    0.3970 nb        1 AZO     -0.752000
     14 C11        -1.3310   -3.5980    0.2330 ca        1 AZO      0.689900
     15 N2         -0.8640   -2.3460    0.4720 nb        1 AZO     -0.763000
     16 O2         -4.8190   -3.4560    1.0930 os        1 AZO     -0.352400
     17 C12        -5.2560   -4.7580    0.8150 ca        1 AZO      0.117100
     18 C13        -5.2540   -5.2360   -0.5000 ca        1 AZO     -0.122000
     19 C14        -5.8200   -6.4800   -0.7700 ca        1 AZO     -0.113000
     20 C15        -6.3810   -7.2320    0.2620 ca        1 AZO     -0.132000
     21 C16        -6.3800   -6.7480    1.5680 ca        1 AZO     -0.095000
     22 C17        -5.8100   -5.5030    1.8710 ca        1 AZO     -0.016800
     23 C18        -5.8220   -5.0080    3.2470 ce        1 AZO     -0.173400
     24 C19        -6.9670   -4.1710    3.6340 c         1 AZO      0.653300
     25 O3         -8.0160   -3.9540    3.0260 o         1 AZO     -0.527000
     26 O4         -6.8170   -3.5670    4.8640 os        1 AZO     -0.462900
     27 C20        -7.8910   -2.7310    5.2940 c3        1 AZO      0.130700
     28 C21        -4.8590   -5.2810    4.1610 c2        1 AZO      0.112100
     29 O5         -3.7980   -6.0770    3.8140 os        1 AZO     -0.310900
     30 C22        -2.8480   -6.2750    4.8640 c3        1 AZO      0.107700
     31 H3          2.0410    1.1050   -1.4790 ha        1 AZO      0.149000
     32 H4          3.3420    1.8590    0.5080 ha        1 AZO      0.143000
     33 H5          2.3980    1.6000    2.8030 ha        1 AZO      0.142000
     34 H6          0.1310    0.5750    3.1170 ha        1 AZO      0.155000
     35 H9         -3.8900   -1.0770    1.5080 ha        1 AZO      0.186000
     36 H11        -0.5870   -4.3310   -0.1440 h5        1 AZO      0.061100
     37 H13        -4.8060   -4.6330   -1.3030 ha        1 AZO      0.150000
     38 H14        -5.8240   -6.8650   -1.8000 ha        1 AZO      0.137000
     39 H15        -6.8300   -8.2130    0.0440 ha        1 AZO      0.135000
     40 H16        -6.8300   -7.3440    2.3760 ha        1 AZO      0.139000
     41 H201       -8.0430   -1.8990    4.5650 h1        1 AZO      0.049367
     42 H202       -8.8270   -3.3310    5.3880 h1        1 AZO      0.049367
     43 H203       -7.5480   -2.3480    6.2870 h1        1 AZO      0.049367
     44 H21        -4.8880   -4.8890    5.1930 h4        1 AZO      0.158000
     45 H221       -2.0750   -6.9330    4.3950 h1        1 AZO      0.050367
     46 H222       -2.4040   -5.2990    5.1750 h1        1 AZO      0.050367
     47 H223       -3.3290   -6.7820    5.7340 h1        1 AZO      0.050367
@<TRIPOS>BOND
     1    1    2 3   
     2    2    3 1   
     3    3    4 ar  
     4    3    8 ar  
     5    4    5 ar  
     6    4   31 1   
     7    5    6 ar  
     8    5   32 1   
     9    6    7 ar  
    10    6   33 1   
    11    7    8 ar  
    12    7   34 1   
    13    8    9 1   
    14    9   10 1   
    15   10   11 ar  
    16   10   15 ar  
    17   11   12 ar  
    18   11   35 1   
    19   12   13 ar  
    20   12   16 1   
    21   13   14 ar  
    22   14   15 ar  
    23   14   36 1   
    24   16   17 1   
    25   17   18 ar  
    26   17   22 ar  
    27   18   19 ar  
    28   18   37 1   
    29   19   20 ar  
    30   19   38 1   
    31   20   21 ar  
    32   20   39 1   
    33   21   22 ar  
    34   21   40 1   
    35   22   23 1   
    36   23   24 1   
    37   23   28 2   
    38   24   25 2   
    39   24   26 1   
    40   26   27 1   
    41   27   41 1   
    42   27   42 1   
    43   27   43 1   
    44   28   29 1   
    45   28   44 1   
    46   29   30 1   
    47   30   45 1   
    48   30   46 1   
    49   30   47 1   
@<TRIPOS>SUBSTRUCTURE
     1 AZO         1 TEMP              0 ****  ****    0 ROOT
