@<TRIPOS>MOLECULE
AZO
   47    41     1     0     0
SMALL
bcc


@<TRIPOS>ATOM
      1 N1         -1.4500    3.3810   -3.9180 n1        1 AZO     -0.030000
      2 C1         -0.3130    3.3460   -3.9860 c1        1 AZO     -0.089000
      3 C2          1.1970    3.3000   -4.0770 c1        1 AZO     -0.010000
      4 C3          1.8210    3.4360   -5.3070 c2        1 AZO     -0.084000
      5 C4          3.2050    3.4560   -5.3830 c1        1 AZO     -0.137000
      6 C5          3.9650    3.3410   -4.2300 c1        1 AZO     -0.111750
      7 C6          3.3400    3.2050   -3.0000 c1        1 AZO     -0.111750
      8 C7          1.9560    3.1850   -2.9230 c1        1 AZO      0.094000
      9 O1          1.3230    3.1100   -1.6700 os        1 AZO     -0.145000
     10 C8          1.1890    1.7620   -1.2930 c2        1 AZO      0.166000
     11 C9          0.1110    1.3640   -0.5560 c2        1 AZO     -0.259000
     12 C10         0.0120    0.0680   -0.1390 c1        1 AZO      0.175000
     13 N3          0.9730   -0.8130   -0.4540 n1        1 AZO     -0.226000
     14 C11         2.0490   -0.4150   -1.1900 c1        1 AZO      0.026000
     15 N2          2.1490    0.8790   -1.6070 n1        1 AZO     -0.240000
     16 O2         -1.0630   -0.3270    0.6780 os        1 AZO     -0.136000
     17 C12        -1.2110   -1.7240    0.6150 c2        1 AZO      0.067000
     18 C13        -1.1600   -2.3710   -0.6090 c2        1 AZO     -0.125000
     19 C14        -1.3520   -3.7430   -0.6760 c1        1 AZO     -0.115000
     20 C15        -1.5940   -4.4660    0.4810 c1        1 AZO     -0.111750
     21 C16        -1.6440   -3.8190    1.7050 c1        1 AZO     -0.111750
     22 C17        -1.4530   -2.4470    1.7730 c1        1 AZO     -0.008000
     23 C18        -1.5850   -1.7300    3.0990 c2        1 AZO     -0.174000
     24 C19        -0.4750   -1.8210    4.1220 c2        1 AZO      0.355000
     25 O3         -0.4020   -2.7870    4.8550 o         1 AZO     -0.347000
     26 O4          0.4460   -0.7690    4.2540 os        1 AZO     -0.296000
     27 C20         1.6360   -1.1300    4.9200 c3        1 AZO     -0.060000
     28 C21        -2.6920   -1.0110    3.3680 c1        1 AZO      0.077000
     29 O5         -3.7230   -0.9270    2.4180 o         1 AZO     -0.188000
     30 C22        -4.4420    0.2850    2.4620 c3        1 AZO     -0.082000
     31 H3          1.2860    3.5170   -6.1200 ha        1 AZO      0.149000
     32 H4          3.6450    3.5520   -6.2500 ha        1 AZO      0.143000
     33 H5          4.9390    3.3550   -4.2840 ha        1 AZO      0.146500
     34 H6          3.8750    3.1240   -2.1870 ha        1 AZO      0.146500
     35 H9         -0.5880    2.0050   -0.3270 ha        1 AZO      0.183000
     36 H11         2.7480   -1.0560   -1.4190 ha        1 AZO      0.199000
     37 H13        -0.9900   -1.8620   -1.4240 ha        1 AZO      0.147000
     38 H14        -1.3170   -4.1990   -1.5380 ha        1 AZO      0.136000
     39 H15        -1.7290   -5.4320    0.4330 ha        1 AZO      0.146500
     40 H16        -1.8150   -4.3290    2.5200 ha        1 AZO      0.146500
     41 H201        1.4320   -1.3600    5.8520 h1        1 AZO      0.089000
     42 H202        2.2640   -0.3770    4.8980 h1        1 AZO      0.089000
     43 H203        2.0380   -1.9060    4.4730 h1        1 AZO      0.089000
     44 H21        -2.7770   -0.5490    4.2230 ha        1 AZO      0.156000
     45 H221       -5.2070    0.2340    1.8490 h1        1 AZO      0.090333
     46 H222       -4.7650    0.4410    3.3750 h1        1 AZO      0.090333
     47 H223       -3.8550    1.0240    2.1910 h1        1 AZO      0.090333
@<TRIPOS>BOND
     1    1    2 1   
     2    3    4 1   
     3    3    8 1   
     4    4    5 1   
     5    4   31 1   
     6    5   32 1   
     7    6    7 1   
     8    6   33 1   
     9    7   34 1   
    10    8    9 1   
    11    9   10 1   
    12   10   11 1   
    13   10   15 1   
    14   11   12 1   
    15   11   35 1   
    16   12   16 1   
    17   13   14 1   
    18   14   36 1   
    19   16   17 1   
    20   17   18 1   
    21   17   22 1   
    22   18   19 1   
    23   18   37 1   
    24   19   38 1   
    25   20   21 1   
    26   20   39 1   
    27   21   40 1   
    28   22   23 1   
    29   23   24 1   
    30   23   28 1   
    31   24   25 1   
    32   24   26 1   
    33   26   27 1   
    34   27   41 1   
    35   27   42 1   
    36   27   43 1   
    37   28   44 1   
    38   29   30 1   
    39   30   45 1   
    40   30   46 1   
    41   30   47 1   
@<TRIPOS>SUBSTRUCTURE
     1 AZO         1 TEMP              0 ****  ****    0 ROOT
