@<TRIPOS>MOLECULE
AZP
   89    86     1     0     0
SMALL
bcc


@<TRIPOS>ATOM
      1 N          -1.1650   -3.0390    1.1890 n         1 AZP     -0.320000
      2 CAI        -2.0150   -4.2030    1.3500 c2        1 AZP      0.390000
      3 OAH        -2.4430   -4.9170    0.2220 os        1 AZP     -0.270000
      4 CAG        -2.3590   -6.3220    0.3670 c3        1 AZP      0.038000
      5 CAE        -3.6840   -6.9640   -0.0860 c2        1 AZP     -0.120000
      6 CAD        -4.8160   -6.9040    0.7520 c1        1 AZP     -0.105000
      7 CAC        -6.0510   -7.3490    0.2850 c1        1 AZP     -0.126000
      8 CAB        -6.1670   -7.8480   -1.0010 c1        1 AZP     -0.126000
      9 CAA        -5.0360   -7.9080   -1.8370 c1        1 AZP     -0.138000
     10 CAF        -3.8010   -7.4640   -1.3730 c2        1 AZP     -0.105000
     11 OAL        -2.2310   -4.6250    2.4260 o         1 AZP     -0.410000
     12 CA         -1.3370   -1.9060    2.0440 c3        1 AZP      0.012000
     13 CB         -0.8590   -2.2540    3.4410 c3        1 AZP     -0.161000
     14 CG         -1.4510   -1.2610    4.4500 c3        1 AZP     -0.102000
     15 CD1        -0.6500   -1.3270    5.7650 c3        1 AZP     -0.215000
     16 CD2        -1.3660    0.1630    3.8770 c3        1 AZP     -0.215000
     17 C          -0.5380   -0.7460    1.5100 c2        1 AZP      0.275000
     18 O           0.6130   -0.5490    1.9170 o         1 AZP     -0.367000
     19 NAS        -1.1500    0.1890    0.6090 n         1 AZP     -0.351000
     20 CAT        -0.5690    0.4380   -0.6350 c3        1 AZP      0.013000
     21 CAV        -1.6520    0.4030   -1.7230 c3        1 AZP     -0.123000
     22 CAW        -2.9350    1.0400   -1.1880 c2        1 AZP     -0.099000
     23 CBF        -4.1540    0.7770   -1.8060 c2        1 AZP     -0.128000
     24 CBG        -5.3030    1.4020   -1.3600 c1        1 AZP     -0.133000
     25 CBH        -5.2420    2.2830   -0.3060 c1        1 AZP     -0.126000
     26 CBI        -4.0260    2.5460    0.3110 c1        1 AZP     -0.126000
     27 CBJ        -2.8760    1.9200   -0.1350 c1        1 AZP     -0.117000
     28 CAU         0.1000    1.8200   -0.6180 c2        1 AZP      0.244000
     29 OAY        -0.0730    2.5500    0.3060 o         1 AZP     -0.335000
     30 NAX         1.0170    2.1960   -1.6730 n         1 AZP     -0.251000
     31 NAZ         1.6200    3.5040   -1.6650 n         1 AZP     -0.222000
     32 CBA         0.8370    4.6540   -1.2490 c3        1 AZP     -0.052000
     33 CBB         1.2120    5.0380    0.2290 c3        1 AZP     -0.221000
     34 CBC         1.4010    6.5630    0.3300 c2        1 AZP      0.307000
     35 NBE         2.1310    7.1360    1.4580 n         1 AZP     -0.427000
     36 OBD         0.9460    7.2980   -0.5440 o         1 AZP     -0.399000
     37 CBK         2.9180    3.7000   -2.2590 c2        1 AZP      0.325000
     38 OBL         3.0230    4.3460   -3.2660 o         1 AZP     -0.350000
     39 CBM         4.1550    2.9440   -1.6930 c3        1 AZP     -0.174000
     40 CBO         5.4330    3.4430   -2.4130 c3        1 AZP      0.050000
     41 OBN         5.2740    3.3170   -3.7550 oh        1 AZP     -0.310000
     42 CBP         6.6090    2.6230   -1.9740 c2        1 AZP      0.270000
     43 OBQ         7.0370    2.7210   -0.8060 o         1 AZP     -0.343000
     44 OBR         7.2730    1.7720   -2.9130 os        1 AZP     -0.290000
     45 CBS         8.6000    1.4460   -2.5580 c3        1 AZP     -0.009000
     46 CBT         9.0840    0.2560   -3.4140 c3        1 AZP     -0.220000
     47 HN         -0.5000   -3.0350    0.5420 hn        1 AZP      0.252000
     48 HAG1       -1.6130   -6.6690   -0.1940 h1        1 AZP      0.113500
     49 HAG2       -2.1890   -6.5490    1.3260 h1        1 AZP      0.113500
     50 HAD        -4.7370   -6.5630    1.6310 ha        1 AZP      0.156000
     51 HAC        -6.8740   -7.3060    0.8940 ha        1 AZP      0.134000
     52 HAB        -7.0180   -8.1540   -1.3220 ha        1 AZP      0.134000
     53 HAA        -5.1170   -8.2630   -2.7510 ha        1 AZP      0.132000
     54 HAF        -3.0160   -7.5060   -1.9550 ha        1 AZP      0.133000
     55 HA         -2.3050   -1.6550    2.0760 h1        1 AZP      0.145000
     56 HB1         0.1140   -2.2060    3.4720 hc        1 AZP      0.101000
     57 HB2        -1.1480   -3.1590    3.6670 hc        1 AZP      0.101000
     58 HG         -2.3930   -1.4920    4.6260 hc        1 AZP      0.098000
     59 HD11       -1.0870   -0.7240    6.4610 hc        1 AZP      0.077500
     60 HD12       -0.6360   -2.2250    6.0870 hc        1 AZP      0.077500
     61 HD13        0.2490   -1.0310    5.6050 hc        1 AZP      0.077500
     62 HD21       -0.5310    0.2590    3.3530 hc        1 AZP      0.077500
     63 HD22       -1.3670    0.8180    4.6200 hc        1 AZP      0.077500
     64 HD23       -2.1250    0.3260    3.3030 hc        1 AZP      0.077500
     65 HAS        -1.9800    0.5390    0.8060 hn        1 AZP      0.245000
     66 HAT         0.1050   -0.2500   -0.8230 h1        1 AZP      0.150000
     67 HAV1       -1.3370    0.9120   -2.5220 hc        1 AZP      0.101500
     68 HAV2       -1.8370   -0.5590   -1.9850 hc        1 AZP      0.101500
     69 HBF        -4.1970    0.1580   -2.5460 ha        1 AZP      0.136000
     70 HBG        -6.1500    1.2180   -1.7900 ha        1 AZP      0.134000
     71 HBH        -6.0500    2.7230    0.0070 ha        1 AZP      0.134000
     72 HBI        -3.9820    3.1770    1.0670 ha        1 AZP      0.134000
     73 HBJ        -2.0470    2.0990    0.2870 ha        1 AZP      0.153000
     74 HAX         1.2310    1.6000   -2.3230 hn        1 AZP      0.230000
     75 HBA1       -0.1210    4.4320   -1.2960 h1        1 AZP      0.119500
     76 HBA2        1.0240    5.3980   -1.8340 h1        1 AZP      0.119500
     77 HBB1        2.0540    4.5790    0.4850 hc        1 AZP      0.129500
     78 HBB2        0.4920    4.7590    0.8310 hc        1 AZP      0.129500
     79 HBE1        2.8920    6.7090    1.7830 hn        1 AZP      0.228000
     80 HBE2        1.8180    7.9130    1.8730 hn        1 AZP      0.228000
     81 HBM1        4.0480    1.9720   -1.8470 hc        1 AZP      0.151500
     82 HBM2        4.2330    3.1160   -0.7270 hc        1 AZP      0.151500
     83 HBO         5.5890    4.3920   -2.1870 h1        1 AZP      0.136000
     84 HBN         5.8260    3.9410   -4.1960 ho        1 AZP      0.224000
     85 HBS1        8.6320    1.2050   -1.6290 h1        1 AZP      0.093500
     86 HBS2        9.1680    2.2020   -2.7120 h1        1 AZP      0.093500
     87 HBT1        9.6830    0.5680   -4.0780 hc        1 AZP      0.088667
     88 HBT2        9.5450   -0.3970   -2.8370 hc        1 AZP      0.088667
     89 HBT3        8.3200   -0.1710   -3.8390 hc        1 AZP      0.088667
@<TRIPOS>BOND
     1    1    2 1   
     2    1   12 1   
     3    1   47 1   
     4    2    3 1   
     5    2   11 1   
     6    3    4 1   
     7    4    5 1   
     8    4   48 1   
     9    4   49 1   
    10    5    6 1   
    11    5   10 1   
    12    6   50 1   
    13    7    8 1   
    14    7   51 1   
    15    8   52 1   
    16    9   10 1   
    17    9   53 1   
    18   10   54 1   
    19   12   13 1   
    20   12   17 1   
    21   12   55 1   
    22   13   14 1   
    23   13   56 1   
    24   13   57 1   
    25   14   15 1   
    26   14   16 1   
    27   14   58 1   
    28   15   59 1   
    29   15   60 1   
    30   15   61 1   
    31   16   62 1   
    32   16   63 1   
    33   16   64 1   
    34   17   18 1   
    35   17   19 1   
    36   19   20 1   
    37   19   65 1   
    38   20   21 1   
    39   20   28 1   
    40   20   66 1   
    41   21   22 1   
    42   21   67 1   
    43   21   68 1   
    44   22   23 1   
    45   22   27 1   
    46   23   24 1   
    47   23   69 1   
    48   24   70 1   
    49   25   26 1   
    50   25   71 1   
    51   26   72 1   
    52   27   73 1   
    53   28   29 1   
    54   28   30 1   
    55   30   31 1   
    56   30   74 1   
    57   31   32 1   
    58   31   37 1   
    59   32   33 1   
    60   32   75 1   
    61   32   76 1   
    62   33   34 1   
    63   33   77 1   
    64   33   78 1   
    65   34   35 1   
    66   34   36 1   
    67   35   79 1   
    68   35   80 1   
    69   37   38 1   
    70   37   39 1   
    71   39   40 1   
    72   39   81 1   
    73   39   82 1   
    74   40   41 1   
    75   40   42 1   
    76   40   83 1   
    77   41   84 1   
    78   42   43 1   
    79   42   44 1   
    80   44   45 1   
    81   45   46 1   
    82   45   85 1   
    83   45   86 1   
    84   46   87 1   
    85   46   88 1   
    86   46   89 1   
@<TRIPOS>SUBSTRUCTURE
     1 AZP         1 TEMP              0 ****  ****    0 ROOT
