@<TRIPOS>MOLECULE
AZP
   94    95     1     0     0
SMALL
bcc


@<TRIPOS>ATOM
      1 N           0.0000    0.0000    0.0000 ny        1 AZP      0.211200
      2 CAI        -0.6730    1.1620    0.1020 c         1 AZP      0.456100
      3 OAH        -2.0210    1.1620    0.1010 os        1 AZP     -0.391900
      4 CAG        -2.7460    2.4150    0.2110 c3        1 AZP      0.327700
      5 CAE        -4.2280    2.1400    0.1870 ca        1 AZP     -0.231300
      6 CAD        -4.9080    1.9100    1.3680 ca        1 AZP      0.086500
      7 CAC        -6.2660    1.6580    1.3470 ca        1 AZP      0.058000
      8 CAB        -6.9460    1.6370    0.1430 ca        1 AZP     -0.076000
      9 CAA        -6.2670    1.8680   -1.0380 ca        1 AZP      0.058000
     10 CAF        -4.9080    2.1250   -1.0160 ca        1 AZP      0.086500
     11 OAL        -0.0660    2.2110    0.1940 o         1 AZP     -0.430000
     12 CA          1.4650    0.0000    0.0000 c3        1 AZP     -0.126500
     13 CB          1.9750    0.0000    1.4430 c3        1 AZP     -0.044400
     14 CG          1.5710    1.3080    2.1270 c3        1 AZP     -0.065700
     15 CD1         1.9700    1.2570    3.6020 c3        1 AZP      0.003400
     16 CD2         2.2800    2.4800    1.4460 c3        1 AZP      0.003400
     17 C           1.9680   -1.2310   -0.7100 c         1 AZP      0.349100
     18 O           1.1800   -2.0290   -1.1710 o         1 AZP     -0.382100
     19 NAS         3.2930   -1.4440   -0.8330 ny        1 AZP      0.165200
     20 CAT         3.7820   -2.6390   -1.5240 c3        1 AZP     -0.156500
     21 CAV         3.8330   -2.3740   -3.0300 c3        1 AZP      0.053900
     22 CAW         2.4360   -2.1570   -3.5490 ca        1 AZP     -0.215300
     23 CBF         1.8980   -0.8830   -3.5770 ca        1 AZP     -0.103000
     24 CBG         0.6160   -0.6830   -4.0550 ca        1 AZP     -0.058500
     25 CBH        -0.1290   -1.7580   -4.5030 ca        1 AZP     -0.020000
     26 CBI         0.4080   -3.0320   -4.4770 ca        1 AZP     -0.058500
     27 CBJ         1.6920   -3.2300   -4.0030 ca        1 AZP     -0.103000
     28 CAU         5.1630   -2.9780   -1.0270 c         1 AZP      0.395100
     29 OAY         5.6880   -2.2880   -0.1780 o         1 AZP     -0.444100
     30 NAX         5.8150   -4.0480   -1.5230 ny        1 AZP     -0.069600
     31 NAZ         7.0990   -4.3620   -1.0610 nx        1 AZP     -0.090000
     32 CBA         8.2500   -3.5640   -1.4920 c3        1 AZP      0.076800
     33 CBB         9.2510   -4.4640   -2.2200 c3        1 AZP     -0.127400
     34 CBC        10.4340   -3.6410   -2.6620 c         1 AZP      0.338100
     35 NBE        11.4490   -4.2260   -3.3290 nz        1 AZP      0.215600
     36 OBD        10.4720   -2.4530   -2.4210 o         1 AZP     -0.378100
     37 CBK         7.2770   -5.4000   -0.2190 c         1 AZP      0.379100
     38 OBL         8.3900   -5.6720    0.1820 o         1 AZP     -0.362100
     39 CBM         6.0940   -6.2220    0.2250 c3        1 AZP     -0.084400
     40 CBO         6.5670   -7.3270    1.1700 c3        1 AZP      0.169100
     41 OBN         7.4110   -8.2340    0.4580 oh        1 AZP     -0.570800
     42 CBP         5.3730   -8.0710    1.7100 c         1 AZP      0.629100
     43 OBQ         5.2090   -9.2360    1.4310 o         1 AZP     -0.459000
     44 OBR         4.4910   -7.4410    2.5020 os        1 AZP     -0.461900
     45 CBS         3.3400   -8.1580    3.0210 c3        1 AZP      0.239400
     46 CBT         2.5010   -7.2160    3.8870 c3        1 AZP      0.004900
     47 HN         -0.2960   -0.4400   -0.8490 hn        1 AZP      0.275300
     48 HAG1       -2.4840    2.9040    1.1420 h1        1 AZP      0.049700
     49 HAG2       -2.4850    3.0580   -0.6210 h1        1 AZP      0.049700
     50 HAD        -4.3790    1.9440    2.3130 ha        1 AZP      0.130000
     51 HAC        -6.7990    1.4780    2.2730 ha        1 AZP      0.157000
     52 HAB        -8.0110    1.4380    0.1260 ha        1 AZP      0.171000
     53 HAA        -6.8000    1.8530   -1.9810 ha        1 AZP      0.157000
     54 HAF        -4.3850    2.3540   -1.9370 ha        1 AZP      0.130000
     55 HA          1.8260    0.8840   -0.5110 hx        1 AZP      0.152700
     56 HB1         1.5440   -0.8370    1.9790 hc        1 AZP      0.048200
     57 HB2         3.0550   -0.0890    1.4440 hc        1 AZP      0.048200
     58 HG          0.4980    1.4390    2.0480 hc        1 AZP      0.020700
     59 HD11        1.6960    2.1880    4.0830 hc        1 AZP      0.031867
     60 HD12        3.0410    1.1110    3.6820 hc        1 AZP      0.031867
     61 HD13        1.4570    0.4350    4.0880 hc        1 AZP      0.031867
     62 HD21        1.8940    2.6020    0.4410 hc        1 AZP      0.031867
     63 HD22        3.3440    2.2820    1.4020 hc        1 AZP      0.031867
     64 HD23        2.1050    3.3860    2.0130 hc        1 AZP      0.031867
     65 HAS         3.6710   -1.4680    0.0930 hn        1 AZP      0.287800
     66 HAT         3.1140   -3.4690   -1.3260 hx        1 AZP      0.136700
     67 HAV1        4.2760   -3.2260   -3.5320 hc        1 AZP      0.053200
     68 HAV2        4.4310   -1.4910   -3.2210 hc        1 AZP      0.053200
     69 HBF         2.4830   -0.0410   -3.2260 ha        1 AZP      0.100000
     70 HBG         0.1950    0.3150   -4.0760 ha        1 AZP      0.140500
     71 HBH        -1.1340   -1.6020   -4.8750 ha        1 AZP      0.146000
     72 HBI        -0.1750   -3.8730   -4.8300 ha        1 AZP      0.140500
     73 HBJ         2.1250   -4.2230   -4.0140 ha        1 AZP      0.100000
     74 HAX         5.8870   -3.9110   -2.5120 hn        1 AZP      0.337300
     75 HBA1        7.9150   -2.7810   -2.1620 hx        1 AZP      0.092200
     76 HBA2        8.7260   -3.1200   -0.6270 hx        1 AZP      0.092200
     77 HBB1        9.5860   -5.2470   -1.5500 hc        1 AZP      0.087700
     78 HBB2        8.7750   -4.9070   -3.0860 hc        1 AZP      0.087700
     79 HBE1       12.1910   -3.5660   -3.4530 hn        1 AZP      0.269800
     80 HBE2       11.7840   -5.0100   -2.8040 hn        1 AZP      0.269800
     81 HBM1        5.3850   -5.5850    0.7390 hc        1 AZP      0.052700
     82 HBM2        5.6180   -6.6660   -0.6410 hc        1 AZP      0.052700
     83 HBO         7.1210   -6.8870    1.9920 h1        1 AZP      0.048700
     84 HBN         7.9760   -8.6810    1.0660 ho        1 AZP      0.457000
     85 HBS1        2.7390   -8.5220    2.1970 h1        1 AZP      0.030200
     86 HBS2        3.6770   -8.9960    3.6200 h1        1 AZP      0.030200
     87 HBT1        2.0090   -6.4860    3.2550 hc        1 AZP      0.014367
     88 HBT2        3.1450   -6.7060    4.5940 hc        1 AZP      0.014367
     89 HBT3        1.7560   -7.7880    4.4260 hc        1 AZP      0.014367
     90 H2         -0.2950   -0.5810    0.7600 hn        1 AZP      0.275300
     91 HAS2        3.6710   -0.6550   -1.3200 hn        1 AZP      0.287800
     92 HAX2        5.2400   -4.8480   -1.3440 hn        1 AZP      0.337300
     93 HAZ1        6.9690   -3.7480   -0.2810 hn        1 AZP      0.341800
     94 HBE3       11.1260   -4.5350   -4.2240 hn        1 AZP      0.269800
@<TRIPOS>BOND
     1    1    2 1   
     2    1   12 1   
     3    1   47 1   
     4    1   90 1   
     5    2    3 1   
     6    2   11 2   
     7    3    4 1   
     8    4    5 1   
     9    4   48 1   
    10    4   49 1   
    11    5    6 ar  
    12    5   10 ar  
    13    6    7 ar  
    14    6   50 1   
    15    7    8 ar  
    16    7   51 1   
    17    8    9 ar  
    18    8   52 1   
    19    9   10 ar  
    20    9   53 1   
    21   10   54 1   
    22   12   13 1   
    23   12   17 1   
    24   12   55 1   
    25   13   14 1   
    26   13   56 1   
    27   13   57 1   
    28   14   15 1   
    29   14   16 1   
    30   14   58 1   
    31   15   59 1   
    32   15   60 1   
    33   15   61 1   
    34   16   62 1   
    35   16   63 1   
    36   16   64 1   
    37   17   18 2   
    38   17   19 1   
    39   19   20 1   
    40   19   65 1   
    41   19   91 1   
    42   20   21 1   
    43   20   28 1   
    44   20   66 1   
    45   21   22 1   
    46   21   67 1   
    47   21   68 1   
    48   22   23 ar  
    49   22   27 ar  
    50   23   24 ar  
    51   23   69 1   
    52   24   25 ar  
    53   24   70 1   
    54   25   26 ar  
    55   25   71 1   
    56   26   27 ar  
    57   26   72 1   
    58   27   73 1   
    59   28   29 2   
    60   28   30 1   
    61   30   31 1   
    62   30   74 1   
    63   30   92 1   
    64   31   32 1   
    65   31   37 1   
    66   31   93 1   
    67   32   33 1   
    68   32   75 1   
    69   32   76 1   
    70   33   34 1   
    71   33   77 1   
    72   33   78 1   
    73   34   35 1   
    74   34   36 2   
    75   35   79 1   
    76   35   80 1   
    77   35   94 1   
    78   37   38 2   
    79   37   39 1   
    80   39   40 1   
    81   39   81 1   
    82   39   82 1   
    83   40   41 1   
    84   40   42 1   
    85   40   83 1   
    86   41   84 1   
    87   42   43 2   
    88   42   44 1   
    89   44   45 1   
    90   45   46 1   
    91   45   85 1   
    92   45   86 1   
    93   46   87 1   
    94   46   88 1   
    95   46   89 1   
@<TRIPOS>SUBSTRUCTURE
     1 AZP         1 TEMP              0 ****  ****    0 ROOT
