@<TRIPOS>MOLECULE
AZP
   89    90     1     0     0
SMALL
bcc


@<TRIPOS>ATOM
      1 N           0.1790   -0.5730    0.8000 n         1 AZP     -0.507900
      2 CAI        -0.5800    0.4960    0.3490 c         1 AZP      0.732100
      3 OAH        -1.9220    0.1960    0.2540 os        1 AZP     -0.434900
      4 CAG        -2.7670    1.3200   -0.0720 c3        1 AZP      0.196700
      5 CAE        -4.1690    0.8220   -0.1510 ca        1 AZP     -0.097300
      6 CAD        -4.6210   -0.2160    0.6700 ca        1 AZP     -0.111500
      7 CAC        -5.9490   -0.6360    0.5980 ca        1 AZP     -0.131500
      8 CAB        -6.8310   -0.0190   -0.2880 ca        1 AZP     -0.124000
      9 CAA        -6.3820    1.0160   -1.1090 ca        1 AZP     -0.131500
     10 CAF        -5.0540    1.4340   -1.0460 ca        1 AZP     -0.111500
     11 OAL        -0.1980    1.6530    0.1030 o         1 AZP     -0.590000
     12 CA          1.6110   -0.5370    0.6130 c3        1 AZP      0.035700
     13 CB          2.3950   -0.8410    1.9010 c3        1 AZP     -0.080400
     14 CG          2.0980    0.1220    3.0390 c3        1 AZP     -0.063700
     15 CD1         2.9540   -0.2450    4.2370 c3        1 AZP     -0.098600
     16 CD2         2.3410    1.5630    2.6420 c3        1 AZP     -0.098600
     17 C           2.0700   -1.5890   -0.4330 c         1 AZP      0.634100
     18 O           1.4190   -2.6320   -0.6390 o         1 AZP     -0.605100
     19 NAS         3.2290   -1.3030   -1.1280 n         1 AZP     -0.541900
     20 CAT         3.8460   -2.2600   -2.0060 c3        1 AZP      0.040700
     21 CAV         4.3580   -1.6410   -3.3220 c3        1 AZP     -0.042100
     22 CAW         3.2520   -1.1010   -4.1550 ca        1 AZP     -0.087300
     23 CBF         3.1520    0.2750   -4.3890 ca        1 AZP     -0.119000
     24 CBG         2.1250    0.7790   -5.1870 ca        1 AZP     -0.124500
     25 CBH         1.1920   -0.0860   -5.7560 ca        1 AZP     -0.123000
     26 CBI         1.2880   -1.4590   -5.5280 ca        1 AZP     -0.124500
     27 CBJ         2.3130   -1.9660   -4.7320 ca        1 AZP     -0.119000
     28 CAU         5.0800   -2.9210   -1.3350 c         1 AZP      0.593100
     29 OAY         5.7950   -2.3090   -0.5270 o         1 AZP     -0.569100
     30 NAX         5.2820   -4.2880   -1.6510 n         1 AZP     -0.396500
     31 NAZ         6.4440   -4.9520   -1.3830 n         1 AZP     -0.339400
     32 CBA         7.6960   -4.4060   -1.9320 c3        1 AZP      0.047000
     33 CBB         7.7960   -4.5970   -3.4440 c3        1 AZP     -0.165400
     34 CBC         9.0580   -3.9390   -3.9710 c         1 AZP      0.658100
     35 NBE        10.2700   -4.4750   -3.6200 n         1 AZP     -0.673000
     36 OBD         9.0000   -2.9410   -4.7180 o         1 AZP     -0.611100
     37 CBK         6.5390   -5.6750   -0.1540 c         1 AZP      0.685100
     38 OBL         7.6550   -6.0790    0.2130 o         1 AZP     -0.582100
     39 CBM         5.2690   -5.9880    0.6040 c3        1 AZP     -0.136400
     40 CBO         5.5110   -7.0540    1.6680 c3        1 AZP      0.110100
     41 OBN         5.2790   -8.3080    1.0500 oh        1 AZP     -0.585800
     42 CBP         4.5890   -6.9090    2.8640 c         1 AZP      0.595100
     43 OBQ         4.1130   -7.8390    3.5200 o         1 AZP     -0.544000
     44 OBR         4.3250   -5.6290    3.2390 os        1 AZP     -0.434900
     45 CBS         3.4830   -5.4590    4.3980 c3        1 AZP      0.139400
     46 CBT         3.2680   -3.9740    4.5470 c3        1 AZP     -0.104100
     47 HN         -0.2480   -1.4770    0.7760 hn        1 AZP      0.336500
     48 HAG1       -2.4210    1.7560   -1.0480 h1        1 AZP      0.065200
     49 HAG2       -2.6570    2.0920    0.7370 h1        1 AZP      0.065200
     50 HAD        -3.9200   -0.7030    1.3650 ha        1 AZP      0.138500
     51 HAC        -6.3000   -1.4550    1.2430 ha        1 AZP      0.133000
     52 HAB        -7.8790   -0.3490   -0.3430 ha        1 AZP      0.132000
     53 HAA        -7.0760    1.5030   -1.8110 ha        1 AZP      0.133000
     54 HAF        -4.7010    2.2460   -1.6990 ha        1 AZP      0.138500
     55 HA          1.8950    0.5010    0.2560 h1        1 AZP      0.107700
     56 HB1         3.4880   -0.7900    1.6510 hc        1 AZP      0.055700
     57 HB2         2.1690   -1.8880    2.2380 hc        1 AZP      0.055700
     58 HG          1.0160    0.0120    3.3320 hc        1 AZP      0.060700
     59 HD11        4.0350   -0.0740    4.0140 hc        1 AZP      0.038533
     60 HD12        2.8140   -1.3210    4.5050 hc        1 AZP      0.038533
     61 HD13        2.6710    0.3820    5.1160 hc        1 AZP      0.038533
     62 HD21        3.3630    1.6880    2.2110 hc        1 AZP      0.038533
     63 HD22        2.2540    2.2260    3.5370 hc        1 AZP      0.038533
     64 HD23        1.5870    1.8960    1.8850 hc        1 AZP      0.038533
     65 HAS         3.7940   -0.5380   -0.8380 hn        1 AZP      0.326500
     66 HAT         3.0690   -3.0490   -2.2500 h1        1 AZP      0.113700
     67 HAV1        4.8920   -2.4480   -3.8940 hc        1 AZP      0.063700
     68 HAV2        5.1080   -0.8370   -3.0960 hc        1 AZP      0.063700
     69 HBF         3.8860    0.9630   -3.9450 ha        1 AZP      0.130000
     70 HBG         2.0530    1.8620   -5.3650 ha        1 AZP      0.135000
     71 HBH         0.3810    0.3120   -6.3840 ha        1 AZP      0.134000
     72 HBI         0.5520   -2.1450   -5.9750 ha        1 AZP      0.135000
     73 HBJ         2.3840   -3.0490   -4.5540 ha        1 AZP      0.130000
     74 HAX         4.9260   -4.5640   -2.5530 hn        1 AZP      0.312500
     75 HBA1        7.7850   -3.3070   -1.6880 h1        1 AZP      0.082200
     76 HBA2        8.5530   -4.9420   -1.4320 h1        1 AZP      0.082200
     77 HBB1        7.7950   -5.6880   -3.7050 hc        1 AZP      0.072700
     78 HBB2        6.9280   -4.1170   -3.9700 hc        1 AZP      0.072700
     79 HBE1       10.3280   -5.2570   -3.0210 hn        1 AZP      0.316000
     80 HBE2       11.1040   -4.0620   -3.9540 hn        1 AZP      0.316000
     81 HBM1        4.4730   -6.3550   -0.1000 hc        1 AZP      0.106200
     82 HBM2        4.9090   -5.0400    1.0890 hc        1 AZP      0.106200
     83 HBO         6.5720   -7.0040    2.0570 h1        1 AZP      0.098700
     84 HBN         5.2940   -8.9830    1.7440 ho        1 AZP      0.428000
     85 HBS1        4.0100   -5.9010    5.2840 h1        1 AZP      0.055700
     86 HBS2        2.5220   -6.0100    4.2280 h1        1 AZP      0.055700
     87 HBT1        2.7570   -3.5590    3.6440 hc        1 AZP      0.050033
     88 HBT2        2.6320   -3.7860    5.4450 hc        1 AZP      0.050033
     89 HBT3        4.2430   -3.4440    4.6720 hc        1 AZP      0.050033
@<TRIPOS>BOND
     1    1    2 1   
     2    1   12 1   
     3    1   47 1   
     4    2    3 1   
     5    2   11 2   
     6    3    4 1   
     7    4    5 1   
     8    4   48 1   
     9    4   49 1   
    10    5    6 ar  
    11    5   10 ar  
    12    6    7 ar  
    13    6   50 1   
    14    7    8 ar  
    15    7   51 1   
    16    8    9 ar  
    17    8   52 1   
    18    9   10 ar  
    19    9   53 1   
    20   10   54 1   
    21   12   13 1   
    22   12   17 1   
    23   12   55 1   
    24   13   14 1   
    25   13   56 1   
    26   13   57 1   
    27   14   15 1   
    28   14   16 1   
    29   14   58 1   
    30   15   59 1   
    31   15   60 1   
    32   15   61 1   
    33   16   62 1   
    34   16   63 1   
    35   16   64 1   
    36   17   18 2   
    37   17   19 1   
    38   19   20 1   
    39   19   65 1   
    40   20   21 1   
    41   20   28 1   
    42   20   66 1   
    43   21   22 1   
    44   21   67 1   
    45   21   68 1   
    46   22   23 ar  
    47   22   27 ar  
    48   23   24 ar  
    49   23   69 1   
    50   24   25 ar  
    51   24   70 1   
    52   25   26 ar  
    53   25   71 1   
    54   26   27 ar  
    55   26   72 1   
    56   27   73 1   
    57   28   29 2   
    58   28   30 1   
    59   30   31 1   
    60   30   74 1   
    61   31   32 1   
    62   31   37 1   
    63   32   33 1   
    64   32   75 1   
    65   32   76 1   
    66   33   34 1   
    67   33   77 1   
    68   33   78 1   
    69   34   35 1   
    70   34   36 2   
    71   35   79 1   
    72   35   80 1   
    73   37   38 2   
    74   37   39 1   
    75   39   40 1   
    76   39   81 1   
    77   39   82 1   
    78   40   41 1   
    79   40   42 1   
    80   40   83 1   
    81   41   84 1   
    82   42   43 2   
    83   42   44 1   
    84   44   45 1   
    85   45   46 1   
    86   45   85 1   
    87   45   86 1   
    88   46   87 1   
    89   46   88 1   
    90   46   89 1   
@<TRIPOS>SUBSTRUCTURE
     1 AZP         1 TEMP              0 ****  ****    0 ROOT
