@<TRIPOS>MOLECULE
AZP
   89    90     1     0     0
SMALL
bcc


@<TRIPOS>ATOM
      1 N           3.3890    0.7100    0.6920 n         1 AZP     -0.509900
      2 CAI         4.5270   -0.0790    0.6940 c         1 AZP      0.733100
      3 OAH         5.5180    0.4100   -0.1310 os        1 AZP     -0.433900
      4 CAG         6.7720   -0.3000   -0.0480 c3        1 AZP      0.196700
      5 CAE         7.7160    0.3420   -1.0070 ca        1 AZP     -0.097300
      6 CAD         7.6690    1.7140   -1.2690 ca        1 AZP     -0.111500
      7 CAC         8.5900    2.2900   -2.1440 ca        1 AZP     -0.131500
      8 CAB         9.5620    1.5000   -2.7560 ca        1 AZP     -0.124000
      9 CAA         9.6100    0.1300   -2.4970 ca        1 AZP     -0.131500
     10 CAF         8.6880   -0.4510   -1.6290 ca        1 AZP     -0.111500
     11 OAL         4.7530   -1.0900    1.3810 o         1 AZP     -0.590000
     12 CA          2.1590    0.1620    1.2160 c3        1 AZP      0.037700
     13 CB          1.4760    1.0850    2.2390 c3        1 AZP     -0.080400
     14 CG          2.3310    1.3740    3.4620 c3        1 AZP     -0.063700
     15 CD1         1.5620    2.2770    4.4060 c3        1 AZP     -0.097600
     16 CD2         2.7530    0.1050    4.1730 c3        1 AZP     -0.097600
     17 C           1.1250   -0.0810    0.0850 c         1 AZP      0.636100
     18 O           1.1040    0.6250   -0.9430 o         1 AZP     -0.607100
     19 NAS         0.2370   -1.1210    0.2710 n         1 AZP     -0.546900
     20 CAT        -0.8200   -1.4040   -0.6590 c3        1 AZP      0.042700
     21 CAV        -0.9400   -2.9010   -1.0150 c3        1 AZP     -0.044100
     22 CAW         0.2650   -3.4080   -1.7220 ca        1 AZP     -0.088300
     23 CBF         1.0950   -4.3550   -1.1120 ca        1 AZP     -0.119000
     24 CBG         2.2150   -4.8440   -1.7840 ca        1 AZP     -0.124000
     25 CBH         2.5130   -4.3920   -3.0690 ca        1 AZP     -0.123000
     26 CBI         1.6870   -3.4500   -3.6830 ca        1 AZP     -0.124000
     27 CBJ         0.5670   -2.9610   -3.0140 ca        1 AZP     -0.119000
     28 CAU        -2.2010   -0.9920   -0.0850 c         1 AZP      0.592100
     29 OAY        -2.4550   -1.0500    1.1280 o         1 AZP     -0.566100
     30 NAX        -3.1210   -0.4750   -1.0320 n         1 AZP     -0.395500
     31 NAZ        -4.4600   -0.3620   -0.7860 n         1 AZP     -0.340400
     32 CBA        -5.1990   -1.5790   -0.4110 c3        1 AZP      0.047000
     33 CBB        -5.3780   -2.5330   -1.5890 c3        1 AZP     -0.166400
     34 CBC        -6.0720   -3.8030   -1.1290 c         1 AZP      0.658100
     35 NBE        -7.3860   -3.7260   -0.7480 n         1 AZP     -0.672000
     36 OBD        -5.4690   -4.8950   -1.1090 o         1 AZP     -0.611100
     37 CBK        -4.9520    0.8750   -0.2660 c         1 AZP      0.686100
     38 OBL        -6.1200    0.9190    0.1520 o         1 AZP     -0.574100
     39 CBM        -4.0590    2.0940   -0.3120 c3        1 AZP     -0.168400
     40 CBO        -4.8670    3.3820   -0.1360 c3        1 AZP      0.105100
     41 OBN        -5.3340    3.8780   -1.3710 oh        1 AZP     -0.572800
     42 CBP        -3.9980    4.4250    0.5390 c         1 AZP      0.596100
     43 OBQ        -3.3760    5.3350   -0.0140 o         1 AZP     -0.541000
     44 OBR        -3.9380    4.2970    1.8920 os        1 AZP     -0.429900
     45 CBS        -3.1500    5.2770    2.5970 c3        1 AZP      0.137400
     46 CBT        -3.2710    4.9360    4.0620 c3        1 AZP     -0.102100
     47 HN          3.2980    1.3840   -0.0400 hn        1 AZP      0.338500
     48 HAG1        7.1540   -0.2240    1.0060 h1        1 AZP      0.064700
     49 HAG2        6.5890   -1.3790   -0.2980 h1        1 AZP      0.064700
     50 HAD         6.8970    2.3330   -0.7870 ha        1 AZP      0.139000
     51 HAC         8.5470    3.3700   -2.3490 ha        1 AZP      0.133500
     52 HAB        10.2890    1.9560   -3.4440 ha        1 AZP      0.132000
     53 HAA        10.3760   -0.4950   -2.9810 ha        1 AZP      0.133500
     54 HAF         8.7240   -1.5330   -1.4320 ha        1 AZP      0.139000
     55 HA          2.4020   -0.8220    1.7280 h1        1 AZP      0.106700
     56 HB1         1.2010    2.0540    1.7440 hc        1 AZP      0.056200
     57 HB2         0.5250    0.5840    2.5620 hc        1 AZP      0.056200
     58 HG          3.2600    1.9210    3.1320 hc        1 AZP      0.061700
     59 HD11        0.6430    1.7650    4.7790 hc        1 AZP      0.038367
     60 HD12        2.1970    2.5460    5.2840 hc        1 AZP      0.038367
     61 HD13        1.2580    3.2180    3.8880 hc        1 AZP      0.038367
     62 HD21        3.4800   -0.4730    3.5490 hc        1 AZP      0.038367
     63 HD22        3.2480    0.3560    5.1420 hc        1 AZP      0.038367
     64 HD23        1.8680   -0.5410    4.3870 hc        1 AZP      0.038367
     65 HAS         0.1970   -1.5830    1.1500 hn        1 AZP      0.328500
     66 HAT        -0.6050   -0.8210   -1.6080 h1        1 AZP      0.112700
     67 HAV1       -1.1280   -3.4970   -0.0820 hc        1 AZP      0.063700
     68 HAV2       -1.8390   -3.0240   -1.6790 hc        1 AZP      0.063700
     69 HBF         0.8640   -4.7180   -0.0990 ha        1 AZP      0.130000
     70 HBG         2.8630   -5.5870   -1.2970 ha        1 AZP      0.135500
     71 HBH         3.3970   -4.7780   -3.5980 ha        1 AZP      0.134000
     72 HBI         1.9200   -3.0910   -4.6960 ha        1 AZP      0.135500
     73 HBJ        -0.0800   -2.2170   -3.5020 ha        1 AZP      0.130000
     74 HAX        -2.9760   -0.8110   -1.9720 hn        1 AZP      0.310500
     75 HBA1       -4.6680   -2.1170    0.4280 h1        1 AZP      0.082700
     76 HBA2       -6.2130   -1.2630   -0.0320 h1        1 AZP      0.082700
     77 HBB1       -5.9710   -2.0460   -2.4060 hc        1 AZP      0.073200
     78 HBB2       -4.3850   -2.8350   -2.0180 hc        1 AZP      0.073200
     79 HBE1       -7.8700   -2.8660   -0.7520 hn        1 AZP      0.316000
     80 HBE2       -7.8580   -4.5430   -0.4480 hn        1 AZP      0.316000
     81 HBM1       -3.5010    2.1440   -1.2840 hc        1 AZP      0.094200
     82 HBM2       -3.3120    1.9930    0.5220 hc        1 AZP      0.094200
     83 HBO        -5.8000    3.1970    0.4760 h1        1 AZP      0.138700
     84 HBN        -4.5790    4.2460   -1.8520 ho        1 AZP      0.418000
     85 HBS1       -3.5560    6.2960    2.3660 h1        1 AZP      0.054200
     86 HBS2       -2.0920    5.2110    2.2340 h1        1 AZP      0.054200
     87 HBT1       -2.6750    5.6690    4.6550 hc        1 AZP      0.050700
     88 HBT2       -4.3380    4.9810    4.3880 hc        1 AZP      0.050700
     89 HBT3       -2.8880    3.9060    4.2590 hc        1 AZP      0.050700
@<TRIPOS>BOND
     1    1    2 1   
     2    1   12 1   
     3    1   47 1   
     4    2    3 1   
     5    2   11 2   
     6    3    4 1   
     7    4    5 1   
     8    4   48 1   
     9    4   49 1   
    10    5    6 ar  
    11    5   10 ar  
    12    6    7 ar  
    13    6   50 1   
    14    7    8 ar  
    15    7   51 1   
    16    8    9 ar  
    17    8   52 1   
    18    9   10 ar  
    19    9   53 1   
    20   10   54 1   
    21   12   13 1   
    22   12   17 1   
    23   12   55 1   
    24   13   14 1   
    25   13   56 1   
    26   13   57 1   
    27   14   15 1   
    28   14   16 1   
    29   14   58 1   
    30   15   59 1   
    31   15   60 1   
    32   15   61 1   
    33   16   62 1   
    34   16   63 1   
    35   16   64 1   
    36   17   18 2   
    37   17   19 1   
    38   19   20 1   
    39   19   65 1   
    40   20   21 1   
    41   20   28 1   
    42   20   66 1   
    43   21   22 1   
    44   21   67 1   
    45   21   68 1   
    46   22   23 ar  
    47   22   27 ar  
    48   23   24 ar  
    49   23   69 1   
    50   24   25 ar  
    51   24   70 1   
    52   25   26 ar  
    53   25   71 1   
    54   26   27 ar  
    55   26   72 1   
    56   27   73 1   
    57   28   29 2   
    58   28   30 1   
    59   30   31 1   
    60   30   74 1   
    61   31   32 1   
    62   31   37 1   
    63   32   33 1   
    64   32   75 1   
    65   32   76 1   
    66   33   34 1   
    67   33   77 1   
    68   33   78 1   
    69   34   35 1   
    70   34   36 2   
    71   35   79 1   
    72   35   80 1   
    73   37   38 2   
    74   37   39 1   
    75   39   40 1   
    76   39   81 1   
    77   39   82 1   
    78   40   41 1   
    79   40   42 1   
    80   40   83 1   
    81   41   84 1   
    82   42   43 2   
    83   42   44 1   
    84   44   45 1   
    85   45   46 1   
    86   45   85 1   
    87   45   86 1   
    88   46   87 1   
    89   46   88 1   
    90   46   89 1   
@<TRIPOS>SUBSTRUCTURE
     1 AZP         1 TEMP              0 ****  ****    0 ROOT
