@<TRIPOS>MOLECULE
AZQ
   40    37     1     0     0
SMALL
bcc


@<TRIPOS>ATOM
      1 C1          0.1540    0.3800   -1.6570 c1        1 AZQ      0.269000
      2 C2          1.6530    0.2400   -1.6100 c2        1 AZQ     -0.165000
      3 C3          1.9510    0.0530   -0.1490 c2        1 AZQ      0.285000
      4 N1          0.7250    0.2780    0.5890 n         1 AZQ     -0.242000
      5 C4          0.4740    0.4170    1.9860 c2        1 AZQ      0.191000
      6 N2         -0.8610    0.4990    2.4590 n1        1 AZQ     -0.144000
      7 C5         -1.9700    0.3180    1.5400 c1        1 AZQ     -0.030000
      8 C6         -3.2890    0.3230    2.0200 c1        1 AZQ     -0.081000
      9 C7         -4.3520    0.1580    1.1370 c1        1 AZQ     -0.135000
     10 C8         -4.1070   -0.0120   -0.2260 c1        1 AZQ     -0.052000
     11 C9         -2.8000   -0.0170   -0.7030 c1        1 AZQ     -0.125000
     12 C10        -1.7270    0.1490    0.1860 c2        1 AZQ     -0.031000
     13 N3         -0.3570    0.1680   -0.3160 n3        1 AZQ     -0.095000
     14 O1         -0.5140    0.5670   -2.6540 o         1 AZQ     -0.267000
     15 C11         2.2060   -0.9080   -2.5160 c3        1 AZQ     -0.114000
     16 C12         3.1390   -0.3260   -3.5540 c2        1 AZQ     -0.179000
     17 C13         3.6030   -1.1020   -4.5530 c1        1 AZQ     -0.205000
     18 O2          3.0430   -0.1760    0.3330 o         1 AZQ     -0.299000
     19 N4          1.5510    0.3630    2.9080 n3        1 AZQ     -0.213000
     20 C14         2.2490    1.5520    3.2570 c3        1 AZQ     -0.108500
     21 C15         1.9010   -0.8720    3.5200 c3        1 AZQ     -0.108500
     22 C16        -5.2400   -0.1070   -1.2230 c3        1 AZQ     -0.182000
     23 H2          2.1070    1.0210   -1.9800 ha        1 AZQ      0.171000
     24 H6         -3.4610    0.4420    2.9740 ha        1 AZQ      0.155000
     25 H7         -5.2690    0.1620    1.4710 ha        1 AZQ      0.139000
     26 H9         -2.6290   -0.1360   -1.6570 ha        1 AZQ      0.170000
     27 H111        2.6920   -1.5530   -1.9640 hc        1 AZQ      0.106500
     28 H112        1.4610   -1.3580   -2.9620 hc        1 AZQ      0.106500
     29 H12         3.4060    0.6120   -3.5000 ha        1 AZQ      0.144000
     30 H131        3.3360   -2.0410   -4.6080 DU        1 AZQ      0.113000
     31 H132        4.2070   -0.7250   -5.2240 ha        1 AZQ      0.118000
     32 H141        1.8250    2.3210    2.8180 h1        1 AZQ      0.090500
     33 H142        3.1830    1.4820    2.9630 h1        1 AZQ      0.090500
     34 H143        2.2200    1.6750    4.2310 h1        1 AZQ      0.090500
     35 H151        2.4240   -1.4120    2.8890 h1        1 AZQ      0.090500
     36 H152        1.0850   -1.3570    3.7680 h1        1 AZQ      0.090500
     37 H153        2.4360   -0.6980    4.3240 h1        1 AZQ      0.090500
     38 H161       -5.6340    0.7810   -1.3550 hc        1 AZQ      0.088667
     39 H162       -5.9240   -0.7200   -0.8830 hc        1 AZQ      0.088667
     40 H163       -4.8970   -0.4420   -2.0770 hc        1 AZQ      0.088667
@<TRIPOS>BOND
     1    1   13 1   
     2    1   14 1   
     3    2    3 1   
     4    2   15 1   
     5    2   23 1   
     6    3    4 1   
     7    3   18 1   
     8    4    5 1   
     9    4   13 1   
    10    5    6 1   
    11    5   19 1   
    12    7    8 1   
    13    7   12 1   
    14    8   24 1   
    15    9   10 1   
    16    9   25 1   
    17   10   22 1   
    18   11   12 1   
    19   11   26 1   
    20   12   13 1   
    21   15   16 1   
    22   15   27 1   
    23   15   28 1   
    24   16   17 1   
    25   16   29 1   
    26   17   31 1   
    27   19   20 1   
    28   19   21 1   
    29   20   32 1   
    30   20   33 1   
    31   20   34 1   
    32   21   35 1   
    33   21   36 1   
    34   21   37 1   
    35   22   38 1   
    36   22   39 1   
    37   22   40 1   
@<TRIPOS>SUBSTRUCTURE
     1 AZQ         1 TEMP              0 ****  ****    0 ROOT
