@<TRIPOS>MOLECULE
AZQ
   41    43     1     0     0
SMALL
bcc


@<TRIPOS>ATOM
      1 C1         -0.0260   -0.6160    0.0210 c         1 AZQ      0.550300
      2 C2          1.4620   -0.2820   -0.0880 c3        1 AZQ     -0.201700
      3 C3          1.8870   -0.1780    1.3660 c         1 AZQ      0.565300
      4 N1          0.7890   -0.6570    2.2040 n         1 AZQ     -0.226300
      5 C4          0.6080   -0.0830    3.5300 cc        1 AZQ      0.543400
      6 N2         -0.5260    0.3270    4.0430 nd        1 AZQ     -0.586000
      7 C5         -1.6670    0.2680    3.2300 ca        1 AZQ      0.292600
      8 C6         -2.8990    0.7350    3.7300 ca        1 AZQ     -0.094300
      9 C7         -4.0450    0.6380    2.9520 ca        1 AZQ     -0.141000
     10 C8         -3.9980    0.0750    1.6710 ca        1 AZQ      0.008700
     11 C9         -2.7800   -0.3900    1.1530 ca        1 AZQ     -0.130000
     12 C10        -1.6090   -0.2970    1.9140 ca        1 AZQ     -0.081600
     13 N3         -0.3690   -0.8540    1.4340 n         1 AZQ     -0.040500
     14 O1         -0.8160   -0.7640   -0.9020 o         1 AZQ     -0.489500
     15 C11         2.2050   -1.3630   -0.8580 c3        1 AZQ     -0.029200
     16 C12         3.5590   -0.9190   -1.2690 c2        1 AZQ     -0.201200
     17 C13         4.6490   -1.6730   -1.1400 c2        1 AZQ     -0.175000
     18 O2          2.9680    0.1670    1.8440 o         1 AZQ     -0.566500
     19 N4          1.8220   -0.1140    4.4150 n4        1 AZQ     -0.666100
     20 C14         1.8050   -1.3730    5.2110 c3        1 AZQ      0.094600
     21 C15         1.8980    1.0830    5.2970 c3        1 AZQ      0.094600
     22 C16        -5.2240   -0.0290    0.8480 c3        1 AZQ     -0.077800
     23 H2          1.5930    0.7160   -0.5920 hc        1 AZQ      0.141700
     24 H6         -2.9540    1.1760    4.7400 ha        1 AZQ      0.166000
     25 H7         -5.0050    1.0050    3.3520 ha        1 AZQ      0.165000
     26 H9         -2.7690   -0.8370    0.1420 ha        1 AZQ      0.187000
     27 H111        1.6030   -1.5950   -1.7830 hc        1 AZQ      0.081200
     28 H112        2.2540   -2.3020   -0.2450 hc        1 AZQ      0.081200
     29 H12         3.6070    0.0800   -1.7340 ha        1 AZQ      0.133000
     30 H131        4.6360   -2.6750   -0.6900 ha        1 AZQ      0.125500
     31 H132        5.6350   -1.3340   -1.4890 ha        1 AZQ      0.125500
     32 H141        0.9140   -1.3780    5.8940 hx        1 AZQ      0.109200
     33 H142        2.7500   -1.4230    5.8160 hx        1 AZQ      0.109200
     34 H143        1.7480   -2.2510    4.5130 hx        1 AZQ      0.109200
     35 H151        1.8140    2.0120    4.6720 hx        1 AZQ      0.109200
     36 H152        1.0700    1.0650    6.0560 hx        1 AZQ      0.109200
     37 H153        2.8910    1.0630    5.8230 hx        1 AZQ      0.109200
     38 H161       -5.2430    0.7980    0.0920 hc        1 AZQ      0.069700
     39 H162       -5.2530   -1.0030    0.2980 hc        1 AZQ      0.069700
     40 H163       -6.1440    0.0510    1.4790 hc        1 AZQ      0.069700
     41 H41         2.6700   -0.1130    3.8120 hn        1 AZQ      0.489800
@<TRIPOS>BOND
     1    1    2 1   
     2    1   13 1   
     3    1   14 2   
     4    2    3 1   
     5    2   15 1   
     6    2   23 1   
     7    3    4 1   
     8    3   18 2   
     9    4    5 1   
    10    4   13 1   
    11    5    6 2   
    12    5   19 1   
    13    6    7 1   
    14    7    8 ar  
    15    7   12 ar  
    16    8    9 ar  
    17    8   24 1   
    18    9   10 ar  
    19    9   25 1   
    20   10   11 ar  
    21   10   22 1   
    22   11   12 ar  
    23   11   26 1   
    24   12   13 1   
    25   15   16 1   
    26   15   27 1   
    27   15   28 1   
    28   16   17 2   
    29   16   29 1   
    30   17   30 1   
    31   17   31 1   
    32   19   20 1   
    33   19   21 1   
    34   19   41 1   
    35   20   32 1   
    36   20   33 1   
    37   20   34 1   
    38   21   35 1   
    39   21   36 1   
    40   21   37 1   
    41   22   38 1   
    42   22   39 1   
    43   22   40 1   
@<TRIPOS>SUBSTRUCTURE
     1 AZQ         1 TEMP              0 ****  ****    0 ROOT
