@<TRIPOS>MOLECULE
AZQ
   40    42     1     0     0
SMALL
bcc


@<TRIPOS>ATOM
      1 C1          0.2620   -1.5500   -0.9070 c         1 AZQ      0.550300
      2 C2          1.7540   -1.3490   -0.6320 c3        1 AZQ     -0.223700
      3 C3          1.8430    0.1580   -0.3950 c         1 AZQ      0.565300
      4 N1          0.5740    0.7430   -0.7390 n         1 AZQ     -0.288300
      5 C4          0.1410    2.0290   -0.1610 cc        1 AZQ      0.734400
      6 N2         -1.0620    2.2140    0.3390 nd        1 AZQ     -0.671000
      7 C5         -1.9670    1.1370    0.3330 ca        1 AZQ      0.364600
      8 C6         -3.2330    1.3010    0.9290 ca        1 AZQ     -0.146300
      9 C7         -4.1650    0.2720    0.8920 ca        1 AZQ     -0.135000
     10 C8         -3.8680   -0.9410    0.2620 ca        1 AZQ     -0.060300
     11 C9         -2.6160   -1.1310   -0.3300 ca        1 AZQ     -0.125000
     12 C10        -1.6570   -0.1080   -0.2970 ca        1 AZQ     -0.120600
     13 N3         -0.3930   -0.2450   -0.9800 n         1 AZQ     -0.027500
     14 O1         -0.2910   -2.6230   -1.1410 o         1 AZQ     -0.543500
     15 C11         2.2200   -2.1800    0.5470 c3        1 AZQ     -0.031200
     16 C12         3.6740   -2.4720    0.4820 c2        1 AZQ     -0.176200
     17 C13         4.5090   -2.2900    1.5010 c2        1 AZQ     -0.196000
     18 O2          2.8390    0.7970   -0.0550 o         1 AZQ     -0.565500
     19 N4          1.0340    3.1450   -0.2470 nh        1 AZQ     -0.722300
     20 C14         1.7170    3.4720    0.9840 c3        1 AZQ      0.167600
     21 C15         1.8320    3.2480   -1.4440 c3        1 AZQ      0.167600
     22 C16        -4.8810   -2.0200    0.2010 c3        1 AZQ     -0.056800
     23 H2          2.3350   -1.6060   -1.5600 hc        1 AZQ      0.129700
     24 H6         -3.4820    2.2550    1.4210 ha        1 AZQ      0.155000
     25 H7         -5.1500    0.4160    1.3620 ha        1 AZQ      0.139000
     26 H9         -2.4000   -2.0920   -0.8270 ha        1 AZQ      0.169000
     27 H111        1.9620   -1.6560    1.5060 hc        1 AZQ      0.068200
     28 H112        1.6590   -3.1570    0.5320 hc        1 AZQ      0.068200
     29 H12         4.0250   -2.8810   -0.4800 ha        1 AZQ      0.124000
     30 H131        4.1910   -1.8790    2.4690 ha        1 AZQ      0.116500
     31 H132        5.5770   -2.5390    1.4320 ha        1 AZQ      0.116500
     32 H141        2.1270    4.5110    0.8760 h1        1 AZQ      0.051033
     33 H142        0.9890    3.4560    1.8360 h1        1 AZQ      0.051033
     34 H143        2.5670    2.7690    1.2070 h1        1 AZQ      0.051033
     35 H151        2.1510    4.3220   -1.5310 h1        1 AZQ      0.051033
     36 H152        2.7520    2.6020   -1.4240 h1        1 AZQ      0.051033
     37 H153        1.2120    2.9800   -2.3380 h1        1 AZQ      0.051033
     38 H161       -5.4820   -1.9230   -0.7390 hc        1 AZQ      0.049367
     39 H162       -4.3950   -3.0270    0.2010 hc        1 AZQ      0.049367
     40 H163       -5.5800   -1.9630    1.0710 hc        1 AZQ      0.049367
@<TRIPOS>BOND
     1    1    2 1   
     2    1   13 1   
     3    1   14 2   
     4    2    3 1   
     5    2   15 1   
     6    2   23 1   
     7    3    4 1   
     8    3   18 2   
     9    4    5 1   
    10    4   13 1   
    11    5    6 2   
    12    5   19 1   
    13    6    7 1   
    14    7    8 ar  
    15    7   12 ar  
    16    8    9 ar  
    17    8   24 1   
    18    9   10 ar  
    19    9   25 1   
    20   10   11 ar  
    21   10   22 1   
    22   11   12 ar  
    23   11   26 1   
    24   12   13 1   
    25   15   16 1   
    26   15   27 1   
    27   15   28 1   
    28   16   17 2   
    29   16   29 1   
    30   17   30 1   
    31   17   31 1   
    32   19   20 1   
    33   19   21 1   
    34   20   32 1   
    35   20   33 1   
    36   20   34 1   
    37   21   35 1   
    38   21   36 1   
    39   21   37 1   
    40   22   38 1   
    41   22   39 1   
    42   22   40 1   
@<TRIPOS>SUBSTRUCTURE
     1 AZQ         1 TEMP              0 ****  ****    0 ROOT
