@<TRIPOS>MOLECULE
AZQ
   41    43     1     0     0
SMALL
bcc


@<TRIPOS>ATOM
      1 C1         -0.0200   -0.5870    0.0150 c         1 AZQ      0.550300
      2 C2          1.4700   -0.2570   -0.0840 c3        1 AZQ     -0.201700
      3 C3          1.8900   -0.1750    1.3730 c         1 AZQ      0.564300
      4 N1          0.7870   -0.6610    2.2000 n         1 AZQ     -0.226300
      5 C4          0.6040   -0.1040    3.5330 cc        1 AZQ      0.543400
      6 N2         -0.5300    0.3040    4.0480 nd        1 AZQ     -0.586000
      7 C5         -1.6680    0.2620    3.2300 ca        1 AZQ      0.292600
      8 C6         -2.8990    0.7310    3.7310 ca        1 AZQ     -0.094300
      9 C7         -4.0420    0.6530    2.9470 ca        1 AZQ     -0.142000
     10 C8         -3.9930    0.1070    1.6580 ca        1 AZQ      0.008700
     11 C9         -2.7770   -0.3580    1.1390 ca        1 AZQ     -0.130000
     12 C10        -1.6080   -0.2840    1.9060 ca        1 AZQ     -0.081600
     13 N3         -0.3700   -0.8420    1.4240 n         1 AZQ     -0.040500
     14 O1         -0.8060   -0.7190   -0.9130 o         1 AZQ     -0.489500
     15 C11         2.2120   -1.3310   -0.8670 c3        1 AZQ     -0.029200
     16 C12         3.5700   -0.8870   -1.2660 c2        1 AZQ     -0.201200
     17 C13         4.6550   -1.6470   -1.1430 c2        1 AZQ     -0.175000
     18 O2          2.9710    0.1580    1.8600 o         1 AZQ     -0.566500
     19 N4          1.8150   -0.1540    4.4220 nx        1 AZQ     -0.666100
     20 C14         1.7890   -1.4240    5.2010 c3        1 AZQ      0.094100
     21 C15         1.8940    1.0300    5.3210 c3        1 AZQ      0.094100
     22 C16        -5.2230    0.0010    0.8420 c3        1 AZQ     -0.078800
     23 H2          1.6070    0.7470   -0.5730 hc        1 AZQ      0.141700
     24 H6         -2.9550    1.1580    4.7470 ha        1 AZQ      0.166000
     25 H7         -5.0010    1.0230    3.3460 ha        1 AZQ      0.165000
     26 H9         -2.7630   -0.7890    0.1210 ha        1 AZQ      0.187000
     27 H111        2.2540   -2.2790   -0.2670 hc        1 AZQ      0.081200
     28 H112        1.6120   -1.5470   -1.7970 hc        1 AZQ      0.081200
     29 H12         3.6230    0.1190   -1.7160 ha        1 AZQ      0.133000
     30 H131        4.6360   -2.6560   -0.7080 ha        1 AZQ      0.125500
     31 H132        5.6440   -1.3080   -1.4830 ha        1 AZQ      0.125500
     32 H141        1.7290   -2.2930    4.4910 hx        1 AZQ      0.109200
     33 H142        0.8950   -1.4330    5.8810 hx        1 AZQ      0.109200
     34 H143        2.7310   -1.4870    5.8080 hx        1 AZQ      0.109200
     35 H151        1.8170    1.9670    4.7090 hx        1 AZQ      0.109200
     36 H152        1.0630    1.0060    6.0760 hx        1 AZQ      0.109200
     37 H153        2.8850    0.9970    5.8500 hx        1 AZQ      0.109200
     38 H161       -5.6760   -1.0160    0.9770 hc        1 AZQ      0.069700
     39 H162       -5.9790    0.7650    1.1500 hc        1 AZQ      0.069700
     40 H163       -4.9980    0.1400   -0.2450 hc        1 AZQ      0.069700
     41 H41         2.6650   -0.1500    3.8230 hn        1 AZQ      0.489800
@<TRIPOS>BOND
     1    1    2 1   
     2    1   13 1   
     3    1   14 2   
     4    2    3 1   
     5    2   15 1   
     6    2   23 1   
     7    3    4 1   
     8    3   18 2   
     9    4    5 1   
    10    4   13 1   
    11    5    6 2   
    12    5   19 1   
    13    6    7 1   
    14    7    8 ar  
    15    7   12 ar  
    16    8    9 ar  
    17    8   24 1   
    18    9   10 ar  
    19    9   25 1   
    20   10   11 ar  
    21   10   22 1   
    22   11   12 ar  
    23   11   26 1   
    24   12   13 1   
    25   15   16 1   
    26   15   27 1   
    27   15   28 1   
    28   16   17 2   
    29   16   29 1   
    30   17   30 1   
    31   17   31 1   
    32   19   20 1   
    33   19   21 1   
    34   19   41 1   
    35   20   32 1   
    36   20   33 1   
    37   20   34 1   
    38   21   35 1   
    39   21   36 1   
    40   21   37 1   
    41   22   38 1   
    42   22   39 1   
    43   22   40 1   
@<TRIPOS>SUBSTRUCTURE
     1 AZQ         1 TEMP              0 ****  ****    0 ROOT
