@<TRIPOS>MOLECULE
AZQ
   41    43     1     0     0
SMALL
bcc


@<TRIPOS>ATOM
      1 C1          0.1700    0.3330   -0.0390 c         1 AZQ      0.551300
      2 C2          1.6490   -0.0540   -0.0740 c3        1 AZQ     -0.204700
      3 C3          2.0380   -0.0240    1.3930 c         1 AZQ      0.565300
      4 N1          0.9310    0.5560    2.1520 n         1 AZQ     -0.228300
      5 C4          0.7020    0.1180    3.5210 cc        1 AZQ      0.544400
      6 N2         -0.4550   -0.2140    4.0400 nd        1 AZQ     -0.586000
      7 C5         -1.5730   -0.2060    3.1920 ca        1 AZQ      0.292600
      8 C6         -2.8290   -0.5960    3.7000 ca        1 AZQ     -0.095300
      9 C7         -3.9520   -0.5470    2.8840 ca        1 AZQ     -0.142000
     10 C8         -3.8570   -0.1070    1.5580 ca        1 AZQ      0.008700
     11 C9         -2.6160    0.2790    1.0320 ca        1 AZQ     -0.130000
     12 C10        -1.4670    0.2310    1.8310 ca        1 AZQ     -0.080600
     13 N3         -0.2020    0.7110    1.3370 n         1 AZQ     -0.039500
     14 O1         -0.5890    0.4240   -0.9940 o         1 AZQ     -0.489500
     15 C11         1.8570   -1.4040   -0.7380 c3        1 AZQ     -0.032200
     16 C12         3.2630   -1.6010   -1.1680 c2        1 AZQ     -0.199200
     17 C13         3.9520   -2.7170   -0.9420 c2        1 AZQ     -0.174000
     18 O2          3.1100   -0.3090    1.9280 o         1 AZQ     -0.566500
     19 N4          1.8940    0.2080    4.4320 n4        1 AZQ     -0.666100
     20 C14         1.9150   -0.8950    5.4310 c3        1 AZQ      0.094600
     21 C15         1.8910    1.5410    5.0970 c3        1 AZQ      0.094600
     22 C16        -5.0660   -0.0290    0.7070 c3        1 AZQ     -0.078800
     23 H2          2.2250    0.7460   -0.6220 hc        1 AZQ      0.153700
     24 H6         -2.9200   -0.9390    4.7440 ha        1 AZQ      0.166000
     25 H7         -4.9300   -0.8560    3.2880 ha        1 AZQ      0.165000
     26 H9         -2.5660    0.6270   -0.0150 ha        1 AZQ      0.187000
     27 H111        1.5290   -2.2260   -0.0480 hc        1 AZQ      0.075700
     28 H112        1.1930   -1.4430   -1.6490 hc        1 AZQ      0.075700
     29 H12         3.7020   -0.7610   -1.7340 ha        1 AZQ      0.135000
     30 H131        3.5420   -3.5740   -0.3900 ha        1 AZQ      0.125000
     31 H132        4.9810   -2.8490   -1.3050 ha        1 AZQ      0.125000
     32 H141        2.8940   -0.8470    5.9800 hx        1 AZQ      0.109200
     33 H142        1.8210   -1.8800    4.9010 hx        1 AZQ      0.109200
     34 H143        1.0690   -0.7790    6.1620 hx        1 AZQ      0.109200
     35 H151        1.8760    2.3460    4.3140 hx        1 AZQ      0.109200
     36 H152        0.9820    1.6370    5.7500 hx        1 AZQ      0.109200
     37 H153        2.8200    1.6280    5.7210 hx        1 AZQ      0.109200
     38 H161       -5.8460   -0.7540    1.0470 hc        1 AZQ      0.069700
     39 H162       -5.4990    1.0040    0.7630 hc        1 AZQ      0.069700
     40 H163       -4.8200   -0.2450   -0.3630 hc        1 AZQ      0.069700
     41 H41         2.7560    0.1270    3.8560 hn        1 AZQ      0.489800
@<TRIPOS>BOND
     1    1    2 1   
     2    1   13 1   
     3    1   14 2   
     4    2    3 1   
     5    2   15 1   
     6    2   23 1   
     7    3    4 1   
     8    3   18 2   
     9    4    5 1   
    10    4   13 1   
    11    5    6 2   
    12    5   19 1   
    13    6    7 1   
    14    7    8 ar  
    15    7   12 ar  
    16    8    9 ar  
    17    8   24 1   
    18    9   10 ar  
    19    9   25 1   
    20   10   11 ar  
    21   10   22 1   
    22   11   12 ar  
    23   11   26 1   
    24   12   13 1   
    25   15   16 1   
    26   15   27 1   
    27   15   28 1   
    28   16   17 2   
    29   16   29 1   
    30   17   30 1   
    31   17   31 1   
    32   19   20 1   
    33   19   21 1   
    34   19   41 1   
    35   20   32 1   
    36   20   33 1   
    37   20   34 1   
    38   21   35 1   
    39   21   36 1   
    40   21   37 1   
    41   22   38 1   
    42   22   39 1   
    43   22   40 1   
@<TRIPOS>SUBSTRUCTURE
     1 AZQ         1 TEMP              0 ****  ****    0 ROOT
