@<TRIPOS>MOLECULE
AZR
   47    46     1     0     0
SMALL
bcc


@<TRIPOS>ATOM
      1 C7          0.3670    0.0780    0.4400 c3        1 AZR     -0.123100
      2 S8         -0.7330    5.8210    2.5200 ss        1 AZR     -0.079300
      3 O9          4.6380   -1.0820    1.1270 o         1 AZR     -0.523100
      4 O10         0.7890    0.2240    3.7790 o         1 AZR     -0.604100
      5 O11         1.6520    1.7380    5.9500 os        1 AZR     -0.202300
      6 N12         2.2140   -1.2680   -0.4880 n8        1 AZR     -0.993800
      7 N13         2.2470    1.2830    2.3440 ns        1 AZR     -0.531900
      8 N14         1.1310    2.7670    5.3210 n2        1 AZR     -0.369200
      9 N15         0.4740    3.6260    1.8200 nc        1 AZR     -0.717000
     10 N16        -0.1320    5.0840   -0.0400 nv        1 AZR     -0.892500
     11 S17         1.6880   -0.9980   -2.8500 s4        1 AZR      1.812000
     12 C18         1.8770   -0.0480    0.2370 c3        1 AZR      0.138500
     13 C19         2.5900    0.0770    1.6300 c3        1 AZR     -0.052300
     14 C20         4.1030   -0.0180    1.4380 c         1 AZR      0.562900
     15 C21         1.3020    1.2760    3.3490 c         1 AZR      0.583800
     16 C22         0.9810    2.5950    4.0260 ce        1 AZR      0.290300
     17 C23         1.5210    1.7350    7.4150 c3        1 AZR      0.092800
     18 C24         0.4220    3.6800    3.2120 cc        1 AZR      0.325000
     19 C25        -0.2160    4.8030    3.7310 cd        1 AZR     -0.226400
     20 C26        -0.1080    4.7270    1.3030 cd        1 AZR      0.625300
     21 C27         0.1370    2.1400    7.8880 c3        1 AZR     -0.112100
     22 C28         2.6080    2.6080    8.0090 c3        1 AZR     -0.112100
     23 C29         1.7510    0.2640    7.7610 c         1 AZR      0.634100
     24 O30         2.1100   -0.1410    8.8670 o         1 AZR     -0.492000
     25 O31         1.5300   -0.7080    6.8430 oh        1 AZR     -0.569100
     26 O32         2.0810    0.3040   -2.8760 o         1 AZR     -0.584733
     27 O33         0.3690   -1.2860   -2.6880 o         1 AZR     -0.584733
     28 O34         2.5540   -1.9710   -3.2280 o         1 AZR     -0.704533
     29 H7         -0.1910   -0.2390   -0.4770 hc        1 AZR      0.064367
     30 H7A         0.1070    1.1430    0.6510 hc        1 AZR      0.064367
     31 H7B         0.0320   -0.5480    1.3020 hc        1 AZR      0.064367
     32 HN12        3.1970   -1.4740   -0.4350 hn        1 AZR      0.396300
     33 HN13        2.4740    2.1420    1.8990 hn        1 AZR      0.332500
     34 HN16       -1.0200    5.4260   -0.3420 hn        1 AZR      0.409800
     35 HN1A        0.2600    4.4090   -0.6660 hn        1 AZR      0.409800
     36 H18         2.2310    0.8090   -0.4150 h1        1 AZR      0.086700
     37 H19         2.2650   -0.8080    2.2640 h1        1 AZR      0.118700
     38 H20         4.6960    0.9090    1.6000 h4        1 AZR      0.019200
     39 H25        -0.3680    5.0040    4.7920 h4        1 AZR      0.198000
     40 H27         0.0360    1.8900    8.9720 hc        1 AZR      0.064033
     41 H27A       -0.0180    3.2370    7.7560 hc        1 AZR      0.064033
     42 H27B       -0.6470    1.5910    7.3120 hc        1 AZR      0.064033
     43 H28         3.5920    2.3740    7.5360 hc        1 AZR      0.064033
     44 H28A        2.6780    2.4130    9.1070 hc        1 AZR      0.064033
     45 H28B        2.3730    3.6850    7.8350 hc        1 AZR      0.064033
     46 H122        1.7010   -2.0510   -0.1220 hn        1 AZR      0.396300
     47 H132        1.2420   -0.3390    5.9900 ho        1 AZR      0.464000
@<TRIPOS>BOND
     1    1   12 1   
     2    1   29 1   
     3    1   30 1   
     4    1   31 1   
     5    2   19 1   
     6    2   20 1   
     7    3   14 2   
     8    4   15 2   
     9    5    8 1   
    10    5   17 1   
    11    6   12 1   
    12    6   32 1   
    13    6   46 1   
    14    7   13 1   
    15    7   15 1   
    16    7   33 1   
    17    8   16 2   
    18    9   18 1   
    19    9   20 2   
    20   10   20 1   
    21   10   34 1   
    22   10   35 1   
    23   11   26 1   
    24   11   27 1   
    25   11   28 2   
    26   12   13 1   
    27   12   36 1   
    28   13   14 1   
    29   13   37 1   
    30   14   38 1   
    31   15   16 1   
    32   16   18 1   
    33   17   21 1   
    34   17   22 1   
    35   17   23 1   
    36   18   19 2   
    37   19   39 1   
    38   21   40 1   
    39   21   41 1   
    40   21   42 1   
    41   22   43 1   
    42   22   44 1   
    43   22   45 1   
    44   23   24 2   
    45   23   25 1   
    46   25   47 1   
@<TRIPOS>SUBSTRUCTURE
     1 AZR         1 TEMP              0 ****  ****    0 ROOT
