@<TRIPOS>MOLECULE
AZR
   48    47     1     0     0
SMALL
bcc


@<TRIPOS>ATOM
      1 C7          0.2550   -1.6920    0.1170 c3        1 AZR     -0.121100
      2 S8          0.7190    6.1860    1.7980 ss        1 AZR      0.156700
      3 O9          3.0130   -1.5250    2.5330 o         1 AZR     -0.517100
      4 O10        -0.9670    1.5160    2.7190 o         1 AZR     -0.575100
      5 O11         0.9640    1.9230    5.8620 os        1 AZR     -0.162300
      6 N12         1.8270    0.2320    0.2690 n3        1 AZR     -0.997800
      7 N13         1.0490    0.4790    3.1490 n         1 AZR     -0.563900
      8 N14         1.1360    2.9580    5.0750 n2        1 AZR     -0.350200
      9 N15         1.1200    3.6390    1.5620 nc        1 AZR     -0.577000
     10 N16         1.3280    4.7970   -0.5690 n4        1 AZR     -0.773300
     11 S17         1.7040    1.0330   -1.9810 s4        1 AZR      1.846000
     12 C18         0.6340   -0.3990    0.8320 c3        1 AZR      0.136500
     13 C19         0.7510   -0.6980    2.3700 c3        1 AZR     -0.038300
     14 C20         1.8110   -1.7830    2.5500 c         1 AZR      0.560900
     15 C21         0.1750    1.5390    3.2090 c         1 AZR      0.581800
     16 C22         0.7360    2.7980    3.8400 ce        1 AZR      0.263300
     17 C23         1.8300    1.8720    7.0500 c3        1 AZR      0.140800
     18 C24         0.8240    3.9100    2.8810 cc        1 AZR      0.356000
     19 C25         0.5910    5.2670    3.1580 cd        1 AZR     -0.205400
     20 C26         1.0870    4.8010    0.8600 cd        1 AZR      0.332300
     21 C27         1.1720    0.7930    7.9040 c3        1 AZR     -0.107100
     22 C28         1.9170    3.1940    7.7860 c3        1 AZR     -0.107100
     23 C29         3.2110    1.4090    6.6270 c         1 AZR      0.614100
     24 O30         4.2370    1.3690    7.3050 o         1 AZR     -0.506000
     25 O31         3.2980    0.9700    5.3390 oh        1 AZR     -0.628100
     26 O32         1.6270    2.3650   -1.6330 o         1 AZR     -0.598733
     27 O33         0.5540    0.4040   -2.3060 o         1 AZR     -0.598733
     28 O34         2.9280    0.5390   -2.2710 o         1 AZR     -0.718533
     29 H7          1.0770   -2.4470    0.1690 hc        1 AZR      0.066367
     30 H7A        -0.6580   -2.1200    0.5980 hc        1 AZR      0.066367
     31 H7B         0.0200   -1.4880   -0.9580 hc        1 AZR      0.066367
     32 HN12        2.0740    1.0410    0.8140 hn        1 AZR      0.393800
     33 HN13        4.2030    0.6570    5.1620 ho        1 AZR      0.460000
     34 HN16        2.2250    4.3200   -0.7800 hn        1 AZR      0.484133
     35 HN1A        0.6000    4.2320   -1.0460 hn        1 AZR      0.484133
     36 H18        -0.2200    0.3380    0.7080 h1        1 AZR      0.104700
     37 H19        -0.2570   -1.0990    2.6930 h1        1 AZR      0.101700
     38 H20         1.4130   -2.8130    2.6650 h4        1 AZR      0.039200
     39 H25         0.3490    5.6520    4.1550 h4        1 AZR      0.230000
     40 H27         1.8480    0.5460    8.7580 hc        1 AZR      0.072033
     41 H27A        0.1970    1.1680    8.2950 hc        1 AZR      0.072033
     42 H27B        0.9880   -0.1270    7.2980 hc        1 AZR      0.072033
     43 H28         2.4910    3.9510    7.2010 hc        1 AZR      0.072033
     44 H28A        2.4400    3.0310    8.7610 hc        1 AZR      0.072033
     45 H28B        0.8880    3.5840    7.9790 hc        1 AZR      0.072033
     46 H122        2.6030   -0.4120    0.2910 hn        1 AZR      0.393800
     47 H132        1.9070    0.5060    3.6580 hn        1 AZR      0.352500
     48 H163        1.3370    5.7510   -0.9300 hn        1 AZR      0.484133
@<TRIPOS>BOND
     1    1   12 1   
     2    1   29 1   
     3    1   30 1   
     4    1   31 1   
     5    2   19 1   
     6    2   20 1   
     7    3   14 2   
     8    4   15 2   
     9    5    8 1   
    10    5   17 1   
    11    6   12 1   
    12    6   32 1   
    13    6   46 1   
    14    7   13 1   
    15    7   15 1   
    16    7   47 1   
    17    8   16 2   
    18    9   18 1   
    19    9   20 2   
    20   10   20 1   
    21   10   34 1   
    22   10   35 1   
    23   10   48 1   
    24   11   26 1   
    25   11   27 1   
    26   11   28 2   
    27   12   13 1   
    28   12   36 1   
    29   13   14 1   
    30   13   37 1   
    31   14   38 1   
    32   15   16 1   
    33   16   18 1   
    34   17   21 1   
    35   17   22 1   
    36   17   23 1   
    37   18   19 2   
    38   19   39 1   
    39   21   40 1   
    40   21   41 1   
    41   21   42 1   
    42   22   43 1   
    43   22   44 1   
    44   22   45 1   
    45   23   24 2   
    46   23   25 1   
    47   25   33 1   
@<TRIPOS>SUBSTRUCTURE
     1 AZR         1 TEMP              0 ****  ****    0 ROOT
