@<TRIPOS>MOLECULE
AZR
   45    43     1     0     0
SMALL
bcc


@<TRIPOS>ATOM
      1 C7         -3.9900   -0.1210   -1.4020 c3        1 AZR     -0.223000
      2 S8         -0.9340    4.2640    1.6110 ss        1 AZR      0.460000
      3 O9         -0.6730   -3.0620   -1.2720 o         1 AZR     -0.326000
      4 O10        -0.2180   -1.2340    1.6040 o         1 AZR     -0.406000
      5 O11         2.5410   -0.6230    1.1900 os        1 AZR     -0.206000
      6 N12        -3.3960   -2.3090   -2.1730 n3        1 AZR     -0.892000
      7 N13        -0.9760   -0.4100   -0.3860 n         1 AZR     -0.344000
      8 N14         2.0330    0.6450    1.1850 n2        1 AZR      0.102000
      9 N15         0.3580    3.2910   -0.1680 n2        1 AZR     -0.104000
     10 N16        -0.3450    5.8530   -0.1790 n3        1 AZR     -0.270000
     11 S17        -3.7910   -2.4810   -3.7570 s4        1 AZR      2.053800
     12 C18        -2.8600   -1.0800   -1.7040 c3        1 AZR      0.070000
     13 C19        -2.0590   -1.3270   -0.4460 c3        1 AZR     -0.079000
     14 C20        -1.5210   -2.7410   -0.4600 c2        1 AZR      0.163000
     15 C21        -0.1610   -0.3480    0.7740 c2        1 AZR      0.350000
     16 C22         0.7570    0.8360    0.9920 c2        1 AZR     -0.135000
     17 C23         3.8950   -0.5930    1.5630 c3        1 AZR      0.025000
     18 C24         0.1950    2.2410    0.9860 c2        1 AZR      0.010000
     19 C25        -0.5820    2.8440    2.0420 c1        1 AZR     -0.424000
     20 C26        -0.3170    4.4910    0.2140 c2        1 AZR     -0.246000
     21 C27         4.0850   -1.3880    2.8360 c3        1 AZR     -0.207000
     22 C28         4.7360   -1.1990    0.4600 c3        1 AZR     -0.207000
     23 C29         4.3230    0.8400    1.7940 c2        1 AZR      0.338000
     24 O30         4.8240    1.1760    2.8990 o         1 AZR     -0.559500
     25 O31         4.1780    1.6950    0.8810 o         1 AZR     -0.559500
     26 O32        -5.2580   -2.2080   -3.9880 o         1 AZR     -0.684400
     27 O33        -2.9260   -1.5860   -4.6120 os        1 AZR     -1.070000
     28 O34        -3.6880   -3.9230   -4.1940 o         1 AZR     -0.684400
     29 H7         -4.2040    0.3950   -2.2080 hc        1 AZR      0.074333
     30 H7A        -4.7800   -0.6250   -1.1180 hc        1 AZR      0.074333
     31 H7B        -3.7170    0.4900   -0.6860 hc        1 AZR      0.074333
     32 HN12       -3.5320   -2.9980   -1.5910 hn        1 AZR      0.200000
     33 HN13       -0.8210    0.1580   -1.0830 hn        1 AZR      0.246000
     34 HN16       -0.7240    6.4790    0.3690 hn        1 AZR      0.158000
     35 HN1A        0.0310    6.1080   -0.9720 hn        1 AZR      0.158000
     36 H18        -2.2800   -0.6950   -2.3900 h1        1 AZR      0.096000
     37 H19        -2.6330   -1.2050    0.3360 h1        1 AZR      0.130000
     38 H20        -1.8630   -3.4010    0.1760 h4        1 AZR      0.169000
     39 H25        -0.8380    2.4190    2.8830 DU        1 AZR      0.214000
     40 H27         4.0320   -2.3460    2.6340 hc        1 AZR      0.077333
     41 H27A        3.3840   -1.1490    3.4780 hc        1 AZR      0.077333
     42 H27B        4.9640   -1.1840    3.2200 hc        1 AZR      0.077333
     43 H28         5.6840   -1.1350    0.6990 hc        1 AZR      0.077333
     44 H28A        4.5760   -0.7130   -0.3770 hc        1 AZR      0.077333
     45 H28B        4.4910   -2.1410    0.3420 hc        1 AZR      0.077333
@<TRIPOS>BOND
     1    1   12 1   
     2    1   29 1   
     3    1   30 1   
     4    1   31 1   
     5    2   19 1   
     6    2   20 1   
     7    3   14 1   
     8    4   15 1   
     9    5    8 1   
    10    5   17 1   
    11    6   11 1   
    12    6   12 1   
    13    6   32 1   
    14    7   13 1   
    15    7   15 1   
    16    7   33 1   
    17    8   16 1   
    18    9   18 1   
    19    9   20 1   
    20   10   20 1   
    21   10   34 1   
    22   10   35 1   
    23   11   26 1   
    24   11   28 1   
    25   12   13 1   
    26   12   36 1   
    27   13   14 1   
    28   13   37 1   
    29   14   38 1   
    30   15   16 1   
    31   16   18 1   
    32   17   21 1   
    33   17   22 1   
    34   17   23 1   
    35   18   19 1   
    36   21   40 1   
    37   21   41 1   
    38   21   42 1   
    39   22   43 1   
    40   22   44 1   
    41   22   45 1   
    42   23   24 1   
    43   23   25 1   
@<TRIPOS>SUBSTRUCTURE
     1 AZR         1 TEMP              0 ****  ****    0 ROOT
