@<TRIPOS>MOLECULE
AZR
   45    45     1     0     0
SMALL
bcc


@<TRIPOS>ATOM
      1 C7          3.5820   -1.6500   -1.8140 c3        1 AZR     -0.133100
      2 S8         -0.5440    4.3810   -0.7090 ss        1 AZR     -0.253300
      3 O9          1.8170   -2.6380    1.5110 o         1 AZR     -0.535100
      4 O10        -0.9340   -0.8660   -2.0780 o         1 AZR     -0.617100
      5 O11        -3.5270   -0.7120   -0.1300 os        1 AZR     -0.132300
      6 N12         3.3000   -0.1850    0.1750 n3        1 AZR     -0.919100
      7 N13         0.2790   -0.8050   -0.1230 n         1 AZR     -0.531900
      8 N14        -2.9810    0.4640   -0.0230 n2        1 AZR     -0.369200
      9 N15         0.0520    2.1370    0.4700 nc        1 AZR     -0.686000
     10 N16         1.6170    3.9760    0.9320 nh        1 AZR     -0.867500
     11 S17         4.4190    1.0700    0.1430 s6        1 AZR      1.544700
     12 C18         2.6670   -0.7480   -0.9720 c3        1 AZR      0.256500
     13 C19         1.3710   -1.5810   -0.6470 c3        1 AZR     -0.023300
     14 C20         1.7740   -2.7140    0.2840 c         1 AZR      0.575900
     15 C21        -0.7740   -0.4120   -0.9270 c         1 AZR      0.589800
     16 C22        -1.7260    0.6120   -0.3560 ce        1 AZR      0.232300
     17 C23        -4.9450   -0.7680    0.2830 c3        1 AZR      0.031800
     18 C24        -1.1180    1.9550   -0.2670 cc        1 AZR      0.361000
     19 C25        -1.5710    3.0710   -0.9500 cd        1 AZR     -0.230400
     20 C26         0.5050    3.3880    0.3190 cd        1 AZR      0.672300
     21 C27        -5.0730   -0.4560    1.7590 c3        1 AZR     -0.090600
     22 C28        -5.7790    0.1670   -0.5660 c3        1 AZR     -0.090600
     23 C29        -5.3550   -2.2720    0.0290 c         1 AZR      0.934600
     24 O30        -4.9440   -3.1310    0.8490 o         1 AZR     -0.818800
     25 O31        -6.1290   -2.4960   -0.9390 o         1 AZR     -0.818800
     26 O32         5.0930    1.0050   -1.1130 o         1 AZR     -0.758867
     27 O33         3.7150    2.3050    0.2920 o         1 AZR     -0.758867
     28 O34         5.2810    0.8290    1.2550 o         1 AZR     -0.758867
     29 H7          3.0360   -1.9960   -2.7230 hc        1 AZR      0.037700
     30 H7A         4.4830   -1.0670   -2.1310 hc        1 AZR      0.037700
     31 H7B         3.9180   -2.5420   -1.2350 hc        1 AZR      0.037700
     32 HN12        3.1150   -0.6630    1.0210 hn        1 AZR      0.416800
     33 HN13        0.4420   -0.3390    0.7400 hn        1 AZR      0.341500
     34 HN16        2.0960    3.3270    1.5420 hn        1 AZR      0.410800
     35 HN1A        2.2830    4.2640    0.2310 hn        1 AZR      0.410800
     36 H18         2.3470    0.1080   -1.6450 h1        1 AZR      0.057700
     37 H19         1.0280   -2.0390   -1.6260 h1        1 AZR      0.093700
     38 H20         2.0690   -3.6480   -0.2480 h4        1 AZR     -0.020800
     39 H25        -2.4580    3.1060   -1.5750 h4        1 AZR      0.178000
     40 H27        -4.8320    0.6110    1.9800 hc        1 AZR      0.032367
     41 H27A       -6.1200   -0.6640    2.0830 hc        1 AZR      0.032367
     42 H27B       -4.3830   -1.1210    2.3340 hc        1 AZR      0.032367
     43 H28        -5.5320    0.0100   -1.6430 hc        1 AZR      0.032367
     44 H28A       -6.8580   -0.0800   -0.4160 hc        1 AZR      0.032367
     45 H28B       -5.6050    1.2360   -0.2970 hc        1 AZR      0.032367
@<TRIPOS>BOND
     1    1   12 1   
     2    1   29 1   
     3    1   30 1   
     4    1   31 1   
     5    2   19 1   
     6    2   20 1   
     7    3   14 2   
     8    4   15 2   
     9    5    8 1   
    10    5   17 1   
    11    6   11 1   
    12    6   12 1   
    13    6   32 1   
    14    7   13 1   
    15    7   15 1   
    16    7   33 1   
    17    8   16 2   
    18    9   18 1   
    19    9   20 2   
    20   10   20 1   
    21   10   34 1   
    22   10   35 1   
    23   11   26 1   
    24   11   27 1   
    25   11   28 1   
    26   12   13 1   
    27   12   36 1   
    28   13   14 1   
    29   13   37 1   
    30   14   38 1   
    31   15   16 1   
    32   16   18 1   
    33   17   21 1   
    34   17   22 1   
    35   17   23 1   
    36   18   19 2   
    37   19   39 1   
    38   21   40 1   
    39   21   41 1   
    40   21   42 1   
    41   22   43 1   
    42   22   44 1   
    43   22   45 1   
    44   23   24 1   
    45   23   25 1   
@<TRIPOS>SUBSTRUCTURE
     1 AZR         1 TEMP              0 ****  ****    0 ROOT
