@<TRIPOS>MOLECULE
AZR
   47    46     1     0     0
SMALL
bcc


@<TRIPOS>ATOM
      1 C7          1.2980   -1.9540    0.0650 c3        1 AZR     -0.115100
      2 S8          0.2380    5.7530    1.8970 ss        1 AZR     -0.107300
      3 O9          4.4260   -0.3310    0.9890 o         1 AZR     -0.523100
      4 O10         0.4140    0.2710    3.9310 o         1 AZR     -0.601100
      5 O11         1.5980    1.8230    6.0210 os        1 AZR     -0.206300
      6 N12         1.9000    0.4080   -0.4160 n3        1 AZR     -0.997800
      7 N13         2.2280    0.7430    2.5950 n         1 AZR     -0.535900
      8 N14         1.3480    2.8480    5.2340 n2        1 AZR     -0.371200
      9 N15         1.0610    3.2990    1.6070 nc        1 AZR     -0.739000
     10 N16         0.8520    4.5480   -0.4760 nh        1 AZR     -0.891500
     11 S17         0.5620    0.7340   -2.3940 s4        1 AZR      1.823000
     12 C18         1.3840   -0.5210    0.5830 c3        1 AZR      0.137500
     13 C19         2.2030   -0.5300    1.9200 c3        1 AZR     -0.048300
     14 C20         3.6170   -1.0180    1.6100 c         1 AZR      0.564900
     15 C21         1.2300    1.0980    3.4770 c         1 AZR      0.582800
     16 C22         1.2070    2.5320    3.9670 ce        1 AZR      0.292300
     17 C23         1.3950    2.0400    7.4600 c3        1 AZR      0.093800
     18 C24         0.9310    3.5720    2.9700 cc        1 AZR      0.327000
     19 C25         0.4870    4.8530    3.2770 cd        1 AZR     -0.225400
     20 C26         0.7250    4.3940    0.8940 cd        1 AZR      0.651300
     21 C27         0.1240    2.8070    7.7740 c3        1 AZR     -0.111600
     22 C28         2.6270    2.7110    8.0340 c3        1 AZR     -0.111600
     23 C29         1.2530    0.6120    7.9870 c         1 AZR      0.634100
     24 O30         1.4660    0.2730    9.1510 o         1 AZR     -0.493000
     25 O31         0.8360   -0.3880    7.1710 oh        1 AZR     -0.571100
     26 O32         0.3930    2.0570   -2.1070 o         1 AZR     -0.589067
     27 O33        -0.4160   -0.1490   -2.0710 o         1 AZR     -0.589067
     28 O34         1.5660    0.3640   -3.2280 o         1 AZR     -0.708867
     29 H7          0.6270   -2.0020   -0.8300 hc        1 AZR      0.059033
     30 H7A         0.8640   -2.6050    0.8620 hc        1 AZR      0.059033
     31 H7B         2.3050   -2.3470   -0.2140 hc        1 AZR      0.059033
     32 HN12        1.9580    1.3360   -0.0310 hn        1 AZR      0.396800
     33 HN13        2.8010    1.4530    2.1950 hn        1 AZR      0.333500
     34 HN16        1.0700    3.7150   -0.9910 hn        1 AZR      0.423800
     35 HN1A        0.1050    5.0680   -0.8890 hn        1 AZR      0.423800
     36 H18         0.3340   -0.1770    0.8370 h1        1 AZR      0.098700
     37 H19         1.6970   -1.2750    2.6070 h1        1 AZR      0.112700
     38 H20         3.8490   -2.0440    1.9670 h4        1 AZR      0.024200
     39 H25         0.3140    5.2350    4.2830 h4        1 AZR      0.195000
     40 H27        -0.0840    2.7320    8.8700 hc        1 AZR      0.063700
     41 H27A        0.2380    3.8830    7.5030 hc        1 AZR      0.063700
     42 H27B       -0.7390    2.3800    7.2090 hc        1 AZR      0.063700
     43 H28         2.5930    2.6510    9.1500 hc        1 AZR      0.063700
     44 H28A        3.5500    2.1980    7.6710 hc        1 AZR      0.063700
     45 H28B        2.6620    3.7810    7.7190 hc        1 AZR      0.063700
     46 H122        2.8190    0.1260   -0.7180 hn        1 AZR      0.396800
     47 H132        0.6710   -0.0680    6.2670 ho        1 AZR      0.462000
@<TRIPOS>BOND
     1    1   12 1   
     2    1   29 1   
     3    1   30 1   
     4    1   31 1   
     5    2   19 1   
     6    2   20 1   
     7    3   14 2   
     8    4   15 2   
     9    5    8 1   
    10    5   17 1   
    11    6   12 1   
    12    6   32 1   
    13    6   46 1   
    14    7   13 1   
    15    7   15 1   
    16    7   33 1   
    17    8   16 2   
    18    9   18 1   
    19    9   20 2   
    20   10   20 1   
    21   10   34 1   
    22   10   35 1   
    23   11   26 1   
    24   11   27 1   
    25   11   28 2   
    26   12   13 1   
    27   12   36 1   
    28   13   14 1   
    29   13   37 1   
    30   14   38 1   
    31   15   16 1   
    32   16   18 1   
    33   17   21 1   
    34   17   22 1   
    35   17   23 1   
    36   18   19 2   
    37   19   39 1   
    38   21   40 1   
    39   21   41 1   
    40   21   42 1   
    41   22   43 1   
    42   22   44 1   
    43   22   45 1   
    44   23   24 2   
    45   23   25 1   
    46   25   47 1   
@<TRIPOS>SUBSTRUCTURE
     1 AZR         1 TEMP              0 ****  ****    0 ROOT
