@<TRIPOS>MOLECULE
AZS
   18    17     1     0     0
SMALL
bcc


@<TRIPOS>ATOM
      1 OXT        -4.1560    0.3090    0.2710 o         1 AZS     -0.832800
      2 C          -3.1440   -0.2750   -0.2080 c         1 AZS      0.892600
      3 O          -3.1210   -1.4670   -0.6160 o         1 AZS     -0.832800
      4 CA         -1.8190    0.5580   -0.3350 c3        1 AZS      0.004500
      5 N          -1.8700    1.8770    0.2800 n3        1 AZS     -0.884800
      6 CB         -0.6760   -0.3090    0.1920 c3        1 AZS      0.155400
      7 OG          0.5320    0.1800   -0.4470 os        1 AZS     -0.414900
      8 CH          1.7120   -0.1450    0.1310 c2        1 AZS      0.458100
      9 CI          2.8430    0.4230   -0.6100 ce        1 AZS      0.148700
     10 NJ          4.0870    0.2310   -0.2470 n1        1 AZS     -0.311700
     11 NK          5.1670    0.0680    0.0560 n1        1 AZS     -0.050000
     12 OH          1.7600   -0.8390    1.1550 o         1 AZS     -0.396000
     13 HA         -1.6510    0.7220   -1.4390 h1        1 AZS      0.059700
     14 HN1        -2.7480    2.2930    0.0130 hn        1 AZS      0.332800
     15 HN2        -1.9060    1.7640    1.2780 hn        1 AZS      0.332800
     16 HB1        -0.5590   -0.2570    1.3040 h1        1 AZS      0.067200
     17 HB2        -0.8200   -1.3730   -0.1360 h1        1 AZS      0.067200
     18 HI          2.6490    1.0440   -1.4980 h4        1 AZS      0.203000
@<TRIPOS>BOND
     1    1    2 1   
     2    2    3 1   
     3    2    4 1   
     4    4    5 1   
     5    4    6 1   
     6    4   13 1   
     7    5   14 1   
     8    5   15 1   
     9    6    7 1   
    10    6   16 1   
    11    6   17 1   
    12    7    8 1   
    13    8    9 2   
    14    8   12 1   
    15    9   10 1   
    16    9   18 1   
    17   10   11 3   
@<TRIPOS>SUBSTRUCTURE
     1 AZS         1 TEMP              0 ****  ****    0 ROOT
