@<TRIPOS>MOLECULE
AZT
   43    42     1     0     0
SMALL
bcc


@<TRIPOS>ATOM
      1 PA          0.0000    0.0000    0.0000 p5        1 AZT      1.404000
      2 O1A         1.5010    0.0000    0.0000 o         1 AZT     -0.702000
      3 O2A        -0.6670    0.0000    1.4730 o         1 AZT     -0.702000
      4 O3A        -0.6620    1.2940   -0.7050 os        1 AZT     -0.888000
      5 PB         -0.5460    1.8660   -2.2110 p5        1 AZT      1.425000
      6 O1B        -1.0140    0.9390   -3.2940 o         1 AZT     -0.735500
      7 O2B         0.9950    2.3380   -2.3400 o         1 AZT     -0.735500
      8 O3B        -1.3670    3.2520   -2.0970 os        1 AZT     -0.911000
      9 PG         -2.9280    3.5610   -1.8120 p5        1 AZT      1.047500
     10 O1G        -3.8750    2.9750   -2.8190 o         1 AZT     -0.598167
     11 O2G        -2.9770    5.1690   -1.6690 o         1 AZT     -0.598167
     12 O3G        -3.1320    3.0410   -0.2940 o         1 AZT     -0.598167
     13 O5'        -0.6790   -1.2620   -0.7500 os        1 AZT     -0.647000
     14 C5'        -2.0910   -1.3710   -0.8140 c3        1 AZT     -0.063000
     15 C4'        -2.4560   -2.6440   -1.5700 c3        1 AZT      0.052000
     16 O4'        -3.8920   -2.7090   -1.6610 os        1 AZT     -0.300000
     17 C3'        -1.9230   -2.6500   -2.9970 c3        1 AZT     -0.046000
     18 N3'        -1.7150   -4.0400   -3.4240 n2        1 AZT     -0.473000
     19 N4'        -0.5670   -4.4860   -3.2630 n2        1 AZT      0.762000
     20 N5'         0.4800   -4.9120   -3.1080 n1        1 AZT     -0.486000
     21 C2'        -3.0630   -2.0530   -3.7880 c3        1 AZT     -0.146000
     22 C1'        -4.2840   -2.5450   -3.0300 c3        1 AZT      0.133000
     23 N1         -5.3860   -1.6320   -3.1040 n2        1 AZT     -0.099000
     24 C2         -6.8760   -2.5650   -4.2440 c1        1 AZT      0.208000
     25 O2         -6.4420   -3.7250   -4.8010 o         1 AZT     -0.540000
     26 N3         -8.2200   -1.5540   -4.3830 ns        1 AZT     -0.208000
     27 C4         -8.3370   -0.2920   -3.8320 c2        1 AZT      0.339000
     28 O4         -9.3540    0.3720   -4.0260 o         1 AZT     -0.553000
     29 C5         -7.1620    0.3420   -2.9830 c1        1 AZT     -0.412000
     30 C5A        -6.8520    2.6860   -2.9870 c2        1 AZT      0.088000
     31 C6         -5.8730   -0.4570   -2.7680 c2        1 AZT      0.055000
     32 H5'1       -2.5990   -1.5660    0.1220 h1        1 AZT      0.108500
     33 H5'2       -2.3810   -2.1610   -1.4970 h1        1 AZT      0.108500
     34 H4'        -2.0850   -3.5110   -1.0380 h1        1 AZT     -0.009000
     35 H3'        -1.0220   -2.0570   -3.0880 h1        1 AZT      0.148000
     36 H2'1       -3.0220   -2.5330   -4.7580 hc        1 AZT      0.113000
     37 H2'2       -3.2340   -0.9880   -3.6860 hc        1 AZT      0.113000
     38 H1'        -4.5840   -3.5060   -3.4300 h2        1 AZT      0.082000
     39 HN3        -8.7410   -2.0430   -5.0830 hn        1 AZT      0.017000
     40 H51        -7.5150    2.8630   -3.8260 ha        1 AZT      0.044000
     41 H52        -5.9170    3.1440   -2.6890 ha        1 AZT      0.044000
     42 H53        -7.3710    2.9210   -2.0660 ha        1 AZT      0.044000
     43 H6         -5.0990   -0.0470   -2.1310 h4        1 AZT      0.113000
@<TRIPOS>BOND
     1    1    2 1   
     2    1    3 1   
     3    1    4 1   
     4    1   13 1   
     5    4    5 1   
     6    5    6 1   
     7    5    7 1   
     8    5    8 1   
     9    8    9 1   
    10    9   10 1   
    11    9   11 1   
    12    9   12 1   
    13   13   14 1   
    14   14   15 1   
    15   14   32 1   
    16   14   33 1   
    17   15   16 1   
    18   15   17 1   
    19   15   34 1   
    20   16   22 1   
    21   17   18 1   
    22   17   21 1   
    23   17   35 1   
    24   18   19 1   
    25   19   20 1   
    26   21   22 1   
    27   21   36 1   
    28   21   37 1   
    29   22   23 1   
    30   22   38 1   
    31   23   31 1   
    32   24   25 1   
    33   24   26 1   
    34   26   27 1   
    35   26   39 1   
    36   27   28 1   
    37   27   29 1   
    38   29   31 1   
    39   30   40 1   
    40   30   41 1   
    41   30   42 1   
    42   31   43 1   
@<TRIPOS>SUBSTRUCTURE
     1 AZT         1 TEMP              0 ****  ****    0 ROOT
