@<TRIPOS>MOLECULE
AZT
   43    44     1     0     0
SMALL
bcc


@<TRIPOS>ATOM
      1 PA          0.9470    2.0300    4.0100 p5        1 AZT      1.595800
      2 O1A         2.2370    1.5130    3.4600 o         1 AZT     -0.913500
      3 O2A         0.9580    2.7330    5.3150 o         1 AZT     -0.913500
      4 O3A         0.0700    2.6950    2.8690 os        1 AZT     -0.827800
      5 PB         -0.6300    3.1970    1.3830 p5        1 AZT      1.730800
      6 O1B        -0.5940    1.8710    0.6710 o         1 AZT     -0.946000
      7 O2B         0.2700    4.2760    0.9110 o         1 AZT     -0.946000
      8 O3B        -2.1100    3.6250    1.6300 os        1 AZT     -0.822800
      9 PG         -3.8330    4.0020    1.4690 p5        1 AZT      1.459900
     10 O1G        -4.0390    3.8100   -0.0140 o         1 AZT     -0.960500
     11 O2G        -3.9990    5.4170    1.9510 o         1 AZT     -0.960500
     12 O3G        -4.5320    2.9590    2.2960 o         1 AZT     -0.960500
     13 O5'         0.1280    0.5860    4.2940 os        1 AZT     -0.596200
     14 C5'        -0.5210   -0.0180    3.2320 c3        1 AZT      0.160400
     15 C4'         0.3380   -1.1580    2.6430 c3        1 AZT      0.104100
     16 O4'        -0.4860   -2.0870    1.9080 os        1 AZT     -0.454600
     17 C3'         1.3930   -0.6000    1.6510 c3        1 AZT      0.141500
     18 N3'         2.6880   -1.2790    1.7350 n2        1 AZT     -0.479200
     19 N4'         3.6000   -0.8820    2.4790 n1        1 AZT      0.298000
     20 N5'         4.5640   -0.7430    3.0680 n1        1 AZT     -0.188000
     21 C2'         0.7430   -0.8100    0.2730 c3        1 AZT     -0.126400
     22 C1'        -0.3020   -1.9180    0.4960 c3        1 AZT      0.308500
     23 N1         -1.5950   -1.7020   -0.1700 n         1 AZT     -0.345000
     24 C2         -2.1840   -2.8140   -0.7940 c         1 AZT      0.784500
     25 O2         -1.5750   -3.9000   -1.0270 o         1 AZT     -0.762500
     26 N3         -3.5090   -2.7120   -1.2440 n         1 AZT     -0.607500
     27 C4         -4.3090   -1.5640   -1.0320 c         1 AZT      0.708700
     28 O4         -5.4840   -1.6480   -1.4580 o         1 AZT     -0.713500
     29 C5         -3.6580   -0.4370   -0.3650 cc        1 AZT     -0.241400
     30 C5A        -4.4670    0.7730   -0.1060 c3        1 AZT     -0.081900
     31 C6         -2.3490   -0.5400    0.0280 cd        1 AZT      0.039600
     32 H5'1       -1.4730   -0.4810    3.6170 h1        1 AZT      0.062200
     33 H5'2       -0.7670    0.7360    2.4210 h1        1 AZT      0.062200
     34 H4'         0.7860   -1.7700    3.4690 h1        1 AZT      0.040700
     35 H3'         1.4980    0.5260    1.8610 h1        1 AZT      0.193700
     36 H2'1        0.2700    0.1810   -0.0150 hc        1 AZT      0.107700
     37 H2'2        1.4580   -1.1210   -0.5230 hc        1 AZT      0.107700
     38 H1'         0.0860   -2.9160    0.1240 h2        1 AZT      0.057700
     39 HN3        -3.8950   -3.5100   -1.6890 hn        1 AZT      0.298500
     40 H51        -5.2420    0.8930   -0.9020 hc        1 AZT      0.090367
     41 H52        -3.8670    1.7430   -0.0470 hc        1 AZT      0.090367
     42 H53        -4.9760    0.6910    0.8890 hc        1 AZT      0.090367
     43 H6         -1.8030    0.3450    0.4970 h4        1 AZT      0.315000
@<TRIPOS>BOND
     1    1    2 1   
     2    1    3 1   
     3    1    4 1   
     4    1   13 1   
     5    4    5 1   
     6    5    6 1   
     7    5    7 1   
     8    5    8 1   
     9    8    9 1   
    10    9   10 1   
    11    9   11 1   
    12    9   12 1   
    13   13   14 1   
    14   14   15 1   
    15   14   32 1   
    16   14   33 1   
    17   15   16 1   
    18   15   17 1   
    19   15   34 1   
    20   16   22 1   
    21   17   18 1   
    22   17   21 1   
    23   17   35 1   
    24   18   19 1   
    25   19   20 3   
    26   21   22 1   
    27   21   36 1   
    28   21   37 1   
    29   22   23 1   
    30   22   38 1   
    31   23   24 1   
    32   23   31 1   
    33   24   25 2   
    34   24   26 1   
    35   26   27 1   
    36   26   39 1   
    37   27   28 2   
    38   27   29 1   
    39   29   30 1   
    40   29   31 2   
    41   30   40 1   
    42   30   41 1   
    43   30   42 1   
    44   31   43 1   
@<TRIPOS>SUBSTRUCTURE
     1 AZT         1 TEMP              0 ****  ****    0 ROOT
