@<TRIPOS>MOLECULE
AZV
   70    69     1     0     0
SMALL
bcc


@<TRIPOS>ATOM
      1 C           1.4150    1.8590    1.4680 c1        1 AZV      0.432000
      2 N           2.6690   -0.2760   -0.0130 n7        1 AZV     -0.243000
      3 O           0.3970    1.4000    1.0580 o         1 AZV     -0.216500
      4 CA          2.6140   -1.4880    0.7030 c2        1 AZV     -0.109000
      5 CB          1.5070   -2.2470    0.8750 c2        1 AZV     -0.137000
      6 CAA         9.4930   -2.0030   -2.3310 c2        1 AZV     -0.570000
      7 NAB         9.3880   -3.4080   -2.1780 n3        1 AZV     -0.008000
      8 CAC         9.2380   -4.1700   -3.2660 c1        1 AZV      0.399000
      9 OAD         8.7750   -4.7920   -4.1470 o         1 AZV      0.014000
     10 CAE        11.1380   -7.5890   -2.1150 c3        1 AZV     -0.220000
     11 CAF         9.6690   -7.6080   -2.5340 c3        1 AZV     -0.049000
     12 NAG         8.9090   -6.5390   -1.8930 n8        1 AZV     -0.385000
     13 CAH         9.0910   -9.0150   -2.2880 c3        1 AZV     -0.140000
     14 CAI         9.6040  -10.0470   -3.1970 ca        1 AZV     -0.100000
     15 CAJ        10.2800   -9.9310   -4.3730 ca        1 AZV     -0.096000
     16 CAK        10.5490  -11.1130   -5.2290 ca        1 AZV     -0.002000
     17 FAL        11.4170  -10.9380   -6.2460 f         1 AZV     -0.080000
     18 CAM         9.8590  -12.3150   -5.0480 ca        1 AZV      0.117000
     19 FAN         9.9430  -13.3640   -5.8700 f         1 AZV     -0.056000
     20 CAO         8.8830  -12.1810   -3.9700 ca        1 AZV     -0.273000
     21 CAP         9.4810  -11.5110   -2.8990 ca        1 AZV      0.138000
     22 FAQ        10.4980  -12.0490   -2.2100 f         1 AZV     -0.070000
     23 CAR         8.4390   -1.2760   -2.9050 c2        1 AZV      0.313000
     24 OAS         7.4450   -1.6540   -3.5420 o         1 AZV     -0.320000
     25 NAT         8.5420    0.2270   -2.7390 nz        1 AZV     -0.135000
     26 CAV         5.0460    1.9680   -1.6530 c2        1 AZV     -0.195000
     27 CAW         5.3000    1.3510   -2.9470 c2        1 AZV     -0.073000
     28 CAX         4.5490    0.0950   -3.2520 c3        1 AZV     -0.218000
     29 CAY         3.8080   -0.5470   -2.1890 c1        1 AZV     -0.048000
     30 CAZ         3.8890   -0.0640   -0.7960 c3        1 AZV     -0.053000
     31 CBA        10.2750   -3.8850   -1.0840 c3        1 AZV     -0.040000
     32 CBB        11.1380   -2.7420   -0.5520 c3        1 AZV     -0.297000
     33 SBC        10.8980   -1.3420   -1.6310 ss        1 AZV      0.240000
     34 CBD         4.3720    1.3580   -0.6680 c2        1 AZV     -0.119000
     35 CG1         0.2160   -1.9520    0.2120 c3        1 AZV     -0.181500
     36 CG2         1.5290   -3.4190    1.7800 c3        1 AZV     -0.181500
     37 OXT         2.4300    2.3330    1.8680 o         1 AZV     -0.216500
     38 HN          4.7210   -0.7160   -0.3520 h1        1 AZV      0.141000
     39 HA          1.8540   -0.1400   -0.5880 hn        1 AZV      0.188000
     40 HB          3.5580   -1.7490    1.2170 h4        1 AZV      0.129000
     41 HAA         8.9680    0.4490   -1.8330 hn        1 AZV      0.259667
     42 HAE        11.6190   -6.6190   -2.3870 hc        1 AZV      0.087000
     43 HAEA       11.2470   -7.7480   -1.0150 hc        1 AZV      0.087000
     44 HAF        11.6770   -8.4120   -2.6440 hc        1 AZV      0.087000
     45 HNAG        9.6100   -7.3970   -3.6460 h1        1 AZV      0.102000
     46 HNAA        7.9340   -6.6420   -2.1140 hn        1 AZV      0.153000
     47 HAH         7.9690   -8.9910   -2.3970 hc        1 AZV      0.108500
     48 HAHA        9.3130   -9.3220   -1.2280 hc        1 AZV      0.108500
     49 HAJ        10.6400   -8.9700   -4.7680 ha        1 AZV      0.155000
     50 HAO         7.8150  -12.1650   -4.1940 ha        1 AZV      0.186000
     51 HNAT        7.5940    0.6430   -2.8080 hn        1 AZV      0.259667
     52 HAU         9.1230    0.6160   -3.4850 hn        1 AZV      0.259667
     53 HAUA        6.2820    1.4700   -4.8420 ha        1 AZV      0.124500
     54 HAV         5.4070    3.0030   -1.5270 ha        1 AZV      0.142000
     55 HAX         5.2410   -0.6880   -3.6920 hc        1 AZV      0.171500
     56 HAY         3.7890    0.3110   -4.0670 hc        1 AZV      0.171500
     57 HBA         9.5700   -4.2560   -0.2850 h1        1 AZV      0.148000
     58 HBAA       10.9160   -4.7430   -1.4340 h1        1 AZV      0.148000
     59 HBB        12.2220   -3.0130   -0.5700 h1        1 AZV      0.147500
     60 HBBA       10.8540   -2.4930    0.4990 h1        1 AZV      0.147500
     61 HBD         4.1550    1.8710    0.2860 ha        1 AZV      0.171000
     62 HG1        -0.1800   -0.9590    0.5480 hc        1 AZV      0.086000
     63 HG1A       -0.5470   -2.7310    0.4550 hc        1 AZV      0.086000
     64 HG1B        0.3410   -1.9200   -0.9000 hc        1 AZV      0.086000
     65 HG2         1.2510   -4.3430    1.2130 hc        1 AZV      0.086000
     66 HG2A        2.5360   -3.5750    2.2400 hc        1 AZV      0.086000
     67 HG2B        0.7840   -3.2800    2.6040 hc        1 AZV      0.086000
     68 HAG3        9.0110   -6.5920   -0.8970 hn        1 AZV      0.153000
     69 HAT2        6.6380    2.8620   -3.6630 ha        1 AZV      0.124500
     70 CAU         6.1360    1.9020   -3.8430 c2        1 AZV     -0.296000
@<TRIPOS>BOND
     1    1    3 1   
     2    1   37 1   
     3    2    4 1   
     4    2   30 1   
     5    2   39 1   
     6    4    5 1   
     7    4   40 1   
     8    5   35 1   
     9    5   36 1   
    10    6    7 1   
    11    6   23 1   
    12    6   33 1   
    13    7    8 1   
    14    7   31 1   
    15    8    9 1   
    16   10   11 1   
    17   10   42 1   
    18   10   43 1   
    19   10   44 1   
    20   11   12 1   
    21   11   13 1   
    22   11   45 1   
    23   12   46 1   
    24   12   68 1   
    25   13   14 1   
    26   13   47 1   
    27   13   48 1   
    28   14   15 1   
    29   14   21 1   
    30   15   16 1   
    31   15   49 1   
    32   16   17 1   
    33   16   18 1   
    34   18   19 1   
    35   18   20 1   
    36   20   21 1   
    37   20   50 1   
    38   21   22 1   
    39   23   24 1   
    40   23   25 1   
    41   25   41 1   
    42   25   51 1   
    43   25   52 1   
    44   26   27 1   
    45   26   34 1   
    46   26   54 1   
    47   27   28 1   
    48   27   70 1   
    49   28   29 1   
    50   28   55 1   
    51   28   56 1   
    52   29   30 1   
    53   30   34 1   
    54   30   38 1   
    55   31   32 1   
    56   31   57 1   
    57   31   58 1   
    58   32   33 1   
    59   32   59 1   
    60   32   60 1   
    61   34   61 1   
    62   35   62 1   
    63   35   63 1   
    64   35   64 1   
    65   36   65 1   
    66   36   66 1   
    67   36   67 1   
    68   53   70 1   
    69   69   70 1   
@<TRIPOS>SUBSTRUCTURE
     1 AZV         1 TEMP              0 ****  ****    0 ROOT
