@<TRIPOS>MOLECULE
AZV
   71    67     1     0     0
SMALL
bcc


@<TRIPOS>ATOM
      1 C       -1323.6430  968.1140  244.8640 c1        1 AZV      0.438000
      2 N       -1323.1710  964.5240  246.6860 n3        1 AZV     -0.201000
      3 O       -1323.5450  967.0480  245.3990 o         1 AZV     -0.218500
      4 CA      -1323.0750  963.3750  247.3060 c1        1 AZV     -0.042000
      5 CB      -1325.0430  962.5350  248.9850 c1        1 AZV      0.010000
      6 CAA      1035.6400 -749.0310 -193.8080 c2        1 AZV     -0.862000
      7 NAB      1036.3110 -750.2570 -193.9930 n3        1 AZV      0.031000
      8 CAC      1036.4960 -750.6700 -195.2640 c1        1 AZV      0.393000
      9 OAD      1036.3320 -751.2160 -196.2870 o         1 AZV      0.026000
     10 CAE      1039.9470 -752.6960 -194.7950 c3        1 AZV     -0.215000
     11 CAF      1038.7100 -753.4970 -195.1960 c3        1 AZV     -0.049000
     12 NAG      1037.5200 -753.0680 -194.4680 n3        1 AZV     -0.386000
     13 CAH      1039.0420 -754.9950 -195.0460 c3        1 AZV     -0.153000
     14 CAI      1037.9310 -755.8750 -195.4960 ca        1 AZV     -0.113000
     15 CAJ      1037.9340 -756.4020 -196.7870 ca        1 AZV     -0.119000
     16 CAK      1036.9140 -757.2630 -197.2190 ca        1 AZV      0.062000
     17 FAL      1036.9280 -757.7600 -198.4740 f         1 AZV     -0.072000
     18 CAM      1035.8640 -757.6150 -196.3250 ca        1 AZV      0.097000
     19 FAN      1034.8810 -758.4460 -196.7290 f         1 AZV     -0.069000
     20 CAO      1035.8540 -757.0920 -195.0250 ca        1 AZV     -0.176000
     21 CAP      1036.8800 -756.2250 -194.6190 ca        1 AZV      0.081000
     22 FAQ      1036.8510 -755.7190 -193.3590 f         1 AZV     -0.111000
     23 CAR      1034.2860 -748.7650 -194.3190 c2        1 AZV      0.384000
     24 OAS      1033.7890 -747.6380 -194.1070 o         1 AZV     -0.369000
     25 NAT      1033.6430 -749.7180 -195.0880 n         1 AZV     -0.395000
     26 CAV     -1321.7920  961.4970  248.2900 c3        1 AZV     -0.168000
     27 CAW     -1318.1970  960.6560  244.6110 c1        1 AZV     -0.198000
     28 CAX     -1319.2670  961.5370  244.8090 c2        1 AZV      0.060000
     29 CAY     -1320.0370  961.5360  245.9200 c2        1 AZV     -0.194000
     30 CAZ     -1321.1270  962.4580  246.0950 c2        1 AZV     -0.001000
     31 CBA      1037.4500 -750.3510 -193.0450 c3        1 AZV     -0.057000
     32 CBB      1037.6820 -748.9850 -192.3900 c3        1 AZV     -0.540000
     33 SBC      1036.3940 -747.8870 -192.9030 s4        1 AZV      1.372000
     34 CBD     -1321.9550  962.4630  247.1730 c2        1 AZV     -0.201000
     35 CG1     -1326.0940  961.7050  248.4530 c3        1 AZV     -0.298500
     36 CG2     -1324.9610  962.8630  250.3860 c3        1 AZV     -0.298500
     37 OXT     -1323.7410  969.1670  244.3350 o         1 AZV     -0.218500
     38 HN      -1321.2790  963.1770  245.2660 ha        1 AZV      0.121000
     39 HA      -1322.4800  964.8880  246.0600 hn        1 AZV      0.244000
     40 HB      -1324.0510  962.9920  248.1260 DU        1 AZV      0.323000
     41 HAA      1035.6420 -747.8610 -191.8410 hs        1 AZV     -0.132000
     42 HAE      1039.7970 -751.6060 -194.9860 hc        1 AZV      0.083333
     43 HAEA     1040.1920 -752.8440 -193.7160 hc        1 AZV      0.083333
     44 HAF      1040.8190 -753.0380 -195.4050 hc        1 AZV      0.083333
     45 HNAG     1038.5000 -753.2980 -196.2910 h1        1 AZV      0.107000
     46 HNAA     1036.7360 -753.6170 -194.7750 hn        1 AZV      0.154000
     47 HAH      1039.2830 -755.2180 -193.9710 hc        1 AZV      0.113000
     48 HAHA     1039.9640 -755.2110 -195.6490 hc        1 AZV      0.113000
     49 HAJ      1038.7490 -756.1530 -197.4860 ha        1 AZV      0.166000
     50 HAO      1035.0510 -757.3710 -194.3250 ha        1 AZV      0.179000
     51 HNAT     1032.7290 -749.4690 -195.4030 hn        1 AZV      0.224000
     52 HAU     -1316.4580  959.2550  244.2470 ha        1 AZV      0.241000
     53 HAUA    -1319.8440  960.8170  246.7360 ha        1 AZV      0.154000
     54 HAV     -1320.7870  961.6260  248.7670 hc        1 AZV      0.091667
     55 HAX     -1321.8680  960.4460  247.9130 hc        1 AZV      0.091667
     56 HAY     -1319.4500  962.2520  243.9820 ha        1 AZV      0.144000
     57 HBA      1037.1270 -751.1150 -192.2790 h1        1 AZV      0.164500
     58 HBAA     1038.3870 -750.7210 -193.5480 h1        1 AZV      0.164500
     59 HBB      1037.7610 -749.1090 -191.2810 h1        1 AZV      0.179000
     60 HBBA     1038.6570 -748.5470 -192.7330 h1        1 AZV      0.179000
     61 HBD     -1322.5710  961.6440  249.0780 hc        1 AZV      0.091667
     62 HG1     -1326.9120  961.4480  249.1730 hc        1 AZV      0.147667
     63 HG1A    -1326.5440  962.1900  247.5420 hc        1 AZV      0.147667
     64 HG1B    -1325.6240  960.7420  248.0920 hc        1 AZV      0.147667
     65 HG2     -1325.0900  963.9790  250.4940 hc        1 AZV      0.147667
     66 HG2A    -1325.7140  962.3550  251.0410 hc        1 AZV      0.147667
     67 HG2B    -1323.9270  962.6310  250.7680 hc        1 AZV      0.147667
     68 H2      -1323.9710  965.1090  246.8140 hn        1 AZV      0.244000
     69 HAG3     1037.6430 -753.2450 -193.4860 hn        1 AZV      0.154000
     70 HAT2     1033.7620 -750.6740 -194.8540 hn        1 AZV      0.224000
     71 CAU     -1317.2760  959.9130  244.4200 c1        1 AZV     -0.099000
@<TRIPOS>BOND
     1    1    3 1   
     2    1   37 1   
     3    2    4 1   
     4    2   39 1   
     5    2   68 1   
     6    4   34 1   
     7    5   35 1   
     8    5   36 1   
     9    6    7 1   
    10    6   23 1   
    11    6   33 1   
    12    7    8 1   
    13    7   31 1   
    14    8    9 1   
    15   10   11 1   
    16   10   42 1   
    17   10   43 1   
    18   10   44 1   
    19   11   12 1   
    20   11   13 1   
    21   11   45 1   
    22   12   46 1   
    23   12   69 1   
    24   13   14 1   
    25   13   47 1   
    26   13   48 1   
    27   14   15 1   
    28   14   21 1   
    29   15   16 1   
    30   15   49 1   
    31   16   17 1   
    32   16   18 1   
    33   18   19 1   
    34   18   20 1   
    35   20   21 1   
    36   20   50 1   
    37   21   22 1   
    38   23   24 1   
    39   23   25 1   
    40   25   51 1   
    41   25   70 1   
    42   26   34 1   
    43   26   54 1   
    44   26   55 1   
    45   26   61 1   
    46   27   28 1   
    47   27   71 1   
    48   28   29 1   
    49   28   56 1   
    50   29   30 1   
    51   29   53 1   
    52   30   34 1   
    53   30   38 1   
    54   31   32 1   
    55   31   57 1   
    56   31   58 1   
    57   32   33 1   
    58   32   59 1   
    59   32   60 1   
    60   33   41 1   
    61   35   62 1   
    62   35   63 1   
    63   35   64 1   
    64   36   65 1   
    65   36   66 1   
    66   36   67 1   
    67   52   71 1   
@<TRIPOS>SUBSTRUCTURE
     1 AZV         1 TEMP              0 ****  ****    0 ROOT
