@<TRIPOS>MOLECULE
AZV
   68    65     1     0     0
SMALL
bcc


@<TRIPOS>ATOM
      1 C           3.2530    4.7900   -1.8470 c1        1 AZV      0.318000
      2 N           1.2240    4.4110   -3.0790 n3        1 AZV     -0.250000
      3 O           3.0300    3.6760   -1.3090 o         1 AZV     -0.586500
      4 CA          2.3140    5.3180   -2.9130 c2        1 AZV     -0.080000
      5 CB          3.0640    5.4560   -4.2250 c3        1 AZV     -0.088000
      6 CAA        -1.7650    0.1690    2.6480 c3        1 AZV     -0.091000
      7 NAB        -1.9610   -1.5010    2.9660 n         1 AZV     -0.307000
      8 CAC        -2.4840   -2.5080    2.0360 c2        1 AZV      0.319000
      9 OAD        -2.8280   -2.1800    0.9140 o         1 AZV     -0.382000
     10 CAE        -2.5880   -4.0060    2.4810 c3        1 AZV     -0.239000
     11 CAF        -1.7670   -4.8820    1.5290 c3        1 AZV     -0.006000
     12 NAG        -2.6300   -5.7580    0.8320 n3        1 AZV     -0.338000
     13 CAH        -0.7620   -5.6910    2.3270 c3        1 AZV     -0.135000
     14 CAI         0.4540   -6.0260    1.4380 c2        1 AZV     -0.050000
     15 CAJ         1.4460   -5.0790    1.2410 c2        1 AZV     -0.120000
     16 CAK         2.6180   -5.4240    0.5740 c1        1 AZV      0.037000
     17 FAL         3.5390   -4.4850    0.3120 f         1 AZV     -0.101000
     18 CAM         2.7940   -6.7190    0.1030 c2        1 AZV      0.063000
     19 FAN         3.8790   -7.0240   -0.6230 f         1 AZV     -0.102000
     20 CAO         1.8030   -7.6680    0.2990 c1        1 AZV     -0.193000
     21 CAP         0.6310   -7.3240    0.9660 c1        1 AZV      0.121000
     22 FAQ        -0.3040   -8.2510    1.1940 f         1 AZV     -0.094000
     23 CAR        -2.6910    0.5830    1.4560 c2        1 AZV      0.293000
     24 OAS        -3.3630   -0.2540    0.8940 o         1 AZV     -0.335000
     25 NAT        -2.8420    2.0070    1.1040 n         1 AZV     -0.334000
     26 CAU        -3.1800    2.3870   -0.2580 c3        1 AZV      0.007000
     27 CAV        -2.1050    4.4350   -1.3040 c1        1 AZV     -0.077000
     28 CAW        -1.9840    3.1090   -0.9000 c1        1 AZV     -0.199000
     29 CAX        -0.7960    2.4270   -1.1100 c1        1 AZV     -0.098000
     30 CAY         0.2750    3.0680   -1.7230 c1        1 AZV     -0.210000
     31 CAZ         0.1540    4.3950   -2.1270 c2        1 AZV      0.098000
     32 CBA        -1.5320   -1.7280    4.2730 c3        1 AZV     -0.071000
     33 CBB        -1.7620   -0.4090    5.0290 c3        1 AZV     -0.270000
     34 SBC        -2.1030    0.7550    3.8530 ss        1 AZV     -0.029000
     35 CBD        -1.0340    5.0770   -1.9170 c2        1 AZV     -0.177000
     36 CG1         3.7710    6.7870   -4.2620 c3        1 AZV     -0.213500
     37 CG2         4.0770    4.3440   -4.3480 c3        1 AZV     -0.213500
     38 OXT         4.2430    5.4710   -1.4910 o         1 AZV     -0.586500
     39 HN          1.1860    3.8730   -3.8160 hn        1 AZV      0.179000
     40 HA          1.9750    6.1850   -2.6420 h4        1 AZV      0.100000
     41 HB          2.4310    5.4020   -4.9680 hc        1 AZV      0.066000
     42 HAA        -0.8930    0.4800    2.3330 h2        1 AZV      0.174000
     43 HAE        -3.5280   -4.2900    2.4580 hc        1 AZV      0.153500
     44 HAEA       -2.2410   -4.1010    3.3920 hc        1 AZV      0.153500
     45 HAF        -1.2940   -4.3150    0.8920 h1        1 AZV      0.107000
     46 HNAG       -3.4700   -5.7010    1.1840 hn        1 AZV      0.165000
     47 HNAA       -2.6530   -5.5240   -0.0490 hn        1 AZV      0.165000
     48 HAH        -0.4680   -5.1730    3.0980 hc        1 AZV      0.102000
     49 HAHA       -1.1830   -6.5230    2.6340 hc        1 AZV      0.102000
     50 HAJ         1.3410   -4.1820    1.6080 ha        1 AZV      0.171000
     51 HAO         1.9270   -8.5800   -0.0320 ha        1 AZV      0.158000
     52 HNAT       -2.7510    2.6510    1.7500 hn        1 AZV      0.208000
     53 HAU        -3.9570    2.9880   -0.2470 h1        1 AZV      0.099000
     54 HAUA       -3.3930    1.5900   -0.7750 h1        1 AZV      0.099000
     55 HAV        -2.9450    4.9180   -1.1550 ha        1 AZV      0.134000
     56 HAX        -0.7110    1.4980   -0.8280 ha        1 AZV      0.115000
     57 HAY         1.1090    2.5890   -1.8700 ha        1 AZV      0.122000
     58 HBA        -2.0610   -2.4510    4.6830 h1        1 AZV      0.152500
     59 HBAA       -0.5800   -1.9600    4.2800 h1        1 AZV      0.152500
     60 HBB        -2.5220   -0.5010    5.6440 h1        1 AZV      0.113000
     61 HBBA       -0.9550   -0.1600    5.5250 h1        1 AZV      0.113000
     62 HBD        -1.1200    6.0080   -2.2010 ha        1 AZV      0.162000
     63 HG1         3.1980    7.4730   -3.8620 hc        1 AZV      0.075333
     64 HG1A        4.6100    6.7260   -3.7570 hc        1 AZV      0.075333
     65 HG1B        3.9670    7.0270   -5.1910 hc        1 AZV      0.075333
     66 HG2         3.6450    3.4850   -4.1580 hc        1 AZV      0.075333
     67 HG2A        4.4400    4.3330   -5.2550 hc        1 AZV      0.075333
     68 HG2B        4.8040    4.4920   -3.7080 hc        1 AZV      0.075333
@<TRIPOS>BOND
     1    1    3 1   
     2    1   38 1   
     3    2    4 1   
     4    2   31 1   
     5    2   39 1   
     6    4    5 1   
     7    4   40 1   
     8    5   36 1   
     9    5   37 1   
    10    5   41 1   
    11    6    7 1   
    12    6   23 1   
    13    6   34 1   
    14    6   42 1   
    15    7    8 1   
    16    7   32 1   
    17    8    9 1   
    18    8   10 1   
    19   10   11 1   
    20   10   43 1   
    21   10   44 1   
    22   11   12 1   
    23   11   13 1   
    24   11   45 1   
    25   12   46 1   
    26   12   47 1   
    27   13   14 1   
    28   13   48 1   
    29   13   49 1   
    30   14   15 1   
    31   14   21 1   
    32   15   16 1   
    33   15   50 1   
    34   16   18 1   
    35   18   19 1   
    36   18   20 1   
    37   20   51 1   
    38   21   22 1   
    39   23   24 1   
    40   23   25 1   
    41   25   26 1   
    42   25   52 1   
    43   26   28 1   
    44   26   53 1   
    45   26   54 1   
    46   27   35 1   
    47   27   55 1   
    48   28   29 1   
    49   29   56 1   
    50   30   31 1   
    51   30   57 1   
    52   31   35 1   
    53   32   33 1   
    54   32   58 1   
    55   32   59 1   
    56   33   34 1   
    57   33   60 1   
    58   33   61 1   
    59   35   62 1   
    60   36   63 1   
    61   36   64 1   
    62   36   65 1   
    63   37   66 1   
    64   37   67 1   
    65   37   68 1   
@<TRIPOS>SUBSTRUCTURE
     1 AZV         1 TEMP              0 ****  ****    0 ROOT
