@<TRIPOS>MOLECULE
AZV
   68    70     1     0     0
SMALL
bcc


@<TRIPOS>ATOM
      1 C          -7.2180   -3.0470    0.2960 c         1 AZV      0.913600
      2 N          -5.0250   -1.9120   -0.1410 nh        1 AZV     -0.711600
      3 O          -6.7240   -4.0780   -0.2350 o         1 AZV     -0.822800
      4 CA         -6.2540   -1.8360    0.6230 c3        1 AZV      0.059500
      5 CB         -6.0330   -1.8340    2.1490 c3        1 AZV     -0.061700
      6 CAA         0.6810    4.0420   -1.3660 c3        1 AZV      0.110800
      7 NAB         0.9450    3.0840   -0.3190 n         1 AZV     -0.475800
      8 CAC         2.0600    2.2480   -0.3760 c         1 AZV      0.668100
      9 OAD         2.8230    2.2960   -1.3590 o         1 AZV     -0.587100
     10 CAE         2.2680    1.2670    0.7580 c3        1 AZV     -0.196400
     11 CAF         3.3930    0.2600    0.4390 c3        1 AZV      0.193500
     12 NAG         3.1930   -0.5580   -0.7330 n3        1 AZV     -0.916800
     13 CAH         3.5960   -0.5910    1.7100 c3        1 AZV     -0.038100
     14 CAI         4.6990   -1.5740    1.5540 ca        1 AZV     -0.079300
     15 CAJ         6.0010   -1.2330    1.9140 ca        1 AZV     -0.121000
     16 CAK         7.0540   -2.1490    1.7700 ca        1 AZV      0.074900
     17 FAL         8.3130   -1.8030    2.1280 f         1 AZV     -0.129900
     18 CAM         6.7940   -3.4430    1.2470 ca        1 AZV      0.114900
     19 FAN         7.8030   -4.3310    1.1030 f         1 AZV     -0.125900
     20 CAO         5.4880   -3.7960    0.8820 ca        1 AZV     -0.185000
     21 CAP         4.4470   -2.8660    1.0360 ca        1 AZV      0.165900
     22 FAQ         3.1910   -3.2300    0.6880 f         1 AZV     -0.124900
     23 CAR        -0.3420    3.5660   -2.4210 c         1 AZV      0.656100
     24 OAS        -0.0700    3.7210   -3.6280 o         1 AZV     -0.604100
     25 NAT        -1.5240    3.0350   -1.9800 n         1 AZV     -0.543900
     26 CAV        -4.1500    1.5260   -1.2160 ca        1 AZV     -0.067000
     27 CAW        -3.1870    1.2670   -2.1960 ca        1 AZV     -0.232300
     28 CAX        -2.9000   -0.0630   -2.5210 ca        1 AZV     -0.067000
     29 CAY        -3.5420   -1.1080   -1.8810 ca        1 AZV     -0.236500
     30 CAZ        -4.5030   -0.8630   -0.8520 ca        1 AZV      0.227600
     31 CBA         0.2160    3.3260    0.9100 c3        1 AZV      0.086000
     32 CBB        -0.3240    4.7570    0.9600 c3        1 AZV     -0.030300
     33 SBC         0.0650    5.5560   -0.5770 ss        1 AZV     -0.291200
     34 CBD        -4.7980    0.4990   -0.5530 ca        1 AZV     -0.236500
     35 CG1        -5.1670   -2.9910    2.5950 c3        1 AZV     -0.085600
     36 CG2        -5.4720   -0.5190    2.6400 c3        1 AZV     -0.085600
     37 OXT        -8.4260   -2.8800    0.6040 o         1 AZV     -0.822800
     38 HN         -4.8780   -2.8290   -0.5260 hn        1 AZV      0.444800
     39 HA         -6.8190   -0.8980    0.3560 h1        1 AZV      0.048700
     40 HB         -7.0650   -1.9710    2.5890 hc        1 AZV      0.071700
     41 HAA         1.6280    4.2900   -1.9290 h2        1 AZV      0.139700
     42 HAE         2.5530    1.8380    1.6810 hc        1 AZV      0.072200
     43 HAEA        1.3110    0.7200    0.9660 hc        1 AZV      0.072200
     44 HAF         4.3370    0.8570    0.2540 h1        1 AZV      0.074700
     45 HNAG        2.3800   -1.1340   -0.6460 hn        1 AZV      0.370800
     46 HNAA        3.1280    0.0130   -1.5540 hn        1 AZV      0.370800
     47 HAH         3.8240    0.1030    2.5620 hc        1 AZV      0.057700
     48 HAHA        2.6430   -1.1330    1.9550 hc        1 AZV      0.057700
     49 HAJ         6.2190   -0.2300    2.3130 ha        1 AZV      0.154000
     50 HAO         5.2810   -4.7950    0.4710 ha        1 AZV      0.169000
     51 HNAT       -1.6580    2.8790   -1.0080 hn        1 AZV      0.308500
     52 HAU        -3.2200    3.1760   -3.1940 h1        1 AZV      0.053200
     53 HAUA       -1.9290    2.0360   -3.7880 h1        1 AZV      0.053200
     54 HAV        -4.4010    2.5700   -0.9700 ha        1 AZV      0.114500
     55 HAX        -2.1570   -0.2830   -3.3040 ha        1 AZV      0.114500
     56 HAY        -3.3100   -2.1440   -2.1690 ha        1 AZV      0.135500
     57 HBA        -0.6400    2.5930    0.9740 h1        1 AZV      0.060200
     58 HBAA        0.8850    3.1460    1.7990 h1        1 AZV      0.060200
     59 HBB        -1.4280    4.7500    1.1180 h1        1 AZV      0.081700
     60 HBBA        0.1450    5.3320    1.7920 h1        1 AZV      0.081700
     61 HBD        -5.5450    0.7380    0.2180 ha        1 AZV      0.135500
     62 HG1        -4.0950   -2.8120    2.3410 hc        1 AZV      0.024533
     63 HG1A       -5.2460   -3.1310    3.7000 hc        1 AZV      0.024533
     64 HG1B       -5.5030   -3.9280    2.0830 hc        1 AZV      0.024533
     65 HG2        -6.1720    0.3170    2.4000 hc        1 AZV      0.024533
     66 HG2A       -5.3270   -0.5500    3.7480 hc        1 AZV      0.024533
     67 HG2B       -4.4870   -0.3030    2.1620 hc        1 AZV      0.024533
     68 CAU        -2.4730    2.3960   -2.8670 c3        1 AZV      0.157300
@<TRIPOS>BOND
     1    1    3 1   
     2    1    4 1   
     3    1   37 1   
     4    2    4 1   
     5    2   30 1   
     6    2   38 1   
     7    4    5 1   
     8    4   39 1   
     9    5   35 1   
    10    5   36 1   
    11    5   40 1   
    12    6    7 1   
    13    6   23 1   
    14    6   33 1   
    15    6   41 1   
    16    7    8 1   
    17    7   31 1   
    18    8    9 2   
    19    8   10 1   
    20   10   11 1   
    21   10   42 1   
    22   10   43 1   
    23   11   12 1   
    24   11   13 1   
    25   11   44 1   
    26   12   45 1   
    27   12   46 1   
    28   13   14 1   
    29   13   47 1   
    30   13   48 1   
    31   14   15 ar  
    32   14   21 ar  
    33   15   16 ar  
    34   15   49 1   
    35   16   17 1   
    36   16   18 ar  
    37   18   19 1   
    38   18   20 ar  
    39   20   21 ar  
    40   20   50 1   
    41   21   22 1   
    42   23   24 2   
    43   23   25 1   
    44   25   51 1   
    45   25   68 1   
    46   26   27 ar  
    47   26   34 ar  
    48   26   54 1   
    49   27   28 ar  
    50   27   68 1   
    51   28   29 ar  
    52   28   55 1   
    53   29   30 ar  
    54   29   56 1   
    55   30   34 ar  
    56   31   32 1   
    57   31   57 1   
    58   31   58 1   
    59   32   33 1   
    60   32   59 1   
    61   32   60 1   
    62   34   61 1   
    63   35   62 1   
    64   35   63 1   
    65   35   64 1   
    66   36   65 1   
    67   36   66 1   
    68   36   67 1   
    69   52   68 1   
    70   53   68 1   
@<TRIPOS>SUBSTRUCTURE
     1 AZV         1 TEMP              0 ****  ****    0 ROOT
