@<TRIPOS>MOLECULE
AZX
   49    50     1     0     0
SMALL
bcc


@<TRIPOS>ATOM
      1 F29        -7.2930   -2.2430    0.0550 f         1 AZX     -0.222300
      2 C27        -6.0910   -1.8780    0.6060 c3        1 AZX      0.612900
      3 F30        -6.3490   -1.6830    1.9310 f         1 AZX     -0.222300
      4 F31        -5.3210   -3.0100    0.5270 f         1 AZX     -0.222300
      5 C24        -5.4380   -0.6420   -0.1400 c3        1 AZX      0.054800
      6 O25        -5.2920   -0.9670   -1.5060 oh        1 AZX     -0.567800
      7 C26        -6.3630    0.5610   -0.0500 c3        1 AZX     -0.101100
      8 C23        -4.0800   -0.3020    0.5240 c         1 AZX      0.639100
      9 O28        -3.8540   -0.6410    1.6940 o         1 AZX     -0.543100
     10 N22        -3.2020    0.4160   -0.2730 n         1 AZX     -0.458100
     11 C18        -1.9310    0.8800    0.0740 ca        1 AZX      0.141600
     12 C17        -1.3660    0.7020    1.3570 ca        1 AZX     -0.181000
     13 C16        -0.0960    1.1840    1.6400 ca        1 AZX      0.013000
     14 C19        -1.1550    1.5750   -0.8980 ca        1 AZX     -0.068600
     15 CL1        -1.7600    1.8490   -2.4680 cl        1 AZX     -0.084400
     16 C20         0.1140    2.0500   -0.5880 ca        1 AZX      0.018000
     17 C15         0.6710    1.8560    0.6800 ca        1 AZX     -0.397500
     18 S12         2.1960    2.4480    1.0540 sy        1 AZX      1.444600
     19 O14         2.4940    3.5280    0.2080 o         1 AZX     -0.654300
     20 O15         2.2880    2.6530    2.4380 o         1 AZX     -0.654300
     21 C1          3.1570    1.1320    0.6240 ca        1 AZX     -0.357500
     22 C6          3.4490    0.1250    1.5510 ca        1 AZX     -0.024500
     23 C5          4.2570   -0.9560    1.2060 ca        1 AZX     -0.123500
     24 C2          3.7050    1.0390   -0.6620 ca        1 AZX     -0.024500
     25 C3          4.5220   -0.0310   -1.0170 ca        1 AZX     -0.123500
     26 C4          4.7960   -1.0320   -0.0810 ca        1 AZX     -0.067600
     27 C7          5.6090   -2.2310   -0.4560 c         1 AZX      0.664700
     28 O8          5.1060   -3.3720   -0.4040 o         1 AZX     -0.591100
     29 N9          6.9230   -2.0510   -0.8540 n         1 AZX     -0.475800
     30 C11         7.7170   -3.1720   -1.2760 c3        1 AZX      0.077800
     31 C10         7.5570   -0.7660   -0.8930 c3        1 AZX      0.077800
     32 HO25       -4.8320   -1.8180   -1.5610 ho        1 AZX      0.430000
     33 H261       -6.4900    0.8490    1.0210 hc        1 AZX      0.075367
     34 H262       -5.9350    1.4160   -0.6250 hc        1 AZX      0.075367
     35 H263       -7.3580    0.2980   -0.4870 hc        1 AZX      0.075367
     36 HN22       -3.5060    0.6040   -1.2100 hn        1 AZX      0.347500
     37 H17        -1.9280    0.1790    2.1500 ha        1 AZX      0.186000
     38 H16         0.3170    1.0450    2.6570 ha        1 AZX      0.161000
     39 H20         0.6930    2.6050   -1.3510 ha        1 AZX      0.169000
     40 H6          3.0390    0.1970    2.5740 ha        1 AZX      0.157000
     41 H5          4.4630   -1.7540    1.9360 ha        1 AZX      0.153500
     42 H2          3.4970    1.8380   -1.3960 ha        1 AZX      0.157000
     43 H3          4.9480   -0.0890   -2.0310 ha        1 AZX      0.153500
     44 H111        8.1190   -2.9840   -2.3080 h1        1 AZX      0.046200
     45 H112        8.5820   -3.3150   -0.5730 h1        1 AZX      0.046200
     46 H113        7.0980   -4.1090   -1.2870 h1        1 AZX      0.046200
     47 H101        7.0360   -0.0380   -0.2170 h1        1 AZX      0.046200
     48 H102        8.6250   -0.8630   -0.5590 h1        1 AZX      0.046200
     49 H103        7.5470   -0.3560   -1.9400 h1        1 AZX      0.046200
@<TRIPOS>BOND
     1    1    2 1   
     2    2    3 1   
     3    2    4 1   
     4    2    5 1   
     5    5    6 1   
     6    5    7 1   
     7    5    8 1   
     8    6   32 1   
     9    7   33 1   
    10    7   34 1   
    11    7   35 1   
    12    8    9 2   
    13    8   10 1   
    14   10   11 1   
    15   10   36 1   
    16   11   12 ar  
    17   11   14 ar  
    18   12   13 ar  
    19   12   37 1   
    20   13   17 ar  
    21   13   38 1   
    22   14   15 1   
    23   14   16 ar  
    24   16   17 ar  
    25   16   39 1   
    26   17   18 1   
    27   18   19 2   
    28   18   20 2   
    29   18   21 1   
    30   21   22 ar  
    31   21   24 ar  
    32   22   23 ar  
    33   22   40 1   
    34   23   26 ar  
    35   23   41 1   
    36   24   25 ar  
    37   24   42 1   
    38   25   26 ar  
    39   25   43 1   
    40   26   27 1   
    41   27   28 2   
    42   27   29 1   
    43   29   30 1   
    44   29   31 1   
    45   30   44 1   
    46   30   45 1   
    47   30   46 1   
    48   31   47 1   
    49   31   48 1   
    50   31   49 1   
@<TRIPOS>SUBSTRUCTURE
     1 AZX         1 TEMP              0 ****  ****    0 ROOT
