@<TRIPOS>MOLECULE
AZX
   51    52     1     0     0
SMALL
bcc


@<TRIPOS>ATOM
      1 F29        -0.2650    0.3090    1.6260 f         1 AZX     -0.204967
      2 C27         1.0260    0.7100    1.4500 c3        1 AZX      0.609900
      3 F30         1.0230    1.6620    0.4740 f         1 AZX     -0.204967
      4 F31         1.3810    1.3640    2.6040 f         1 AZX     -0.204967
      5 C24         1.9810   -0.5310    1.1370 c3        1 AZX      0.070800
      6 O25         1.7830   -1.4890    2.1530 oh        1 AZX     -0.606800
      7 C26         1.7000   -1.0640   -0.2550 c3        1 AZX     -0.147100
      8 C23         3.4450   -0.0740    1.2470 c         1 AZX      0.541100
      9 O28         4.1830    0.2080    0.3230 o         1 AZX     -0.355100
     10 N22         3.9690    0.0290    2.6660 n4        1 AZX     -0.550200
     11 C18         5.3910    0.3520    2.7850 ca        1 AZX      0.013600
     12 C17         6.3430   -0.6800    2.7530 ca        1 AZX     -0.105000
     13 C16         7.6910   -0.3750    2.9290 ca        1 AZX     -0.006000
     14 C19         5.8040    1.6890    2.9720 ca        1 AZX      0.010400
     15 CL1         4.6850    2.9540    3.0060 cl        1 AZX     -0.006400
     16 C20         7.1650    1.9640    3.1560 ca        1 AZX      0.004000
     17 C15         8.1140    0.9420    3.1400 ca        1 AZX     -0.303500
     18 S12         9.7520    1.2640    3.5330 sy        1 AZX      1.419600
     19 O14         9.7790    2.3920    4.3470 o         1 AZX     -0.608800
     20 O15        10.3320    0.0610    3.9260 o         1 AZX     -0.608800
     21 C1         10.4040    1.6960    2.0180 ca        1 AZX     -0.317500
     22 C6         10.8970    0.7220    1.1460 ca        1 AZX     -0.013000
     23 C5         11.5530    1.0790   -0.0340 ca        1 AZX     -0.099000
     24 C2         10.5660    3.0470    1.6830 ca        1 AZX     -0.013000
     25 C3         11.2290    3.4230    0.5170 ca        1 AZX     -0.099000
     26 C4         11.7320    2.4340   -0.3370 ca        1 AZX     -0.134600
     27 C7         12.4300    2.7750   -1.5900 c         1 AZX      0.559700
     28 O8         12.2640    2.2850   -2.6950 o         1 AZX     -0.385100
     29 N9         13.5070    3.8500   -1.4720 n4        1 AZX     -0.590200
     30 C11        13.1710    5.0100   -2.3380 c3        1 AZX      0.081100
     31 C10        14.8330    3.2810   -1.8350 c3        1 AZX      0.081100
     32 HO25        0.9710   -1.9870    1.9530 ho        1 AZX      0.487000
     33 H261        1.9900   -0.3080   -1.0280 hc        1 AZX      0.101033
     34 H262        0.6050   -1.2770   -0.3560 hc        1 AZX      0.101033
     35 H263        2.2720   -2.0080   -0.4300 hc        1 AZX      0.101033
     36 HN22        3.7850   -0.8790    3.1280 hn        1 AZX      0.492800
     37 H17         6.0440   -1.7330    2.6060 ha        1 AZX      0.174000
     38 H16         8.4330   -1.1990    2.9370 ha        1 AZX      0.193000
     39 H20         7.4820    3.0090    3.3530 ha        1 AZX      0.194000
     40 H6         10.7970   -0.3500    1.4040 ha        1 AZX      0.183000
     41 H5         11.9280    0.2970   -0.7170 ha        1 AZX      0.164000
     42 H2         10.1880    3.8300    2.3710 ha        1 AZX      0.183000
     43 H3         11.3280    4.4940    0.2760 ha        1 AZX      0.164000
     44 H111       12.1980    5.4560   -1.9990 hx        1 AZX      0.113700
     45 H112       13.0770    4.6640   -3.4040 hx        1 AZX      0.113700
     46 H113       13.9860    5.7800   -2.2660 hx        1 AZX      0.113700
     47 H101       14.7920    2.8850   -2.8870 hx        1 AZX      0.113700
     48 H102       15.0870    2.4490   -1.1260 hx        1 AZX      0.113700
     49 H103       15.6140    4.0860   -1.7680 hx        1 AZX      0.113700
     50 H222        3.4040    0.7510    3.1550 hn        1 AZX      0.492800
     51 H91        13.5430    4.1660   -0.4930 hn        1 AZX      0.457800
@<TRIPOS>BOND
     1    1    2 1   
     2    2    3 1   
     3    2    4 1   
     4    2    5 1   
     5    5    6 1   
     6    5    7 1   
     7    5    8 1   
     8    6   32 1   
     9    7   33 1   
    10    7   34 1   
    11    7   35 1   
    12    8    9 2   
    13    8   10 1   
    14   10   11 1   
    15   10   36 1   
    16   10   50 1   
    17   11   12 ar  
    18   11   14 ar  
    19   12   13 ar  
    20   12   37 1   
    21   13   17 ar  
    22   13   38 1   
    23   14   15 1   
    24   14   16 ar  
    25   16   17 ar  
    26   16   39 1   
    27   17   18 1   
    28   18   19 2   
    29   18   20 2   
    30   18   21 1   
    31   21   22 ar  
    32   21   24 ar  
    33   22   23 ar  
    34   22   40 1   
    35   23   26 ar  
    36   23   41 1   
    37   24   25 ar  
    38   24   42 1   
    39   25   26 ar  
    40   25   43 1   
    41   26   27 1   
    42   27   28 2   
    43   27   29 1   
    44   29   30 1   
    45   29   31 1   
    46   29   51 1   
    47   30   44 1   
    48   30   45 1   
    49   30   46 1   
    50   31   47 1   
    51   31   48 1   
    52   31   49 1   
@<TRIPOS>SUBSTRUCTURE
     1 AZX         1 TEMP              0 ****  ****    0 ROOT
