@<TRIPOS>MOLECULE
AZX
   49    45     1     0     0
SMALL
bcc


@<TRIPOS>ATOM
      1 F29        -8.2640   -3.4930   -0.0410 f         1 AZX     -0.156667
      2 C27        -6.9260   -3.6080   -0.0130 c3        1 AZX      0.380000
      3 F30        -6.5770   -4.5510    0.8670 f         1 AZX     -0.156667
      4 F31        -6.4700   -3.9570   -1.2580 f         1 AZX     -0.156667
      5 C24        -6.3000   -2.2540    0.4050 c3        1 AZX      0.038000
      6 O25        -6.6260   -1.2890   -0.5300 oh        1 AZX     -0.302000
      7 C26        -6.8490   -1.8380    1.7850 c3        1 AZX     -0.248000
      8 C23        -4.7980   -2.3940    0.4800 c2        1 AZX      0.328000
      9 O28        -4.3090   -3.3720    0.9900 o         1 AZX     -0.311000
     10 N22        -3.9360   -1.3730   -0.1130 n         1 AZX     -0.300000
     11 C18        -2.4690   -1.5410   -0.0880 c2        1 AZX      0.152000
     12 C17        -1.8600   -2.4340   -0.9630 c2        1 AZX     -0.181000
     13 C16        -0.4660   -2.4820   -1.0530 c1        1 AZX      0.012000
     14 C19        -1.6920   -0.7000    0.6950 c1        1 AZX     -0.143000
     15 CL1        -2.4550    0.5020    1.7080 cl        1 AZX     -0.002000
     16 C20        -0.3060   -0.7510    0.6040 c2        1 AZX      0.017000
     17 C15         0.3050   -1.6460   -0.2750 c1        1 AZX     -0.843000
     18 S12         2.0360   -1.8500   -0.2390 s4        1 AZX      2.108800
     19 O14         2.4520   -2.4430    0.9620 o         1 AZX     -0.542900
     20 O15         2.4640   -2.8250   -1.1940 o         1 AZX     -0.542900
     21 C1          2.8400   -0.3010   -0.4990 c1        1 AZX     -0.803000
     22 C6          2.9000    0.2370   -1.7580 c2        1 AZX     -0.021000
     23 C5          3.5860    1.4360   -1.9710 c1        1 AZX     -0.122000
     24 C2          3.4620    0.3470    0.5660 c1        1 AZX     -0.023000
     25 C3          4.1400    1.5320    0.3560 c1        1 AZX     -0.131000
     26 C4          4.2020    2.0780   -0.9130 c1        1 AZX     -0.044000
     27 C7          4.8430    3.4990   -1.1240 c2        1 AZX      0.335000
     28 O8          4.7560    4.0450   -2.1910 o         1 AZX     -0.347000
     29 N9          5.4860    4.1690   -0.0230 n         1 AZX     -0.329000
     30 C11         5.0290    5.4440    0.3880 c3        1 AZX     -0.081500
     31 C10         6.7290    3.6410    0.5160 c3        1 AZX     -0.081500
     32 HO25       -7.4130   -0.9320   -0.3250 ho        1 AZX      0.235000
     33 H261       -7.8050   -1.8560    1.7650 hc        1 AZX      0.116333
     34 H262       -6.5160   -2.4770    2.4850 hc        1 AZX      0.116333
     35 H263       -6.5430   -0.9290    1.9990 hc        1 AZX      0.116333
     36 HN22       -4.3210   -0.6160   -0.5430 hn        1 AZX      0.267000
     37 H17        -2.4090   -3.0310   -1.5180 ha        1 AZX      0.184000
     38 H16        -0.0460   -3.0970   -1.6570 ha        1 AZX      0.160000
     39 H20         0.2290   -0.1720    1.1430 ha        1 AZX      0.169000
     40 H6          2.4620   -0.2200   -2.5080 ha        1 AZX      0.157000
     41 H5          3.6300    1.8240   -2.8740 ha        1 AZX      0.154000
     42 H2          3.4180   -0.0470    1.4880 ha        1 AZX      0.156000
     43 H3          4.5810    1.9910    1.1130 ha        1 AZX      0.151000
     44 H111        5.4060    5.6590    1.2520 h1        1 AZX      0.085833
     45 H112        4.0720    5.4360    0.4490 h1        1 AZX      0.085833
     46 H113        5.3000    6.0960   -0.2470 h1        1 AZX      0.085833
     47 H101        7.1270    2.9890   -0.1370 h1        1 AZX      0.085833
     48 H102        6.5470    3.1810    1.3730 h1        1 AZX      0.085833
     49 H103        7.3530    4.3720    0.6670 h1        1 AZX      0.085833
@<TRIPOS>BOND
     1    1    2 1   
     2    2    3 1   
     3    2    4 1   
     4    2    5 1   
     5    5    6 1   
     6    5    7 1   
     7    5    8 1   
     8    6   32 1   
     9    7   33 1   
    10    7   34 1   
    11    7   35 1   
    12    8    9 1   
    13    8   10 1   
    14   10   11 1   
    15   10   36 1   
    16   11   12 1   
    17   11   14 1   
    18   12   13 1   
    19   12   37 1   
    20   13   38 1   
    21   14   16 1   
    22   16   17 1   
    23   16   39 1   
    24   17   18 1   
    25   18   19 1   
    26   18   20 1   
    27   21   22 1   
    28   21   24 1   
    29   22   23 1   
    30   22   40 1   
    31   23   41 1   
    32   24   42 1   
    33   25   26 1   
    34   25   43 1   
    35   26   27 1   
    36   27   28 1   
    37   27   29 1   
    38   29   30 1   
    39   29   31 1   
    40   30   44 1   
    41   30   45 1   
    42   30   46 1   
    43   31   47 1   
    44   31   48 1   
    45   31   49 1   
@<TRIPOS>SUBSTRUCTURE
     1 AZX         1 TEMP              0 ****  ****    0 ROOT
