@<TRIPOS>MOLECULE
AZX
   50    51     1     0     0
SMALL
bcc


@<TRIPOS>ATOM
      1 F29         0.3590    1.1900    0.2020 f         1 AZX     -0.225967
      2 C27         1.6880    0.8800    0.3400 c3        1 AZX      0.594900
      3 F30         2.1360    0.6060   -0.9220 f         1 AZX     -0.225967
      4 F31         2.2860    2.0630    0.6870 f         1 AZX     -0.225967
      5 C24         1.9180   -0.2900    1.3890 c3        1 AZX      0.065800
      6 O25         1.4500    0.1700    2.6390 oh        1 AZX     -0.576800
      7 C26         1.1970   -1.5380    0.9140 c3        1 AZX     -0.132100
      8 C23         3.4350   -0.5720    1.5330 c         1 AZX      0.683100
      9 O28         3.9170   -1.6080    1.0570 o         1 AZX     -0.538100
     10 N22         4.1750    0.4080    2.1870 n         1 AZX     -0.447100
     11 C18         5.5380    0.3890    2.4600 ca        1 AZX      0.172600
     12 C17         6.3890   -0.6830    2.0960 ca        1 AZX     -0.188000
     13 C16         7.7430   -0.6370    2.3770 ca        1 AZX      0.020000
     14 C19         6.1320    1.4980    3.1360 ca        1 AZX     -0.073600
     15 CL1         5.1900    2.8240    3.6330 cl        1 AZX     -0.060400
     16 C20         7.4930    1.5170    3.4090 ca        1 AZX      0.024000
     17 C15         8.3320    0.4620    3.0250 ca        1 AZX     -0.459500
     18 S12         9.9420    0.4780    3.3840 sy        1 AZX      1.443600
     19 O14        10.2190    1.3590    4.4330 o         1 AZX     -0.636300
     20 O15        10.4690   -0.8150    3.4120 o         1 AZX     -0.636300
     21 C1         10.5680    1.2290    1.9480 ca        1 AZX     -0.252500
     22 C6         10.9340    0.4570    0.8450 ca        1 AZX     -0.024000
     23 C5         11.4820    1.0510   -0.2940 ca        1 AZX     -0.097500
     24 C2         10.7550    2.6150    1.9030 ca        1 AZX     -0.024000
     25 C3         11.3080    3.2260    0.7810 ca        1 AZX     -0.097500
     26 C4         11.6800    2.4380   -0.3180 ca        1 AZX     -0.162600
     27 C7         12.2560    3.0210   -1.5340 c         1 AZX      0.571700
     28 O8         12.0650    2.7070   -2.6980 o         1 AZX     -0.406100
     29 N9         13.2610    4.1570   -1.3040 n4        1 AZX     -0.595200
     30 C11        12.7190    5.4290   -1.8420 c3        1 AZX      0.082600
     31 C10        14.5630    3.8200   -1.9330 c3        1 AZX      0.082600
     32 HO25        0.4830    0.1060    2.6310 ho        1 AZX      0.444000
     33 H261        1.3070   -2.3460    1.6770 hc        1 AZX      0.081033
     34 H262        1.6420   -1.8900   -0.0490 hc        1 AZX      0.081033
     35 H263        0.1130   -1.3160    0.7600 hc        1 AZX      0.081033
     36 HN22        3.6500    1.1830    2.5540 hn        1 AZX      0.359500
     37 H17         5.9800   -1.5760    1.5900 ha        1 AZX      0.192000
     38 H16         8.3780   -1.5000    2.1010 ha        1 AZX      0.160000
     39 H20         7.9260    2.3750    3.9580 ha        1 AZX      0.168000
     40 H6         10.8050   -0.6420    0.8770 ha        1 AZX      0.182500
     41 H5         11.7550    0.4330   -1.1660 ha        1 AZX      0.152000
     42 H2         10.4750    3.2280    2.7810 ha        1 AZX      0.182500
     43 H3         11.4130    4.3210    0.7660 ha        1 AZX      0.152000
     44 H111       12.5070    5.3070   -2.9390 hx        1 AZX      0.109033
     45 H112       13.4690    6.2520   -1.6940 hx        1 AZX      0.109033
     46 H113       11.7680    5.6830   -1.3010 hx        1 AZX      0.109033
     47 H101       15.2830    4.6690   -1.7830 hx        1 AZX      0.109033
     48 H102       14.4110    3.6450   -3.0330 hx        1 AZX      0.109033
     49 H103       14.9730    2.8890   -1.4580 hx        1 AZX      0.109033
     50 H91        13.4040    4.2580   -0.2900 hn        1 AZX      0.457800
@<TRIPOS>BOND
     1    1    2 1   
     2    2    3 1   
     3    2    4 1   
     4    2    5 1   
     5    5    6 1   
     6    5    7 1   
     7    5    8 1   
     8    6   32 1   
     9    7   33 1   
    10    7   34 1   
    11    7   35 1   
    12    8    9 2   
    13    8   10 1   
    14   10   11 1   
    15   10   36 1   
    16   11   12 ar  
    17   11   14 ar  
    18   12   13 ar  
    19   12   37 1   
    20   13   17 ar  
    21   13   38 1   
    22   14   15 1   
    23   14   16 ar  
    24   16   17 ar  
    25   16   39 1   
    26   17   18 1   
    27   18   19 2   
    28   18   20 2   
    29   18   21 1   
    30   21   22 ar  
    31   21   24 ar  
    32   22   23 ar  
    33   22   40 1   
    34   23   26 ar  
    35   23   41 1   
    36   24   25 ar  
    37   24   42 1   
    38   25   26 ar  
    39   25   43 1   
    40   26   27 1   
    41   27   28 2   
    42   27   29 1   
    43   29   30 1   
    44   29   31 1   
    45   29   50 1   
    46   30   44 1   
    47   30   45 1   
    48   30   46 1   
    49   31   47 1   
    50   31   48 1   
    51   31   49 1   
@<TRIPOS>SUBSTRUCTURE
     1 AZX         1 TEMP              0 ****  ****    0 ROOT
