@<TRIPOS>MOLECULE
AZX
   50    51     1     0     0
SMALL
bcc


@<TRIPOS>ATOM
      1 F29         0.3610    1.1940    0.2080 f         1 AZX     -0.225967
      2 C27         1.6890    0.8830    0.3450 c3        1 AZX      0.594900
      3 F30         2.1370    0.6100   -0.9170 f         1 AZX     -0.225967
      4 F31         2.2890    2.0660    0.6940 f         1 AZX     -0.225967
      5 C24         1.9190   -0.2890    1.3930 c3        1 AZX      0.065800
      6 O25         1.4520    0.1690    2.6430 oh        1 AZX     -0.576800
      7 C26         1.1970   -1.5360    0.9160 c3        1 AZX     -0.132100
      8 C23         3.4360   -0.5720    1.5360 c         1 AZX      0.683100
      9 O28         3.9180   -1.6070    1.0580 o         1 AZX     -0.538100
     10 N22         4.1770    0.4070    2.1910 ns        1 AZX     -0.447100
     11 C18         5.5400    0.3870    2.4630 ca        1 AZX      0.172600
     12 C17         6.3910   -0.6850    2.0970 ca        1 AZX     -0.188000
     13 C16         7.7450   -0.6400    2.3780 ca        1 AZX      0.020000
     14 C19         6.1350    1.4950    3.1410 ca        1 AZX     -0.073600
     15 Cl1         5.1930    2.8200    3.6400 cl        1 AZX     -0.060400
     16 C20         7.4950    1.5130    3.4130 ca        1 AZX      0.024000
     17 C15         8.3340    0.4570    3.0260 ca        1 AZX     -0.459500
     18 S12         9.9440    0.4720    3.3850 sy        1 AZX      1.443600
     19 O14        10.2220    1.3520    4.4350 o         1 AZX     -0.636300
     20 O15        10.4710   -0.8210    3.4110 o         1 AZX     -0.636300
     21 C1         10.5700    1.2250    1.9490 ca        1 AZX     -0.252500
     22 C6         10.9360    0.4540    0.8460 ca        1 AZX     -0.024000
     23 C5         11.4820    1.0490   -0.2930 ca        1 AZX     -0.097500
     24 C2         10.7560    2.6110    1.9060 ca        1 AZX     -0.024000
     25 C3         11.3090    3.2230    0.7850 ca        1 AZX     -0.097500
     26 C4         11.6800    2.4370   -0.3150 ca        1 AZX     -0.162600
     27 C7         12.2550    3.0210   -1.5320 c         1 AZX      0.571700
     28 O8         12.0640    2.7080   -2.6960 o         1 AZX     -0.406100
     29 N9         13.2600    4.1570   -1.3020 nx        1 AZX     -0.595200
     30 C11        12.7160    5.4300   -1.8380 c3        1 AZX      0.082600
     31 C10        14.5620    3.8220   -1.9320 c3        1 AZX      0.082600
     32 HO25        0.4850    0.1060    2.6350 ho        1 AZX      0.444000
     33 H261        1.6420   -1.8870   -0.0480 hc        1 AZX      0.081033
     34 H262        0.1130   -1.3130    0.7620 hc        1 AZX      0.081033
     35 H263        1.3070   -2.3450    1.6780 hc        1 AZX      0.081033
     36 HN22        3.6530    1.1820    2.5590 hn        1 AZX      0.359500
     37 H17         5.9800   -1.5770    1.5900 ha        1 AZX      0.192000
     38 H16         8.3790   -1.5030    2.1000 ha        1 AZX      0.160000
     39 H20         7.9290    2.3700    3.9630 ha        1 AZX      0.168000
     40 H6         10.8060   -0.6450    0.8770 ha        1 AZX      0.182500
     41 H5         11.7550    0.4330   -1.1660 ha        1 AZX      0.152000
     42 H2         10.4760    3.2240    2.7850 ha        1 AZX      0.182500
     43 H3         11.4130    4.3190    0.7700 ha        1 AZX      0.152000
     44 H111       11.7660    5.6820   -1.2960 hx        1 AZX      0.109033
     45 H112       12.5040    5.3090   -2.9350 hx        1 AZX      0.109033
     46 H113       13.4670    6.2520   -1.6890 hx        1 AZX      0.109033
     47 H101       14.9720    2.8900   -1.4580 hx        1 AZX      0.109033
     48 H102       14.4080    3.6480   -3.0320 hx        1 AZX      0.109033
     49 H103       15.2810    4.6710   -1.7810 hx        1 AZX      0.109033
     50 H91        13.4030    4.2570   -0.2880 hn        1 AZX      0.457800
@<TRIPOS>BOND
     1    1    2 1   
     2    2    3 1   
     3    2    4 1   
     4    2    5 1   
     5    5    6 1   
     6    5    7 1   
     7    5    8 1   
     8    6   32 1   
     9    7   33 1   
    10    7   34 1   
    11    7   35 1   
    12    8    9 2   
    13    8   10 1   
    14   10   11 1   
    15   10   36 1   
    16   11   12 ar  
    17   11   14 ar  
    18   12   13 ar  
    19   12   37 1   
    20   13   17 ar  
    21   13   38 1   
    22   14   15 1   
    23   14   16 ar  
    24   16   17 ar  
    25   16   39 1   
    26   17   18 1   
    27   18   19 2   
    28   18   20 2   
    29   18   21 1   
    30   21   22 ar  
    31   21   24 ar  
    32   22   23 ar  
    33   22   40 1   
    34   23   26 ar  
    35   23   41 1   
    36   24   25 ar  
    37   24   42 1   
    38   25   26 ar  
    39   25   43 1   
    40   26   27 1   
    41   27   28 2   
    42   27   29 1   
    43   29   30 1   
    44   29   31 1   
    45   29   50 1   
    46   30   44 1   
    47   30   45 1   
    48   30   46 1   
    49   31   47 1   
    50   31   48 1   
    51   31   49 1   
@<TRIPOS>SUBSTRUCTURE
     1 AZX         1 TEMP              0 ****  ****    0 ROOT
