@<TRIPOS>MOLECULE
AZY
   25    25     1     0     0
SMALL
bcc


@<TRIPOS>ATOM
      1 OXT         3.5520    1.7060    0.3850 o         1 AZY     -0.839300
      2 C           3.6850    0.5680   -0.1420 c         1 AZY      0.888600
      3 O           4.7900    0.0470   -0.4650 o         1 AZY     -0.839300
      4 CA          2.3780   -0.2450   -0.4390 c3        1 AZY      0.019500
      5 N           2.6070   -1.5680   -1.0050 n3        1 AZY     -0.890800
      6 CB          1.5420   -0.2840    0.8470 c3        1 AZY     -0.032100
      7 CG          0.1120   -0.6080    0.5960 ca        1 AZY     -0.057300
      8 CD2        -0.8420    0.4080    0.5650 ca        1 AZY     -0.120000
      9 CD1        -0.2940   -1.9360    0.3910 ca        1 AZY     -0.079000
     10 CE1        -1.6280   -2.2420    0.1650 ca        1 AZY     -0.166000
     11 CZ         -2.5890   -1.2180    0.1270 ca        1 AZY      0.127100
     12 OH         -3.8830   -1.6370   -0.0960 oh        1 AZY     -0.512100
     13 CE2        -2.2050    0.1300    0.3310 ca        1 AZY     -0.017400
     14 N1         -3.2200    1.1300    0.3680 n2        1 AZY     -0.329600
     15 N2         -3.0540    2.2420   -0.1950 n1        1 AZY      0.224000
     16 N3         -3.0950    3.3070   -0.5860 n1        1 AZY     -0.065000
     17 HA          1.8060    0.3470   -1.2110 h1        1 AZY      0.044700
     18 HN1         3.2190   -1.4500   -1.7960 hn        1 AZY      0.331800
     19 HN2         3.1240   -2.1110   -0.3340 hn        1 AZY      0.331800
     20 HB1         1.9740   -1.0320    1.5640 hc        1 AZY      0.061200
     21 HB2         1.6330    0.7330    1.3220 hc        1 AZY      0.061200
     22 HD2        -0.5080    1.4470    0.7220 ha        1 AZY      0.143000
     23 HD1         0.4630   -2.7360    0.3920 ha        1 AZY      0.150000
     24 HE1        -1.9540   -3.2790    0.0010 ha        1 AZY      0.139000
     25 HOH        -4.4620   -0.8640   -0.1360 ho        1 AZY      0.425000
@<TRIPOS>BOND
     1    1    2 1   
     2    2    3 1   
     3    2    4 1   
     4    4    5 1   
     5    4    6 1   
     6    4   17 1   
     7    5   18 1   
     8    5   19 1   
     9    6    7 1   
    10    6   20 1   
    11    6   21 1   
    12    7    8 ar  
    13    7    9 ar  
    14    8   13 ar  
    15    8   22 1   
    16    9   10 ar  
    17    9   23 1   
    18   10   11 ar  
    19   10   24 1   
    20   11   12 1   
    21   11   13 ar  
    22   12   25 1   
    23   13   14 1   
    24   14   15 1   
    25   15   16 3   
@<TRIPOS>SUBSTRUCTURE
     1 AZY         1 TEMP              0 ****  ****    0 ROOT
