@<TRIPOS>MOLECULE
AZZ
   32    33     1     0     0
SMALL
bcc


@<TRIPOS>ATOM
      1 O5'         0.1500   -1.0030    0.4770 oh        1 AZZ     -0.592800
      2 C5'         1.5500   -0.8330    0.4230 c3        1 AZZ      0.114400
      3 C4'         2.0490   -0.0050    1.6080 c3        1 AZZ      0.117100
      4 O4'         1.7440   -0.7040    2.8250 os        1 AZZ     -0.434600
      5 C3'         3.5870    0.1970    1.5470 c3        1 AZZ      0.151500
      6 N3'         3.8800    1.6010    1.2720 n2        1 AZZ     -0.435200
      7 N4'         5.0570    1.9740    1.0540 n1        1 AZZ      0.216000
      8 N5'         6.0330    2.5120    0.8390 n1        1 AZZ     -0.041000
      9 C2'         4.1110   -0.3390    2.8960 c3        1 AZZ     -0.121400
     10 C1'         2.9310   -1.1090    3.5160 c3        1 AZZ      0.318500
     11 N1          3.0550   -2.5670    3.5350 n         1 AZZ     -0.386000
     12 C2          3.5700   -3.2950    2.4290 c         1 AZZ      0.811500
     13 O2          4.0670   -2.7250    1.4300 o         1 AZZ     -0.661500
     14 N3          3.5510   -4.6960    2.4780 ns        1 AZZ     -0.584500
     15 C4          2.9740   -5.4240    3.5330 c         1 AZZ      0.714700
     16 O4          3.0030   -6.6640    3.4890 o         1 AZZ     -0.600500
     17 C5          2.3720   -4.6240    4.6160 cc        1 AZZ     -0.243400
     18 C5A         1.7320   -5.3620    5.7220 c3        1 AZZ     -0.033900
     19 C6          2.4180   -3.2660    4.5590 cd        1 AZZ      0.034600
     20 HO5'       -0.0540   -1.4080    1.3310 ho        1 AZZ      0.409000
     21 H5'         2.0670   -1.8310    0.4040 h1        1 AZZ      0.063200
     22 H5'A        1.7420   -0.2810   -0.5350 h1        1 AZZ      0.063200
     23 H4'         1.4690    0.9580    1.6770 h1        1 AZZ      0.102700
     24 H3'         3.9950   -0.4760    0.7300 h1        1 AZZ      0.090700
     25 H2'         5.0100   -0.9840    2.7360 hc        1 AZZ      0.079200
     26 H2'A        4.3900    0.4880    3.5970 hc        1 AZZ      0.079200
     27 H1'         2.7640   -0.7900    4.5900 h2        1 AZZ      0.087700
     28 HN3         3.9500   -5.1810    1.7030 hn        1 AZZ      0.354500
     29 H5A         2.4560   -6.0940    6.1620 hc        1 AZZ      0.054033
     30 H5AA        1.3830   -4.6690    6.5260 hc        1 AZZ      0.054033
     31 H5AB        0.8540   -5.9410    5.3370 hc        1 AZZ      0.054033
     32 H6          1.9580   -2.6410    5.3490 h4        1 AZZ      0.167000
@<TRIPOS>BOND
     1    1    2 1   
     2    1   20 1   
     3    2    3 1   
     4    2   21 1   
     5    2   22 1   
     6    3    4 1   
     7    3    5 1   
     8    3   23 1   
     9    4   10 1   
    10    5    6 1   
    11    5    9 1   
    12    5   24 1   
    13    6    7 1   
    14    7    8 3   
    15    9   10 1   
    16    9   25 1   
    17    9   26 1   
    18   10   11 1   
    19   10   27 1   
    20   11   12 1   
    21   11   19 1   
    22   12   13 2   
    23   12   14 1   
    24   14   15 1   
    25   14   28 1   
    26   15   16 2   
    27   15   17 1   
    28   17   18 1   
    29   17   19 2   
    30   18   29 1   
    31   18   30 1   
    32   18   31 1   
    33   19   32 1   
@<TRIPOS>SUBSTRUCTURE
     1 AZZ         1 TEMP              0 ****  ****    0 ROOT
