@<TRIPOS>MOLECULE
AZZ
   32    33     1     0     0
SMALL
bcc


@<TRIPOS>ATOM
      1 O5'         1.7840    3.1940   -0.0200 oh        1 AZZ     -0.592800
      2 C5'         2.0180    1.9040   -0.5440 c3        1 AZZ      0.114400
      3 C4'         2.1760    0.8760    0.5770 c3        1 AZZ      0.117100
      4 O4'         0.9560    0.8220    1.3320 os        1 AZZ     -0.434600
      5 C3'         2.4470   -0.5420    0.0060 c3        1 AZZ      0.151500
      6 N3'         3.8150   -0.9390    0.3270 n2        1 AZZ     -0.435200
      7 N4'         4.2980   -1.9970   -0.1420 n1        1 AZZ      0.216000
      8 N5'         4.9130   -2.8990   -0.4520 n1        1 AZZ     -0.041000
      9 C2'         1.3390   -1.4310    0.6090 c3        1 AZZ     -0.121400
     10 C1'         0.3140   -0.4530    1.2110 c3        1 AZZ      0.318500
     11 N1         -0.9580   -0.3350    0.4970 n         1 AZZ     -0.386000
     12 C2         -1.0230   -0.2800   -0.9220 c         1 AZZ      0.811500
     13 O2         -0.0150   -0.4600   -1.6420 o         1 AZZ     -0.661500
     14 N3         -2.2650   -0.0500   -1.5290 n         1 AZZ     -0.584500
     15 C4         -3.4430    0.2090   -0.8060 c         1 AZZ      0.714700
     16 O4         -4.4970    0.4030   -1.4320 o         1 AZZ     -0.600500
     17 C5         -3.3070    0.2290    0.6620 cc        1 AZZ     -0.243400
     18 C5A        -4.5220    0.5270    1.4460 c3        1 AZZ     -0.033900
     19 C6         -2.0970   -0.0150    1.2330 cd        1 AZZ      0.034600
     20 HO5'        1.0030    3.1330    0.5450 ho        1 AZZ      0.409000
     21 H5'         1.1830    1.6020   -1.2320 h1        1 AZZ      0.063200
     22 H5'A        2.9780    1.9920   -1.1190 h1        1 AZZ      0.063200
     23 H4'         2.9530    1.2240    1.3120 h1        1 AZZ      0.102700
     24 H3'         2.2820   -0.5050   -1.1160 h1        1 AZZ      0.090700
     25 H2'         0.8960   -2.0890   -0.1770 hc        1 AZZ      0.079200
     26 H2'A        1.7240   -2.0790    1.4360 hc        1 AZZ      0.079200
     27 H1'         0.0540   -0.7480    2.2740 h2        1 AZZ      0.087700
     28 HN3        -2.2880   -0.0500   -2.5270 hn        1 AZZ      0.354500
     29 H5A        -5.3330   -0.1980    1.1820 hc        1 AZZ      0.054033
     30 H5AA       -4.3240    0.4650    2.5440 hc        1 AZZ      0.054033
     31 H5AB       -4.8900    1.5560    1.2030 hc        1 AZZ      0.054033
     32 H6         -1.9630    0.0130    2.3320 h4        1 AZZ      0.167000
@<TRIPOS>BOND
     1    1    2 1   
     2    1   20 1   
     3    2    3 1   
     4    2   21 1   
     5    2   22 1   
     6    3    4 1   
     7    3    5 1   
     8    3   23 1   
     9    4   10 1   
    10    5    6 1   
    11    5    9 1   
    12    5   24 1   
    13    6    7 1   
    14    7    8 3   
    15    9   10 1   
    16    9   25 1   
    17    9   26 1   
    18   10   11 1   
    19   10   27 1   
    20   11   12 1   
    21   11   19 1   
    22   12   13 2   
    23   12   14 1   
    24   14   15 1   
    25   14   28 1   
    26   15   16 2   
    27   15   17 1   
    28   17   18 1   
    29   17   19 2   
    30   18   29 1   
    31   18   30 1   
    32   18   31 1   
    33   19   32 1   
@<TRIPOS>SUBSTRUCTURE
     1 AZZ         1 TEMP              0 ****  ****    0 ROOT
