@<TRIPOS>MOLECULE
AZZ
   32    33     1     0     0
SMALL
bcc


@<TRIPOS>ATOM
      1 O5'        -2.4700    2.4440   -2.5700 oh        1 AZZ     -0.590800
      2 C5'        -1.2110    1.7920   -2.2060 c3        1 AZZ      0.104400
      3 C4'        -0.8410    2.0700   -0.8270 c3        1 AZZ      0.149100
      4 O4'        -1.2290    1.0190   -0.0180 os        1 AZZ     -0.390600
      5 C3'         0.6360    2.1700   -0.7340 c3        1 AZZ      0.149500
      6 N3'         1.0090    3.4880   -0.5800 n2        1 AZZ     -0.437200
      7 N4'         2.1670    3.9540   -1.2360 n1        1 AZZ      0.215000
      8 N5'         3.5130    4.4960   -1.9990 n1        1 AZZ     -0.032000
      9 C2'         0.9610    1.2090    0.4670 c3        1 AZZ     -0.134400
     10 C1'        -0.2150    0.8830    1.0200 c3        1 AZZ      0.317500
     11 N1         -0.1720   -0.5330    1.4040 n         1 AZZ     -0.403000
     12 C2          0.6240   -0.9500    2.5690 c         1 AZZ      0.804500
     13 O2          1.1830   -0.1330    3.2330 o         1 AZZ     -0.656500
     14 N3          0.8270   -2.4320    2.8630 n         1 AZZ     -0.583500
     15 C4          0.4100   -3.4140    1.9040 c         1 AZZ      0.715700
     16 O4          0.5830   -4.6090    2.1380 o         1 AZZ     -0.609500
     17 C5         -0.3430   -2.9810    0.6470 cc        1 AZZ     -0.265400
     18 C5A        -0.7310   -4.0140   -0.4110 c3        1 AZZ     -0.028900
     19 C6         -0.5640   -1.5420    0.3860 cd        1 AZZ      0.041600
     20 HO5'       -2.6960    2.1840   -3.3130 ho        1 AZZ      0.406000
     21 H5'        -1.3120    0.8020   -2.3190 h1        1 AZZ      0.037200
     22 H5'A       -0.4620    2.1340   -2.8230 h1        1 AZZ      0.037200
     23 H4'        -1.2830    2.9710   -0.4940 h1        1 AZZ      0.114700
     24 H3'         1.1890    1.8940   -1.5710 h1        1 AZZ      0.057700
     25 H2'         1.3950    0.4570    0.1690 hc        1 AZZ      0.086200
     26 H2'A        1.6330    1.7820    1.2720 hc        1 AZZ      0.086200
     27 H1'        -0.4320    1.4830    1.8250 h2        1 AZZ      0.102700
     28 HN3         1.3810   -2.7170    3.6760 hn        1 AZZ      0.352500
     29 H5A        -0.5500   -4.8960   -0.0790 hc        1 AZZ      0.050367
     30 H5AA       -1.7880   -3.9210   -0.6330 hc        1 AZZ      0.050367
     31 H5AB       -0.1540   -3.8400   -1.3140 hc        1 AZZ      0.050367
     32 H6         -1.0600   -1.2490   -0.4500 h4        1 AZZ      0.201000
@<TRIPOS>BOND
     1    1    2 1   
     2    1   20 1   
     3    2    3 1   
     4    2   21 1   
     5    2   22 1   
     6    3    4 1   
     7    3    5 1   
     8    3   23 1   
     9    4   10 1   
    10    5    6 1   
    11    5    9 1   
    12    5   24 1   
    13    6    7 1   
    14    7    8 3   
    15    9   10 1   
    16    9   25 1   
    17    9   26 1   
    18   10   11 1   
    19   10   27 1   
    20   11   12 1   
    21   11   19 1   
    22   12   13 2   
    23   12   14 1   
    24   14   15 1   
    25   14   28 1   
    26   15   16 2   
    27   15   17 1   
    28   17   18 1   
    29   17   19 2   
    30   18   29 1   
    31   18   30 1   
    32   18   31 1   
    33   19   32 1   
@<TRIPOS>SUBSTRUCTURE
     1 AZZ         1 TEMP              0 ****  ****    0 ROOT
