@<TRIPOS>MOLECULE
AZZ
   32    33     1     0     0
SMALL
bcc


@<TRIPOS>ATOM
      1 O5'         0.8770   -1.7690   -0.0050 oh        1 AZZ     -0.592800
      2 C5'         2.1770   -1.3160    0.3050 c3        1 AZZ      0.114400
      3 C4'         2.1440   -0.2830    1.4330 c3        1 AZZ      0.117100
      4 O4'         1.6060   -0.9000    2.6130 os        1 AZZ     -0.434600
      5 C3'         3.5700    0.2280    1.7700 c3        1 AZZ      0.151500
      6 N3'         3.6910    1.6260    1.3660 n2        1 AZZ     -0.435200
      7 N4'         4.7970    2.2130    1.4260 n1        1 AZZ      0.216000
      8 N5'         5.6870    2.9180    1.4070 n1        1 AZZ     -0.041000
      9 C2'         3.7420   -0.0430    3.2800 c3        1 AZZ     -0.121400
     10 C1'         2.5780   -0.9750    3.6620 c3        1 AZZ      0.318500
     11 N1          2.9350   -2.3650    3.9500 n         1 AZZ     -0.386000
     12 C2          3.8780   -3.0790    3.1620 c         1 AZZ      0.811500
     13 O2          4.5500   -2.5250    2.2630 o         1 AZZ     -0.661500
     14 N3          4.0810   -4.4400    3.4290 n         1 AZZ     -0.584500
     15 C4          3.3420   -5.1600    4.3840 c         1 AZZ      0.714700
     16 O4          3.5920   -6.3640    4.5480 o         1 AZZ     -0.600500
     17 C5          2.3140   -4.3950    5.1140 cc        1 AZZ     -0.243400
     18 C5A         1.5040   -5.1320    6.1040 c3        1 AZZ     -0.033900
     19 C6          2.1450   -3.0710    4.8550 cd        1 AZZ      0.034600
     20 HO5'        0.4940   -2.1160    0.8110 ho        1 AZZ      0.409000
     21 H5'         2.8360   -2.1800    0.5920 h1        1 AZZ      0.063200
     22 H5'A        2.5540   -0.8390   -0.6380 h1        1 AZZ      0.063200
     23 H4'         1.4160    0.5380    1.1820 h1        1 AZZ      0.102700
     24 H3'         4.3150   -0.4250    1.2180 h1        1 AZZ      0.090700
     25 H2'         3.6500    0.8920    3.8880 hc        1 AZZ      0.079200
     26 H2'A        4.7420   -0.4980    3.4820 hc        1 AZZ      0.079200
     27 H1'         2.0410   -0.5880    4.5820 h2        1 AZZ      0.087700
     28 HN3         4.7730   -4.9090    2.8820 hn        1 AZZ      0.354500
     29 H5A         2.1740   -5.6190    6.8570 hc        1 AZZ      0.054033
     30 H5AA        0.9200   -5.9400    5.5930 hc        1 AZZ      0.054033
     31 H5AB        0.7930   -4.4540    6.6350 hc        1 AZZ      0.054033
     32 H6          1.3680   -2.4770    5.3750 h4        1 AZZ      0.167000
@<TRIPOS>BOND
     1    1    2 1   
     2    1   20 1   
     3    2    3 1   
     4    2   21 1   
     5    2   22 1   
     6    3    4 1   
     7    3    5 1   
     8    3   23 1   
     9    4   10 1   
    10    5    6 1   
    11    5    9 1   
    12    5   24 1   
    13    6    7 1   
    14    7    8 3   
    15    9   10 1   
    16    9   25 1   
    17    9   26 1   
    18   10   11 1   
    19   10   27 1   
    20   11   12 1   
    21   11   19 1   
    22   12   13 2   
    23   12   14 1   
    24   14   15 1   
    25   14   28 1   
    26   15   16 2   
    27   15   17 1   
    28   17   18 1   
    29   17   19 2   
    30   18   29 1   
    31   18   30 1   
    32   18   31 1   
    33   19   32 1   
@<TRIPOS>SUBSTRUCTURE
     1 AZZ         1 TEMP              0 ****  ****    0 ROOT
