@<TRIPOS>MOLECULE
I
   34    36     1     0     0
SMALL
bcc


@<TRIPOS>ATOM
      1 OP3        -4.4490    1.1360    1.2850 o         1 I       -0.921167
      2 P          -4.0840    0.8800   -0.1480 p5        1 I        1.317900
      3 OP1        -4.2080   -0.5680   -0.5710 o         1 I       -0.921167
      4 OP2        -4.4100    1.9290   -1.1630 o         1 I       -0.921167
      5 O5'        -2.3140    0.9400   -0.0460 os        1 I       -0.553200
      6 C5'        -1.8340   -0.0310    0.7820 c3        1 I        0.220400
      7 C4'        -1.5190   -1.3360    0.0130 c3        1 I       -0.006900
      8 O4'        -0.5780   -1.1530   -1.0680 os        1 I       -0.378600
      9 C3'        -0.8960   -2.3920    0.9310 c3        1 I        0.091100
     10 O3'        -1.3370   -3.7150    0.6550 oh        1 I       -0.641800
     11 C2'         0.6280   -2.3130    0.6530 c3        1 I        0.104100
     12 O2'         1.2280   -3.5600    0.3920 oh        1 I       -0.600800
     13 C1'         0.7400   -1.3960   -0.6180 c3        1 I        0.209800
     14 N9          1.4400   -0.1370   -0.4040 na        1 I       -0.187900
     15 C8          0.9020    1.1700   -0.4290 cc        1 I        0.471400
     16 N7          1.8510    2.1280   -0.3050 nd        1 I       -0.641000
     17 C5          3.0570    1.4400   -0.2020 cd        1 I        0.211800
     18 C6          4.4140    1.9300   -0.0490 c         1 I        0.634000
     19 O6          4.8160    3.1050    0.0300 o         1 I       -0.649500
     20 N1          5.3880    0.9000    0.0130 n         1 I       -0.508400
     21 C2          5.0410   -0.4450   -0.0720 cd        1 I        0.436800
     22 N3          3.8300   -0.9460   -0.2120 nc        1 I       -0.563100
     23 C4          2.8200    0.0130   -0.2710 cc        1 I        0.012800
     24 H5'        -0.8830    0.3180    1.2870 h1        1 I       -0.004800
     25 H5''       -2.5930   -0.2960    1.5760 h1        1 I       -0.004800
     26 H4'        -2.5000   -1.6120   -0.5100 h1        1 I        0.204700
     27 H3'        -1.1150   -2.1890    2.0120 h1        1 I        0.071700
     28 HO3'       -2.1160   -3.6390    0.0870 ho        1 I        0.430000
     29 H2'         1.1830   -1.8950    1.5310 h1        1 I        0.082700
     30 HO2'        0.5890   -4.0930   -0.1020 ho        1 I        0.414000
     31 H1'         1.2780   -1.9410   -1.4490 h2        1 I        0.076700
     32 H8         -0.2040    1.3340   -0.5340 h5        1 I        0.170100
     33 H1          6.3400    1.1560    0.1250 hn        1 I        0.313500
     34 H2          5.8810   -1.1670   -0.0170 h5        1 I        0.029800
@<TRIPOS>BOND
     1    1    2 1   
     2    2    3 1   
     3    2    4 1   
     4    2    5 1   
     5    5    6 1   
     6    6    7 1   
     7    6   24 1   
     8    6   25 1   
     9    7    8 1   
    10    7    9 1   
    11    7   26 1   
    12    8   13 1   
    13    9   10 1   
    14    9   11 1   
    15    9   27 1   
    16   10   28 1   
    17   11   12 1   
    18   11   13 1   
    19   11   29 1   
    20   12   30 1   
    21   13   14 1   
    22   13   31 1   
    23   14   15 1   
    24   14   23 1   
    25   15   16 2   
    26   15   32 1   
    27   16   17 1   
    28   17   18 1   
    29   17   23 2   
    30   18   19 2   
    31   18   20 1   
    32   20   21 1   
    33   20   33 1   
    34   21   22 2   
    35   21   34 1   
    36   22   23 1   
@<TRIPOS>SUBSTRUCTURE
     1 I           1 TEMP              0 ****  ****    0 ROOT
