@<TRIPOS>MOLECULE
I01
   64    67     1     0     0
SMALL
bcc


@<TRIPOS>ATOM
      1 F96         0.7550   -0.2210    0.5250 f         1 I01     -0.114900
      2 C76         2.0480   -0.2660    0.1360 ca        1 I01      0.164900
      3 C75         3.0710   -0.4020    1.1140 ca        1 I01      0.068100
      4 O95         2.6210   -0.4440    2.4170 os        1 I01     -0.310900
      5 C98         3.5780   -0.8420    3.3950 c3        1 I01      0.109700
      6 C74         4.4110   -0.4630    0.7270 ca        1 I01     -0.126000
      7 C73         4.7520   -0.3700   -0.6190 ca        1 I01     -0.184000
      8 C72         3.7500   -0.2200   -1.5850 ca        1 I01      0.137100
      9 O92         4.0410   -0.0660   -2.9230 oh        1 I01     -0.505100
     10 C71         2.3900   -0.1780   -1.2260 ca        1 I01     -0.203600
     11 C61         1.3330   -0.1010   -2.2650 c         1 I01      0.605300
     12 O62         0.8350   -1.1030   -2.7770 o         1 I01     -0.466100
     13 C54         0.8810    1.2670   -2.6390 ca        1 I01     -0.094600
     14 C55        -0.4920    1.5220   -2.7500 ca        1 I01     -0.100000
     15 C56        -0.9380    2.7940   -3.0980 ca        1 I01     -0.070500
     16 C53         1.8080    2.2820   -2.8970 ca        1 I01     -0.100000
     17 C52         1.3680    3.5540   -3.2550 ca        1 I01     -0.070500
     18 C51        -0.0060    3.8140   -3.3480 ca        1 I01     -0.153600
     19 C42        -0.5080    5.1340   -3.7190 c         1 I01      0.687700
     20 O43        -1.6860    5.5240   -3.7780 o         1 I01     -0.625000
     21 O41         0.4580    6.0680   -4.0080 os        1 I01     -0.436900
     22 C37         0.0550    7.2870   -4.6570 c3        1 I01      0.148100
     23 C36         1.2620    7.6950   -5.4980 c3        1 I01     -0.078400
     24 C35         0.8880    8.6650   -6.5960 c3        1 I01     -0.088400
     25 C34         0.7580   10.1090   -6.1230 c3        1 I01      0.156800
     26 N33        -0.1730   10.2940   -5.0270 n3        1 I01     -0.857200
     27 C32         0.2440    9.7200   -3.7720 c3        1 I01      0.151800
     28 C31        -0.3480    8.3030   -3.5550 c3        1 I01      0.114500
     29 N23        -1.8530    8.3780   -3.4470 n4        1 I01     -0.680800
     30 C21        -2.2980    9.0580   -2.1800 c         1 I01      0.565700
     31 O22        -2.5470   10.2540   -2.2880 o         1 I01     -0.427100
     32 C14        -2.3820    8.2510   -0.9560 ca        1 I01     -0.155600
     33 C13        -2.2780    8.9360    0.2670 ca        1 I01     -0.195300
     34 C12        -2.3850    8.1920    1.4580 ca        1 I01      0.410200
     35 N11        -2.5920    6.8630    1.4840 nb        1 I01     -0.600000
     36 C16        -2.7030    6.2240    0.3040 ca        1 I01      0.410200
     37 C15        -2.6060    6.8680   -0.9460 ca        1 I01     -0.195300
     38 H981        2.9680   -0.9220    4.3300 h1        1 I01      0.052367
     39 H982        4.3690   -0.0610    3.5050 h1        1 I01      0.052367
     40 H983        4.0310   -1.8280    3.1320 h1        1 I01      0.052367
     41 H74         5.2040   -0.5860    1.4800 ha        1 I01      0.156000
     42 H73         5.8080   -0.4200   -0.9240 ha        1 I01      0.150000
     43 H92         4.9430   -0.3910   -3.0720 ho        1 I01      0.435000
     44 H55        -1.2140    0.7080   -2.5700 ha        1 I01      0.170000
     45 H56        -2.0160    3.0030   -3.1890 ha        1 I01      0.156000
     46 H53         2.8880    2.0620   -2.8290 ha        1 I01      0.170000
     47 H52         2.0960    4.3530   -3.4670 ha        1 I01      0.156000
     48 H37        -0.8120    7.0720   -5.3480 h1        1 I01      0.084700
     49 H361        1.6700    6.7550   -5.9660 hc        1 I01      0.075700
     50 H362        2.0760    8.1080   -4.8510 hc        1 I01      0.075700
     51 H351        1.6930    8.6440   -7.3800 hc        1 I01      0.068200
     52 H352       -0.0640    8.3380   -7.0910 hc        1 I01      0.068200
     53 H341        1.7900   10.4870   -5.8550 h1        1 I01      0.055700
     54 H342        0.3820   10.7290   -6.9870 h1        1 I01      0.055700
     55 H33        -0.3940   11.2670   -4.9190 hn        1 I01      0.398800
     56 H321        1.3640    9.6150   -3.6740 h1        1 I01      0.071700
     57 H322       -0.1010   10.3770   -2.9200 h1        1 I01      0.071700
     58 H31         0.0360    7.9170   -2.5630 hx        1 I01      0.112700
     59 H23        -2.2060    8.9110   -4.2550 hn        1 I01      0.480300
     60 H13        -2.1270   10.0260    0.2980 ha        1 I01      0.172000
     61 H12        -2.3070    8.6910    2.4440 h4        1 I01      0.056600
     62 H16        -2.8850    5.1330    0.3610 h4        1 I01      0.056600
     63 H15        -2.7260    6.2660   -1.8600 ha        1 I01      0.172000
     64 H232       -2.2390    7.4200   -3.4880 hn        1 I01      0.480300
@<TRIPOS>BOND
     1    1    2 1   
     2    2    3 ar  
     3    2   10 ar  
     4    3    4 1   
     5    3    6 ar  
     6    4    5 1   
     7    5   38 1   
     8    5   39 1   
     9    5   40 1   
    10    6    7 ar  
    11    6   41 1   
    12    7    8 ar  
    13    7   42 1   
    14    8    9 1   
    15    8   10 ar  
    16    9   43 1   
    17   10   11 1   
    18   11   12 2   
    19   11   13 1   
    20   13   14 ar  
    21   13   16 ar  
    22   14   15 ar  
    23   14   44 1   
    24   15   18 ar  
    25   15   45 1   
    26   16   17 ar  
    27   16   46 1   
    28   17   18 ar  
    29   17   47 1   
    30   18   19 1   
    31   19   20 2   
    32   19   21 1   
    33   21   22 1   
    34   22   23 1   
    35   22   28 1   
    36   22   48 1   
    37   23   24 1   
    38   23   49 1   
    39   23   50 1   
    40   24   25 1   
    41   24   51 1   
    42   24   52 1   
    43   25   26 1   
    44   25   53 1   
    45   25   54 1   
    46   26   27 1   
    47   26   55 1   
    48   27   28 1   
    49   27   56 1   
    50   27   57 1   
    51   28   29 1   
    52   28   58 1   
    53   29   30 1   
    54   29   59 1   
    55   29   64 1   
    56   30   31 2   
    57   30   32 1   
    58   32   33 ar  
    59   32   37 ar  
    60   33   34 ar  
    61   33   60 1   
    62   34   35 ar  
    63   34   61 1   
    64   35   36 ar  
    65   36   37 ar  
    66   36   62 1   
    67   37   63 1   
@<TRIPOS>SUBSTRUCTURE
     1 I01         1 TEMP              0 ****  ****    0 ROOT
