@<TRIPOS>MOLECULE
I01
   63    66     1     0     0
SMALL
bcc


@<TRIPOS>ATOM
      1 F96         3.3810    0.0700   -1.4400 f         1 I01     -0.114900
      2 C76         4.2070    0.0100   -0.3740 ca        1 I01      0.170900
      3 C75         4.8400   -1.2200   -0.0620 ca        1 I01      0.048100
      4 O95         4.5130   -2.2650   -0.9040 os        1 I01     -0.312900
      5 C98         5.0090   -3.5460   -0.5290 c3        1 I01      0.111700
      6 C74         5.7270   -1.3060    1.0160 ca        1 I01     -0.123000
      7 C73         6.0130   -0.1780    1.7710 ca        1 I01     -0.150000
      8 C72         5.4020    1.0500    1.4600 ca        1 I01      0.169100
      9 O92         5.7540    2.0970    2.2730 oh        1 I01     -0.497100
     10 C71         4.4630    1.1540    0.4140 ca        1 I01     -0.262600
     11 C61         3.7910    2.4440    0.1420 c         1 I01      0.603300
     12 O62         4.4370    3.5000    0.0820 o         1 I01     -0.533100
     13 C54         2.3180    2.4390   -0.0080 ca        1 I01     -0.132600
     14 C55         1.7140    3.3740   -0.8590 ca        1 I01     -0.094000
     15 C56         0.3300    3.3870   -1.0120 ca        1 I01     -0.085500
     16 C53         1.5260    1.5360    0.7110 ca        1 I01     -0.094000
     17 C52         0.1410    1.5540    0.5680 ca        1 I01     -0.085500
     18 C51        -0.4580    2.4710   -0.3020 ca        1 I01     -0.111600
     19 C42        -1.9170    2.4960   -0.5040 c         1 I01      0.647700
     20 O43        -2.5710    3.3010   -1.1710 o         1 I01     -0.528000
     21 O41        -2.5750    1.4780    0.1340 os        1 I01     -0.456900
     22 C37        -4.0050    1.3740   -0.0610 c3        1 I01      0.147100
     23 C36        -4.6790    2.2590    0.9830 c3        1 I01     -0.093400
     24 C35        -6.1370    2.5130    0.6880 c3        1 I01     -0.077400
     25 C34        -6.9620    1.2320    0.5480 c3        1 I01      0.166800
     26 N33        -6.7220    0.5450   -0.7020 n3        1 I01     -0.839200
     27 C32        -5.6610   -0.4330   -0.7340 c3        1 I01      0.155800
     28 C31        -4.4080   -0.1140    0.1330 c3        1 I01      0.102700
     29 N23        -3.3550   -1.0650   -0.1590 n         1 I01     -0.551900
     30 C21        -3.2940   -2.2800    0.4950 c         1 I01      0.664700
     31 O22        -4.2300   -2.6730    1.2220 o         1 I01     -0.600100
     32 C14        -2.0730   -3.1140    0.2870 ca        1 I01     -0.102600
     33 C13        -1.6480   -3.9380    1.3370 ca        1 I01     -0.208800
     34 C12        -0.4990   -4.7260    1.1450 ca        1 I01      0.387700
     35 N11         0.2150   -4.7360    0.0020 nb        1 I01     -0.653000
     36 C16        -0.2150   -3.9470   -1.0000 ca        1 I01      0.387700
     37 C15        -1.3510   -3.1190   -0.9100 ca        1 I01     -0.208800
     38 H981        6.1250   -3.5660   -0.5860 h1        1 I01      0.049033
     39 H982        4.6610   -3.8240    0.4950 h1        1 I01      0.049033
     40 H983        4.5620   -4.2280   -1.2970 h1        1 I01      0.049033
     41 H74         6.2120   -2.2620    1.2630 ha        1 I01      0.151000
     42 H73         6.7220   -0.2230    2.6110 ha        1 I01      0.162000
     43 H92         5.4960    2.9330    1.8510 ho        1 I01      0.448000
     44 H55         2.3420    4.0970   -1.4040 ha        1 I01      0.155000
     45 H56        -0.1550    4.1130   -1.6860 ha        1 I01      0.161000
     46 H53         2.0000    0.8060    1.3860 ha        1 I01      0.155000
     47 H52        -0.4850    0.8460    1.1350 ha        1 I01      0.161000
     48 H37        -4.2600    1.7160   -1.1020 h1        1 I01      0.097700
     49 H361       -4.5620    1.7970    1.9980 hc        1 I01      0.054700
     50 H362       -4.1360    3.2430    0.9990 hc        1 I01      0.054700
     51 H351       -6.5730    3.1090    1.5340 hc        1 I01      0.054200
     52 H352       -6.2310    3.1300   -0.2440 hc        1 I01      0.054200
     53 H341       -6.7670    0.5750    1.4460 h1        1 I01      0.032700
     54 H342       -8.0500    1.5270    0.5810 h1        1 I01      0.032700
     55 H33        -7.5680    0.1190   -1.0320 hn        1 I01      0.371800
     56 H321       -6.0190   -1.4540   -0.4020 h1        1 I01      0.045200
     57 H322       -5.3500   -0.5130   -1.8160 h1        1 I01      0.045200
     58 H31        -4.7010   -0.2580    1.2200 h1        1 I01      0.075700
     59 H23        -2.5420   -0.7130   -0.6060 hn        1 I01      0.321500
     60 H13        -2.2110   -3.9730    2.2810 ha        1 I01      0.158500
     61 H12        -0.1310   -5.3890    1.9490 h4        1 I01      0.028100
     62 H16         0.3840   -3.9770   -1.9280 h4        1 I01      0.028100
     63 H15        -1.6540   -2.5140   -1.7750 ha        1 I01      0.158500
@<TRIPOS>BOND
     1    1    2 1   
     2    2    3 ar  
     3    2   10 ar  
     4    3    4 1   
     5    3    6 ar  
     6    4    5 1   
     7    5   38 1   
     8    5   39 1   
     9    5   40 1   
    10    6    7 ar  
    11    6   41 1   
    12    7    8 ar  
    13    7   42 1   
    14    8    9 1   
    15    8   10 ar  
    16    9   43 1   
    17   10   11 1   
    18   11   12 2   
    19   11   13 1   
    20   13   14 ar  
    21   13   16 ar  
    22   14   15 ar  
    23   14   44 1   
    24   15   18 ar  
    25   15   45 1   
    26   16   17 ar  
    27   16   46 1   
    28   17   18 ar  
    29   17   47 1   
    30   18   19 1   
    31   19   20 2   
    32   19   21 1   
    33   21   22 1   
    34   22   23 1   
    35   22   28 1   
    36   22   48 1   
    37   23   24 1   
    38   23   49 1   
    39   23   50 1   
    40   24   25 1   
    41   24   51 1   
    42   24   52 1   
    43   25   26 1   
    44   25   53 1   
    45   25   54 1   
    46   26   27 1   
    47   26   55 1   
    48   27   28 1   
    49   27   56 1   
    50   27   57 1   
    51   28   29 1   
    52   28   58 1   
    53   29   30 1   
    54   29   59 1   
    55   30   31 2   
    56   30   32 1   
    57   32   33 ar  
    58   32   37 ar  
    59   33   34 ar  
    60   33   60 1   
    61   34   35 ar  
    62   34   61 1   
    63   35   36 ar  
    64   36   37 ar  
    65   36   62 1   
    66   37   63 1   
@<TRIPOS>SUBSTRUCTURE
     1 I01         1 TEMP              0 ****  ****    0 ROOT
