@<TRIPOS>MOLECULE
I01
   63    60     1     0     0
SMALL
bcc


@<TRIPOS>ATOM
      1 F96         1.9710   -5.9980    0.3730 f         1 I01     -0.084000
      2 C76         2.9760   -5.1840    0.7920 c2        1 I01      0.136000
      3 C75         3.5630   -5.3920    2.0230 c1        1 I01     -0.017000
      4 O95         3.0520   -6.4140    2.9020 o         1 I01     -0.212000
      5 C98         3.8850   -7.5820    2.9740 c3        1 I01     -0.079000
      6 C74         4.6240   -4.5720    2.4400 c2        1 I01     -0.065000
      7 C73         5.0810   -3.5500    1.6120 c1        1 I01     -0.217000
      8 C72         4.4910   -3.3420    0.3760 c1        1 I01      0.118000
      9 O92         5.0680   -2.4010   -0.5440 oh        1 I01     -0.247000
     10 C71         3.4360   -4.1580   -0.0380 c2        1 I01     -0.193000
     11 C61         2.8230   -3.9410   -1.3290 c2        1 I01      0.330000
     12 O62         3.2380   -4.5340   -2.3040 o         1 I01     -0.253000
     13 C54         1.7030   -2.8730   -1.4890 c2        1 I01     -0.105000
     14 C55         1.9160   -1.5630   -1.0500 c2        1 I01     -0.100000
     15 C56         0.8990   -0.6110   -1.1720 c1        1 I01     -0.081000
     16 C53         0.4790   -3.2290   -2.0460 c1        1 I01     -0.095000
     17 C52        -0.5350   -2.2830   -2.1680 c1        1 I01     -0.084000
     18 C51        -0.3240   -0.9700   -1.7300 c1        1 I01     -0.095000
     19 C42        -1.4020    0.0840   -1.9460 c2        1 I01      0.359000
     20 O43        -2.3070   -0.1360   -2.6850 o         1 I01     -0.374000
     21 O41        -1.3630    1.3180   -1.2010 os        1 I01     -0.275000
     22 C37        -1.7980    2.4370   -1.9260 c3        1 I01      0.025000
     23 C36        -0.6740    2.9270   -2.8090 c3        1 I01     -0.160000
     24 C35        -1.1890    3.9110   -3.8370 c3        1 I01     -0.199000
     25 C34        -1.9960    4.9970   -3.1790 c3        1 I01     -0.079000
     26 N33        -3.3090    4.5360   -2.8640 n3        1 I01     -0.297000
     27 C32        -3.4390    4.2700   -1.4650 c3        1 I01     -0.084000
     28 C31        -2.2360    3.5330   -0.9450 c3        1 I01     -0.020000
     29 N23        -2.5590    2.9310    0.3230 n         1 I01     -0.382000
     30 C21        -2.1680    3.5970    1.5690 c2        1 I01      0.342000
     31 O22        -1.5750    4.6520    1.5310 o         1 I01     -0.364000
     32 C14        -2.5800    2.9960    2.9230 c2        1 I01     -0.080000
     33 C13        -1.6530    2.8660    3.9240 c2        1 I01     -0.131000
     34 C12        -2.0450    2.4220    5.1780 c1        1 I01     -0.079000
     35 N11        -3.3530    2.1140    5.4170 n1        1 I01     -0.124000
     36 C16        -4.2730    2.2420    4.4270 c1        1 I01     -0.077000
     37 C15        -3.8830    2.6890    3.1620 c1        1 I01     -0.153000
     38 H981        4.7670   -7.3310    3.3010 h1        1 I01      0.086333
     39 H982        3.9710   -7.9880    2.0560 h1        1 I01      0.086333
     40 H983        3.4740   -8.2530    3.6000 h1        1 I01      0.086333
     41 H74         5.0300   -4.7150    3.2880 ha        1 I01      0.159000
     42 H73         5.8320   -2.9690    1.9070 ha        1 I01      0.146000
     43 H92         5.9630   -2.5270   -0.5820 ho        1 I01      0.230000
     44 H55         2.7750   -1.3120   -0.6600 ha        1 I01      0.151000
     45 H56         1.0500    0.3210   -0.8600 ha        1 I01      0.159000
     46 H53         0.3270   -4.1700   -2.3600 ha        1 I01      0.159000
     47 H52        -1.4170   -2.5420   -2.5700 ha        1 I01      0.162000
     48 H37        -2.5560    2.1830   -2.4830 h1        1 I01      0.117000
     49 H361       -0.2580    2.1490   -3.2760 hc        1 I01      0.101000
     50 H362        0.0170    3.3780   -2.2410 hc        1 I01      0.101000
     51 H351       -0.4200    4.3190   -4.3120 hc        1 I01      0.088500
     52 H352       -1.7560    3.4330   -4.4860 hc        1 I01      0.088500
     53 H341       -1.5500    5.2740   -2.3650 h1        1 I01      0.093000
     54 H342       -2.0610    5.7540   -3.7810 h1        1 I01      0.093000
     55 H33        -3.4890    3.7690   -3.3430 hn        1 I01      0.159000
     56 H321       -4.2400    3.7270   -1.3120 h1        1 I01      0.108000
     57 H322       -3.5310    5.1410   -0.9710 h1        1 I01      0.108000
     58 H31        -1.5000    4.1650   -0.8230 h1        1 I01      0.126000
     59 H23        -3.1250    2.1850    0.3530 hn        1 I01      0.246000
     60 H13        -0.7280    3.0830    3.7570 ha        1 I01      0.165000
     61 H12        -1.3920    2.3310    5.8840 ha        1 I01      0.165000
     62 H16        -5.1940    2.0250    4.5970 ha        1 I01      0.163000
     63 H15        -4.5350    2.7800    2.4610 ha        1 I01      0.149000
@<TRIPOS>BOND
     1    1    2 1   
     2    2    3 1   
     3    2   10 1   
     4    3    6 1   
     5    4    5 1   
     6    5   38 1   
     7    5   39 1   
     8    5   40 1   
     9    6    7 1   
    10    6   41 1   
    11    7   42 1   
    12    8    9 1   
    13    8   10 1   
    14    9   43 1   
    15   10   11 1   
    16   11   12 1   
    17   11   13 1   
    18   13   14 1   
    19   13   16 1   
    20   14   15 1   
    21   14   44 1   
    22   15   45 1   
    23   16   46 1   
    24   17   18 1   
    25   17   47 1   
    26   18   19 1   
    27   19   20 1   
    28   19   21 1   
    29   21   22 1   
    30   22   23 1   
    31   22   28 1   
    32   22   48 1   
    33   23   24 1   
    34   23   49 1   
    35   23   50 1   
    36   24   25 1   
    37   24   51 1   
    38   24   52 1   
    39   25   26 1   
    40   25   53 1   
    41   25   54 1   
    42   26   27 1   
    43   26   55 1   
    44   27   28 1   
    45   27   56 1   
    46   27   57 1   
    47   28   29 1   
    48   28   58 1   
    49   29   30 1   
    50   29   59 1   
    51   30   31 1   
    52   30   32 1   
    53   32   33 1   
    54   32   37 1   
    55   33   34 1   
    56   33   60 1   
    57   34   61 1   
    58   35   36 1   
    59   36   62 1   
    60   37   63 1   
@<TRIPOS>SUBSTRUCTURE
     1 I01         1 TEMP              0 ****  ****    0 ROOT
