@<TRIPOS>MOLECULE
I01
   64    67     1     0     0
SMALL
bcc


@<TRIPOS>ATOM
      1 F96         0.7610   -0.2220    0.5190 f         1 I01     -0.114900
      2 C76         2.0440   -0.2810    0.1010 ca        1 I01      0.164900
      3 C75         3.0870   -0.4280    1.0540 ca        1 I01      0.068100
      4 O95         2.6670   -0.4640    2.3670 os        1 I01     -0.310900
      5 C98         3.6420   -0.8720    3.3240 c3        1 I01      0.109700
      6 C74         4.4180   -0.5040    0.6370 ca        1 I01     -0.126000
      7 C73         4.7280   -0.4150   -0.7170 ca        1 I01     -0.184000
      8 C72         3.7060   -0.2540   -1.6590 ca        1 I01      0.137100
      9 O92         3.9680   -0.1050   -3.0040 oh        1 I01     -0.505100
     10 C71         2.3550   -0.1970   -1.2690 ca        1 I01     -0.203600
     11 C61         1.2750   -0.1090   -2.2830 c         1 I01      0.605300
     12 O62         0.7560   -1.1060   -2.7840 o         1 I01     -0.465100
     13 C54         0.8300    1.2630   -2.6470 ca        1 I01     -0.094600
     14 C55        -0.5430    1.5340   -2.7230 ca        1 I01     -0.100000
     15 C56        -0.9830    2.8110   -3.0600 ca        1 I01     -0.070500
     16 C53         1.7620    2.2680   -2.9280 ca        1 I01     -0.100000
     17 C52         1.3270    3.5440   -3.2760 ca        1 I01     -0.070500
     18 C51        -0.0460    3.8200   -3.3340 ca        1 I01     -0.153600
     19 C42        -0.5430    5.1460   -3.6930 c         1 I01      0.687700
     20 O43        -1.7170    5.5500   -3.7210 o         1 I01     -0.625000
     21 O41         0.4260    6.0680   -4.0070 os        1 I01     -0.436900
     22 C37         0.0200    7.2930   -4.6460 c3        1 I01      0.148100
     23 C36         1.2090    7.6860   -5.5190 c3        1 I01     -0.078400
     24 C35         0.8170    8.6610   -6.6060 c3        1 I01     -0.088400
     25 C34         0.7170   10.1060   -6.1300 c3        1 I01      0.156800
     26 N33        -0.1830   10.3010   -5.0100 n3        1 I01     -0.857200
     27 C32         0.2600    9.7230   -3.7670 c3        1 I01      0.151800
     28 C31        -0.3420    8.3130   -3.5340 c3        1 I01      0.114500
     29 N23        -1.8420    8.4040   -3.3860 n4        1 I01     -0.680800
     30 C21        -2.2460    9.0900   -2.1080 c         1 I01      0.565700
     31 O22        -2.4860   10.2880   -2.2100 o         1 I01     -0.427100
     32 C14        -2.3060    8.2840   -0.8810 ca        1 I01     -0.155600
     33 C13        -2.1620    8.9680    0.3380 ca        1 I01     -0.195300
     34 C12        -2.2450    8.2250    1.5310 ca        1 I01      0.410200
     35 N11        -2.4650    6.8980    1.5640 nb        1 I01     -0.600000
     36 C16        -2.6150    6.2610    0.3870 ca        1 I01      0.410200
     37 C15        -2.5440    6.9040   -0.8650 ca        1 I01     -0.195300
     38 H981        3.0530   -0.9440    4.2730 h1        1 I01      0.052367
     39 H982        4.4440   -0.0990    3.4150 h1        1 I01      0.052367
     40 H983        4.0780   -1.8630    3.0510 h1        1 I01      0.052367
     41 H74         5.2260   -0.6340    1.3720 ha        1 I01      0.156000
     42 H73         5.7760   -0.4770   -1.0460 ha        1 I01      0.150000
     43 H92         4.8620   -0.4390   -3.1730 ho        1 I01      0.435000
     44 H55        -1.2690    0.7290   -2.5240 ha        1 I01      0.170000
     45 H56        -2.0610    3.0320   -3.1250 ha        1 I01      0.156000
     46 H53         2.8400    2.0360   -2.8880 ha        1 I01      0.170000
     47 H52         2.0580    4.3350   -3.5060 ha        1 I01      0.156000
     48 H37        -0.8670    7.0870   -5.3140 h1        1 I01      0.084700
     49 H361        1.5940    6.7420   -5.9970 hc        1 I01      0.075700
     50 H362        2.0450    8.0900   -4.8930 hc        1 I01      0.075700
     51 H351        1.6010    8.6300   -7.4110 hc        1 I01      0.068200
     52 H352       -0.1510    8.3450   -7.0760 hc        1 I01      0.068200
     53 H341        1.7590   10.4730   -5.8900 h1        1 I01      0.055700
     54 H342        0.3250   10.7310   -6.9850 h1        1 I01      0.055700
     55 H33        -0.3910   11.2770   -4.8970 hn        1 I01      0.398800
     56 H321        1.3810    9.6050   -3.6980 h1        1 I01      0.071700
     57 H322       -0.0550   10.3840   -2.9060 h1        1 I01      0.071700
     58 H31         0.0630    7.9220   -2.5520 hx        1 I01      0.112700
     59 H23        -2.2410    7.4520   -3.4170 hn        1 I01      0.480300
     60 H13        -1.9990   10.0570    0.3640 ha        1 I01      0.172000
     61 H12        -2.1350    8.7240    2.5150 h4        1 I01      0.056600
     62 H16        -2.8060    5.1710    0.4490 h4        1 I01      0.056600
     63 H15        -2.6950    6.3030   -1.7760 ha        1 I01      0.172000
     64 H232       -2.2110    8.9420   -4.1850 hn        1 I01      0.480300
@<TRIPOS>BOND
     1    1    2 1   
     2    2    3 ar  
     3    2   10 ar  
     4    3    4 1   
     5    3    6 ar  
     6    4    5 1   
     7    5   38 1   
     8    5   39 1   
     9    5   40 1   
    10    6    7 ar  
    11    6   41 1   
    12    7    8 ar  
    13    7   42 1   
    14    8    9 1   
    15    8   10 ar  
    16    9   43 1   
    17   10   11 1   
    18   11   12 2   
    19   11   13 1   
    20   13   14 ar  
    21   13   16 ar  
    22   14   15 ar  
    23   14   44 1   
    24   15   18 ar  
    25   15   45 1   
    26   16   17 ar  
    27   16   46 1   
    28   17   18 ar  
    29   17   47 1   
    30   18   19 1   
    31   19   20 2   
    32   19   21 1   
    33   21   22 1   
    34   22   23 1   
    35   22   28 1   
    36   22   48 1   
    37   23   24 1   
    38   23   49 1   
    39   23   50 1   
    40   24   25 1   
    41   24   51 1   
    42   24   52 1   
    43   25   26 1   
    44   25   53 1   
    45   25   54 1   
    46   26   27 1   
    47   26   55 1   
    48   27   28 1   
    49   27   56 1   
    50   27   57 1   
    51   28   29 1   
    52   28   58 1   
    53   29   30 1   
    54   29   59 1   
    55   29   64 1   
    56   30   31 2   
    57   30   32 1   
    58   32   33 ar  
    59   32   37 ar  
    60   33   34 ar  
    61   33   60 1   
    62   34   35 ar  
    63   34   61 1   
    64   35   36 ar  
    65   36   37 ar  
    66   36   62 1   
    67   37   63 1   
@<TRIPOS>SUBSTRUCTURE
     1 I01         1 TEMP              0 ****  ****    0 ROOT
