@<TRIPOS>MOLECULE
I01
   64    67     1     0     0
SMALL
bcc


@<TRIPOS>ATOM
      1 F96         0.9340   -0.0690    0.6560 f         1 I01     -0.114900
      2 C76         2.2010   -0.1380    0.1930 ca        1 I01      0.181900
      3 C75         3.2810   -0.2290    1.1050 ca        1 I01      0.037100
      4 O95         2.9900   -0.1230    2.4540 os        1 I01     -0.326900
      5 C98         3.3320   -1.2830    3.2160 c3        1 I01      0.113700
      6 C74         4.5960   -0.3140    0.6380 ca        1 I01     -0.080000
      7 C73         4.8540   -0.2910   -0.7270 ca        1 I01     -0.206000
      8 C72         3.7890   -0.1790   -1.6340 ca        1 I01      0.161100
      9 O92         3.9960   -0.0960   -2.9920 oh        1 I01     -0.502100
     10 C71         2.4550   -0.1080   -1.1940 ca        1 I01     -0.223600
     11 C61         1.3350   -0.0610   -2.1650 c         1 I01      0.605300
     12 O62         0.7970   -1.0770   -2.6050 o         1 I01     -0.467100
     13 C54         0.8700    1.2970   -2.5590 ca        1 I01     -0.094600
     14 C55        -0.5060    1.5560   -2.6090 ca        1 I01     -0.099500
     15 C56        -0.9640    2.8210   -2.9670 ca        1 I01     -0.070500
     16 C53         1.7870    2.3000   -2.8900 ca        1 I01     -0.099500
     17 C52         1.3350    3.5650   -3.2580 ca        1 I01     -0.070500
     18 C51        -0.0410    3.8300   -3.2880 ca        1 I01     -0.152600
     19 C42        -0.5560    5.1450   -3.6620 c         1 I01      0.687700
     20 O43        -1.7330    5.5420   -3.6630 o         1 I01     -0.624000
     21 O41         0.3980    6.0650   -4.0240 os        1 I01     -0.436900
     22 C37        -0.0330    7.2750   -4.6720 c3        1 I01      0.148100
     23 C36         1.1270    7.6570   -5.5900 c3        1 I01     -0.078400
     24 C35         0.6960    8.6080   -6.6830 c3        1 I01     -0.088400
     25 C34         0.6030   10.0620   -6.2320 c3        1 I01      0.156800
     26 N33        -0.2620   10.2750   -5.0870 n7        1 I01     -0.857200
     27 C32         0.2240    9.7230   -3.8480 c3        1 I01      0.151800
     28 C31        -0.3620    8.3150   -3.5680 c3        1 I01      0.114500
     29 N23        -1.8570    8.4030   -3.3720 ny        1 I01     -0.680800
     30 C21        -2.2210    9.1090   -2.0930 c         1 I01      0.566700
     31 O22        -2.4650   10.3050   -2.2070 o         1 I01     -0.427100
     32 C14        -2.2420    8.3230   -0.8520 ca        1 I01     -0.155600
     33 C13        -2.0590    9.0270    0.3510 ca        1 I01     -0.195300
     34 C12        -2.1050    8.3030    1.5580 ca        1 I01      0.410200
     35 N11        -2.3240    6.9770    1.6190 nb        1 I01     -0.599000
     36 C16        -2.5100    6.3210    0.4580 ca        1 I01      0.410200
     37 C15        -2.4790    6.9430   -0.8060 ca        1 I01     -0.195300
     38 H981        2.7400   -2.1640    2.8680 h1        1 I01      0.048700
     39 H982        4.4260   -1.4930    3.1430 h1        1 I01      0.048700
     40 H983        3.0480   -0.9990    4.2610 h1        1 I01      0.048700
     41 H74         5.4230   -0.3950    1.3610 ha        1 I01      0.159000
     42 H73         5.8870   -0.3610   -1.0970 ha        1 I01      0.152000
     43 H92         4.9040   -0.3810   -3.1760 ho        1 I01      0.437000
     44 H55        -1.2210    0.7510   -2.3730 ha        1 I01      0.169000
     45 H56        -2.0440    3.0330   -3.0100 ha        1 I01      0.156500
     46 H53         2.8680    2.0770   -2.8700 ha        1 I01      0.169000
     47 H52         2.0540    4.3550   -3.5260 ha        1 I01      0.156500
     48 H37        -0.9400    7.0550   -5.3070 h1        1 I01      0.084700
     49 H361        1.5000    6.7050   -6.0620 hc        1 I01      0.075700
     50 H362        1.9800    8.0760   -4.9990 hc        1 I01      0.075700
     51 H351        1.4540    8.5660   -7.5120 hc        1 I01      0.068200
     52 H352       -0.2850    8.2790   -7.1160 hc        1 I01      0.068200
     53 H341        0.1810   10.6680   -7.0850 h1        1 I01      0.055700
     54 H342        1.6510   10.4380   -6.0320 h1        1 I01      0.055700
     55 H33        -0.4700   11.2510   -4.9870 hn        1 I01      0.398800
     56 H321        1.3480    9.6120   -3.8130 h1        1 I01      0.072200
     57 H322       -0.0660   10.4000   -2.9910 h1        1 I01      0.072200
     58 H31         0.0780    7.9450   -2.5930 hx        1 I01      0.112700
     59 H23        -2.2550    8.9250   -4.1670 hn        1 I01      0.479800
     60 H13        -1.8950   10.1150    0.3540 ha        1 I01      0.172000
     61 H12        -1.9640    8.8180    2.5300 h4        1 I01      0.056600
     62 H16        -2.6990    5.2320    0.5440 h4        1 I01      0.056600
     63 H15        -2.6580    6.3280   -1.7010 ha        1 I01      0.172000
     64 H232       -2.2520    7.4480   -3.3730 hn        1 I01      0.479800
@<TRIPOS>BOND
     1    1    2 1   
     2    2    3 ar  
     3    2   10 ar  
     4    3    4 1   
     5    3    6 ar  
     6    4    5 1   
     7    5   38 1   
     8    5   39 1   
     9    5   40 1   
    10    6    7 ar  
    11    6   41 1   
    12    7    8 ar  
    13    7   42 1   
    14    8    9 1   
    15    8   10 ar  
    16    9   43 1   
    17   10   11 1   
    18   11   12 2   
    19   11   13 1   
    20   13   14 ar  
    21   13   16 ar  
    22   14   15 ar  
    23   14   44 1   
    24   15   18 ar  
    25   15   45 1   
    26   16   17 ar  
    27   16   46 1   
    28   17   18 ar  
    29   17   47 1   
    30   18   19 1   
    31   19   20 2   
    32   19   21 1   
    33   21   22 1   
    34   22   23 1   
    35   22   28 1   
    36   22   48 1   
    37   23   24 1   
    38   23   49 1   
    39   23   50 1   
    40   24   25 1   
    41   24   51 1   
    42   24   52 1   
    43   25   26 1   
    44   25   53 1   
    45   25   54 1   
    46   26   27 1   
    47   26   55 1   
    48   27   28 1   
    49   27   56 1   
    50   27   57 1   
    51   28   29 1   
    52   28   58 1   
    53   29   30 1   
    54   29   59 1   
    55   29   64 1   
    56   30   31 2   
    57   30   32 1   
    58   32   33 ar  
    59   32   37 ar  
    60   33   34 ar  
    61   33   60 1   
    62   34   35 ar  
    63   34   61 1   
    64   35   36 ar  
    65   36   37 ar  
    66   36   62 1   
    67   37   63 1   
@<TRIPOS>SUBSTRUCTURE
     1 I01         1 TEMP              0 ****  ****    0 ROOT
