@<TRIPOS>MOLECULE
I02
   69    62     1     0     0
SMALL
bcc


@<TRIPOS>ATOM
      1 C1          3.8180    1.9320   -5.6080 c1        1 I02     -0.124500
      2 C2          3.3340    0.7040   -5.1700 c1        1 I02     -0.117000
      3 C3          4.1540   -0.1470   -4.4540 c1        1 I02     -0.099000
      4 C4          5.4640    0.2250   -4.1710 c1        1 I02     -0.166000
      5 C5          5.9480    1.4480   -4.6070 c1        1 I02      0.095000
      6 C6          5.1240    2.3030   -5.3270 c1        1 I02     -0.124500
      7 C7          1.9130    0.2360   -5.5960 c3        1 I02      0.062000
      8 N1          1.1160    0.0310   -4.4410 n         1 I02     -0.369000
      9 C8         -0.0960    0.8140   -4.2470 c2        1 I02      0.348000
     10 C9         -0.7950    0.8410   -2.8440 c2        1 I02     -0.113000
     11 C10        -0.3590    0.0080   -1.8390 c2        1 I02     -0.073000
     12 C11        -0.9820    0.0360   -0.5940 c1        1 I02     -0.013000
     13 C12        -2.0430    0.9060   -0.3680 c1        1 I02     -0.106000
     14 C13        -2.4800    1.7440   -1.3810 c1        1 I02      0.045000
     15 C14        -1.8650    1.7160   -2.6120 c2        1 I02     -0.084000
     16 N2         -3.6160    2.5770   -1.1730 n2        1 I02     -0.780000
     17 S1         -3.4830    3.9700   -0.2320 s4        1 I02      2.032800
     18 C15        -4.4570    5.2850   -0.9470 c2        1 I02     -0.948000
     19 C16        -4.8640    2.2410   -1.7710 c3        1 I02     -0.085000
     20 O1         -0.4870    1.5530   -5.1330 o         1 I02     -0.365000
     21 O2         -2.0970    4.3690   -0.0650 o         1 I02     -0.534900
     22 O3         -3.8640    3.7150    1.1380 o         1 I02     -0.534900
     23 C17         2.0150   -1.0440   -6.3660 c3        1 I02     -0.221000
     24 F1          7.1560    1.8520   -4.2320 f         1 I02     -0.104000
     25 C20         0.0680   -1.7120    3.8980 c3        1 I02      0.125000
     26 N3         -1.2090   -1.3920    4.4250 n3        1 I02     -0.332000
     27 C21         1.1050   -0.6980    4.3880 c3        1 I02     -0.208000
     28 C22         0.4690   -3.1140    4.3620 c3        1 I02     -0.116000
     29 C23        -0.6170   -3.5640    8.5540 c1        1 I02     -0.124500
     30 C24        -1.5400   -3.8780    7.5540 c1        1 I02     -0.124500
     31 C25        -1.1880   -3.7450    6.2170 c1        1 I02     -0.124500
     32 C26         0.0840   -3.2980    5.8730 c1        1 I02     -0.067000
     33 C27         1.0080   -2.9840    6.8750 c1        1 I02     -0.126000
     34 C28         0.6540   -3.1180    8.2130 c1        1 I02     -0.124500
     35 N35        -0.2450   -2.7090    1.5790 n2        1 I02     -0.083000
     36 N4         -0.6100   -2.2090    0.3590 n2        1 I02     -0.081000
     37 C29        -0.5740   -0.8740    0.4330 c1        1 I02      0.002000
     38 O4         -0.1900   -0.5340    1.6880 os        1 I02     -0.132000
     39 C30         0.0100   -1.6780    2.3880 c2        1 I02     -0.073000
     40 H1          3.2460    2.5250   -6.1070 ha        1 I02      0.137333
     41 H3          3.8150   -1.0070   -4.1470 ha        1 I02      0.135000
     42 H4          6.0640   -0.3980   -3.6470 ha        1 I02      0.151000
     43 H6          5.4660    3.1670   -5.6360 ha        1 I02      0.137333
     44 H7          1.4820    0.9520   -6.1830 h1        1 I02      0.135000
     45 HN1         1.3190   -0.6180   -3.8730 hn        1 I02      0.226000
     46 H10         0.3710   -0.5900   -1.9960 ha        1 I02      0.165000
     47 H12        -2.4790    0.9270    0.5000 ha        1 I02      0.190000
     48 H14        -2.1700    2.2950   -3.3110 ha        1 I02      0.167000
     49 H151       -4.2630    5.3490   -1.9240 ha        1 I02      0.158667
     50 H152       -5.4150    5.0920   -0.8140 ha        1 I02      0.158667
     51 H153       -4.2310    6.1330   -0.5140 ha        1 I02      0.158667
     52 H161       -5.3320    3.0770   -2.0530 h1        1 I02      0.098000
     53 H162       -4.7030    1.6570   -2.5770 h1        1 I02      0.098000
     54 H163       -5.4360    1.7440   -1.1040 h1        1 I02      0.098000
     55 H171        1.2000   -1.2100   -6.8080 hc        1 I02      0.086333
     56 H172        2.7520   -0.9700   -7.0420 hc        1 I02      0.086333
     57 H173        2.2160   -1.8060   -5.7300 hc        1 I02      0.086333
     58 HN31       -1.8500   -1.8410    3.9570 hn        1 I02      0.164500
     59 HN32       -1.3600   -0.4630    4.3520 hn        1 I02      0.164500
     60 H211        0.6500    0.1200    4.6890 hc        1 I02      0.096667
     61 H212        1.7330   -0.4750    3.6370 hc        1 I02      0.096667
     62 H213        1.6190   -1.0900    5.1460 hc        1 I02      0.096667
     63 H221        1.4200   -3.2260    4.2570 hc        1 I02      0.099500
     64 H222        0.0010   -3.7800    3.8250 hc        1 I02      0.099500
     65 H23        -0.8610   -3.6560    9.4750 ha        1 I02      0.137333
     66 H28         1.3010   -2.8990    8.9170 ha        1 I02      0.137333
     67 H27         1.9140   -2.6660    6.6330 ha        1 I02      0.130000
     68 H25        -1.8310   -3.9650    5.5210 ha        1 I02      0.137333
     69 H24        -2.4150   -4.1840    7.7900 ha        1 I02      0.137333
@<TRIPOS>BOND
     1    1    6 1   
     2    1   40 1   
     3    2    3 1   
     4    2    7 1   
     5    3   41 1   
     6    4    5 1   
     7    4   42 1   
     8    5   24 1   
     9    6   43 1   
    10    7    8 1   
    11    7   23 1   
    12    7   44 1   
    13    8    9 1   
    14    8   45 1   
    15    9   10 1   
    16    9   20 1   
    17   10   11 1   
    18   10   15 1   
    19   11   12 1   
    20   11   46 1   
    21   13   14 1   
    22   13   47 1   
    23   14   15 1   
    24   15   48 1   
    25   16   17 1   
    26   16   19 1   
    27   17   21 1   
    28   17   22 1   
    29   18   49 1   
    30   18   50 1   
    31   18   51 1   
    32   19   52 1   
    33   19   53 1   
    34   19   54 1   
    35   23   55 1   
    36   23   56 1   
    37   23   57 1   
    38   25   26 1   
    39   25   27 1   
    40   25   28 1   
    41   25   39 1   
    42   26   58 1   
    43   26   59 1   
    44   27   60 1   
    45   27   61 1   
    46   27   62 1   
    47   28   32 1   
    48   28   63 1   
    49   28   64 1   
    50   29   34 1   
    51   29   65 1   
    52   30   31 1   
    53   30   69 1   
    54   31   68 1   
    55   32   33 1   
    56   33   67 1   
    57   34   66 1   
    58   35   36 1   
    59   35   39 1   
    60   36   37 1   
    61   37   38 1   
    62   38   39 1   
@<TRIPOS>SUBSTRUCTURE
     1 I02         1 TEMP              0 ****  ****    0 ROOT
