@<TRIPOS>MOLECULE
I02
   71    74     1     0     0
SMALL
bcc


@<TRIPOS>ATOM
      1 C1         -0.1940   -2.5100   -1.4980 ca        1 I02     -0.076500
      2 C2          0.1660   -1.7470   -0.3780 ca        1 I02     -0.216300
      3 C3         -0.0040   -2.2690    0.9100 ca        1 I02     -0.076500
      4 C4         -0.5240   -3.5460    1.0880 ca        1 I02     -0.162000
      5 C5         -0.8880   -4.3110   -0.0390 ca        1 I02      0.189900
      6 C6         -0.7220   -3.7840   -1.3380 ca        1 I02     -0.162000
      7 C7          0.7660   -0.3860   -0.5470 c3        1 I02      0.212800
      8 N1         -0.2730    0.5180   -1.2000 ny        1 I02     -0.687800
      9 C8          0.1150    1.9760   -1.1940 c         1 I02      0.569700
     10 C9          0.1260    2.6130   -2.5220 ca        1 I02     -0.170600
     11 C10        -0.3800    3.9040   -2.6870 ca        1 I02     -0.039000
     12 C11        -0.4840    4.4200   -3.9880 ca        1 I02     -0.132500
     13 C12        -0.1810    3.6300   -5.1060 ca        1 I02     -0.051000
     14 C13         0.3220    2.3170   -4.9330 ca        1 I02      0.167600
     15 C14         0.5940    1.8820   -3.6180 ca        1 I02     -0.108000
     16 N2          0.5090    1.4290   -6.0020 nh        1 I02     -0.664900
     17 S1         -0.0080   -0.1600   -5.8800 s6        1 I02      1.462900
     18 C15         1.2220   -1.0250   -6.6240 c3        1 I02     -0.391300
     19 C16         0.8730    1.9920   -7.2760 c3        1 I02      0.182100
     20 O1          0.3180    2.4970   -0.1060 o         1 I02     -0.413100
     21 O2         -1.2100   -0.3200   -6.5680 o         1 I02     -0.657800
     22 O3         -0.0500   -0.4990   -4.4950 o         1 I02     -0.657800
     23 C17         2.0470   -0.4390   -1.3650 c3        1 I02     -0.130100
     24 F1         -1.3950   -5.5480    0.1220 f         1 I02     -0.100900
     25 C20        -2.0220    8.9480   -2.7870 c3        1 I02      0.152900
     26 N3         -2.3360   10.1520   -3.6620 nz        1 I02     -0.839600
     27 C21        -3.2620    8.5530   -1.9800 c3        1 I02     -0.132100
     28 C22        -0.8390    9.2900   -1.8440 c3        1 I02     -0.045100
     29 C23        -1.2310   13.0760    0.1230 ca        1 I02     -0.088000
     30 C24        -1.7360   11.9240    0.7250 ca        1 I02     -0.108500
     31 C25        -1.6240   10.6900    0.0820 ca        1 I02     -0.136000
     32 C26        -1.0090   10.6050   -1.1720 ca        1 I02     -0.172300
     33 C27        -0.4960   11.7660   -1.7700 ca        1 I02     -0.136000
     34 C28        -0.6070   12.9950   -1.1250 ca        1 I02     -0.108500
     35 N35        -1.5520    7.7020   -5.0200 nc        1 I02     -0.324000
     36 N4         -1.1450    6.4920   -5.3390 nc        1 I02     -0.301000
     37 C29        -0.9420    5.7780   -4.2040 cd        1 I02      0.546900
     38 O4         -1.2430    6.5940   -3.0900 os        1 I02     -0.358800
     39 C30        -1.6240    7.8070   -3.6760 cd        1 I02      0.378700
     40 H1         -0.0560   -2.1080   -2.5180 ha        1 I02      0.153000
     41 H3          0.2850   -1.6780    1.7950 ha        1 I02      0.153000
     42 H4         -0.6510   -3.9680    2.0980 ha        1 I02      0.176500
     43 H6         -1.0090   -4.3910   -2.2110 ha        1 I02      0.176500
     44 H7          0.9850    0.0800    0.4630 hx        1 I02      0.114700
     45 HN1        -0.4270    0.1850   -2.1680 hn        1 I02      0.474800
     46 H10        -0.6920    4.5030   -1.8160 ha        1 I02      0.174000
     47 H12        -0.3390    4.0280   -6.1260 ha        1 I02      0.191000
     48 H14         1.1670    0.9500   -3.4510 ha        1 I02      0.179000
     49 H151        1.0770   -1.1350   -7.7330 h1        1 I02      0.146367
     50 H152        2.2610   -0.6300   -6.4920 h1        1 I02      0.146367
     51 H153        1.2600   -2.0790   -6.2320 h1        1 I02      0.146367
     52 H161       -0.0380    2.3390   -7.8380 h1        1 I02      0.066700
     53 H162        1.5700    2.8620   -7.1460 h1        1 I02      0.066700
     54 H163        1.4020    1.2090   -7.8860 h1        1 I02      0.066700
     55 H171        2.7730   -1.0990   -0.8230 hc        1 I02      0.078367
     56 H172        2.5050    0.5750   -1.4700 hc        1 I02      0.078367
     57 H173        1.8700   -0.8780   -2.3780 hc        1 I02      0.078367
     58 HN31       -1.5270   10.3750   -4.2520 hn        1 I02      0.473800
     59 HN32       -2.5290   10.9530   -3.0440 hn        1 I02      0.473800
     60 H211       -3.0380    7.6000   -1.4380 hc        1 I02      0.089367
     61 H212       -4.1490    8.3810   -2.6370 hc        1 I02      0.089367
     62 H213       -3.5010    9.3430   -1.2240 hc        1 I02      0.089367
     63 H221        0.1180    9.2770   -2.4320 hc        1 I02      0.095700
     64 H222       -0.7800    8.4610   -1.0870 hc        1 I02      0.095700
     65 H28        -0.1890   13.9020   -1.5900 ha        1 I02      0.163500
     66 H27         0.0460   11.7030   -2.7260 ha        1 I02      0.134500
     67 H24        -2.2120   11.9830    1.7180 ha        1 I02      0.163500
     68 H23        -1.3100   14.0490    0.6370 ha        1 I02      0.168000
     69 H121       -1.1510    0.4090   -0.6770 hn        1 I02      0.474800
     70 H33        -3.1490    9.9580   -4.2540 hn        1 I02      0.473800
     71 H25        -2.0020    9.7820    0.5760 ha        1 I02      0.134500
@<TRIPOS>BOND
     1    1    2 ar  
     2    1    6 ar  
     3    1   40 1   
     4    2    3 ar  
     5    2    7 1   
     6    3    4 ar  
     7    3   41 1   
     8    4    5 ar  
     9    4   42 1   
    10    5    6 ar  
    11    5   24 1   
    12    6   43 1   
    13    7    8 1   
    14    7   23 1   
    15    7   44 1   
    16    8    9 1   
    17    8   45 1   
    18    8   69 1   
    19    9   10 1   
    20    9   20 2   
    21   10   11 ar  
    22   10   15 ar  
    23   11   12 ar  
    24   11   46 1   
    25   12   13 ar  
    26   12   37 1   
    27   13   14 ar  
    28   13   47 1   
    29   14   15 ar  
    30   14   16 1   
    31   15   48 1   
    32   16   17 1   
    33   16   19 1   
    34   17   18 1   
    35   17   21 2   
    36   17   22 2   
    37   18   49 1   
    38   18   50 1   
    39   18   51 1   
    40   19   52 1   
    41   19   53 1   
    42   19   54 1   
    43   23   55 1   
    44   23   56 1   
    45   23   57 1   
    46   25   26 1   
    47   25   27 1   
    48   25   28 1   
    49   25   39 1   
    50   26   58 1   
    51   26   59 1   
    52   26   70 1   
    53   27   60 1   
    54   27   61 1   
    55   27   62 1   
    56   28   32 1   
    57   28   63 1   
    58   28   64 1   
    59   29   30 ar  
    60   29   34 ar  
    61   29   68 1   
    62   30   31 ar  
    63   30   67 1   
    64   31   32 ar  
    65   31   71 1   
    66   32   33 ar  
    67   33   34 ar  
    68   33   66 1   
    69   34   65 1   
    70   35   36 1   
    71   35   39 2   
    72   36   37 2   
    73   37   38 1   
    74   38   39 1   
@<TRIPOS>SUBSTRUCTURE
     1 I02         1 TEMP              0 ****  ****    0 ROOT
