@<TRIPOS>MOLECULE
I02
   72    74     1     0     0
SMALL
bcc


@<TRIPOS>ATOM
      1 C1          0.1990   -2.6810   -0.8570 ca        1 I02     -0.068500
      2 C2          0.5280   -1.5670   -0.0700 ca        1 I02     -0.238300
      3 C3          0.4320   -1.6520    1.3280 ca        1 I02     -0.068500
      4 C4          0.0210   -2.8310    1.9370 ca        1 I02     -0.160500
      5 C5         -0.3090   -3.9480    1.1410 ca        1 I02      0.212900
      6 C6         -0.2190   -3.8640   -0.2680 ca        1 I02     -0.160500
      7 C7          1.0260   -0.3030   -0.6850 c3        1 I02      0.219800
      8 N1         -0.1660    0.4230   -1.3350 n4        1 I02     -0.684800
      9 C8          0.0670    1.8930   -1.4940 c         1 I02      0.550700
     10 C9         -0.0080    2.4800   -2.8490 ca        1 I02     -0.164600
     11 C10        -0.5200    3.7830   -2.9310 ca        1 I02     -0.016000
     12 C11        -0.5640    4.4290   -4.1730 ca        1 I02     -0.100500
     13 C12        -0.0910    3.7830   -5.3220 ca        1 I02     -0.040000
     14 C13         0.4340    2.4730   -5.2380 ca        1 I02      0.031600
     15 C14         0.4760    1.8260   -3.9880 ca        1 I02     -0.075000
     16 N2          0.9030    1.8230   -6.4380 nh        1 I02     -0.793600
     17 S1         -0.8450    0.3980   -7.4230 s4        1 I02      1.654500
     18 C15        -0.0480    0.0140   -8.7430 c3        1 I02     -0.589800
     19 C16         2.1100    1.0240   -6.2480 c3        1 I02      0.088100
     20 O1          0.2680    2.5290   -0.4670 o         1 I02     -0.393100
     21 O2         -1.7050    1.4340   -7.4840 o         1 I02     -0.408900
     22 O3         -0.7750   -0.4490   -6.3720 o         1 I02     -0.408900
     23 C17         2.1370   -0.5320   -1.6930 c3        1 I02     -0.133100
     24 F1         -0.7090   -5.0930    1.7190 f         1 I02     -0.084900
     25 C20        -2.2630    8.8220   -2.6800 c3        1 I02      0.144900
     26 N3         -2.5850   10.0790   -3.4700 n4        1 I02     -0.839600
     27 C21        -3.5090    8.3450   -1.9270 c3        1 I02     -0.133100
     28 C22        -1.1040    9.1160   -1.6900 c3        1 I02     -0.039100
     29 C23        -1.5770   12.7690    0.4990 ca        1 I02     -0.080000
     30 C24        -2.0860   11.5770    1.0150 ca        1 I02     -0.105500
     31 C25        -1.9500   10.3880    0.2980 ca        1 I02     -0.135500
     32 C26        -1.3060   10.3860   -0.9440 ca        1 I02     -0.184300
     33 C27        -0.7890   11.5860   -1.4560 ca        1 I02     -0.135500
     34 C28        -0.9250   12.7710   -0.7380 ca        1 I02     -0.105500
     35 N35        -1.7420    7.7330   -4.9870 nc        1 I02     -0.323000
     36 N4         -1.2920    6.5600   -5.3800 nc        1 I02     -0.283000
     37 C29        -1.0720    5.7830   -4.2920 cd        1 I02      0.505900
     38 O4         -1.4070    6.5130   -3.1300 os        1 I02     -0.352800
     39 C30        -1.8250    7.7490   -3.6380 cd        1 I02      0.415700
     40 H1          0.2850   -2.6330   -1.9530 ha        1 I02      0.140500
     41 H3          0.7010   -0.7890    1.9600 ha        1 I02      0.140500
     42 H4         -0.0420   -2.9070    3.0360 ha        1 I02      0.186000
     43 H6         -0.4720   -4.7460   -0.8790 ha        1 I02      0.186000
     44 H7          1.3950    0.4010    0.1260 hx        1 I02      0.126700
     45 HN1        -0.3760   -0.0130   -2.2350 hn        1 I02      0.462800
     46 H10        -0.8700    4.3030   -2.0190 ha        1 I02      0.192000
     47 H12        -0.1260    4.3130   -6.2940 ha        1 I02      0.194000
     48 H14         0.9220    0.8190   -3.9020 ha        1 I02      0.158000
     49 H151        1.0360   -0.2950   -8.6160 h1        1 I02      0.220367
     50 H152       -0.4610   -0.8820   -9.3210 h1        1 I02      0.220367
     51 H153       -0.0080    0.8060   -9.5570 h1        1 I02      0.220367
     52 H161        2.6030    0.8550   -7.2440 h1        1 I02      0.085033
     53 H162        2.8600    1.5210   -5.5750 h1        1 I02      0.085033
     54 H163        1.8260    0.0340   -5.8000 h1        1 I02      0.085033
     55 H171        2.9710   -1.0670   -1.1630 hc        1 I02      0.077033
     56 H172        2.5380    0.4350   -2.0830 hc        1 I02      0.077033
     57 H173        1.8100   -1.1730   -2.5470 hc        1 I02      0.077033
     58 HN31       -3.3900    9.9230   -4.0830 hn        1 I02      0.477467
     59 HN32       -2.7960   10.8310   -2.7930 hn        1 I02      0.477467
     60 H211       -4.3830    8.2070   -2.6090 hc        1 I02      0.092033
     61 H212       -3.2770    7.3620   -1.4470 hc        1 I02      0.092033
     62 H213       -3.7740    9.0760   -1.1210 hc        1 I02      0.092033
     63 H221       -0.1340    9.1520   -2.2570 hc        1 I02      0.092700
     64 H222       -1.0520    8.2440   -0.9830 hc        1 I02      0.092700
     65 H28        -0.5040   13.7090   -1.1360 ha        1 I02      0.168500
     66 H27        -0.2250   11.5880   -2.4020 ha        1 I02      0.133000
     67 H24        -2.5850   11.5720    1.9980 ha        1 I02      0.168500
     68 H23        -1.6750   13.7070    1.0710 ha        1 I02      0.174000
     69 H121       -0.9750    0.2860   -0.7090 hn        1 I02      0.462800
     70 H21         1.0890    2.5420   -7.1280 hn        1 I02      0.415800
     71 H33        -1.7740   10.3620   -4.0310 hn        1 I02      0.477467
     72 H25        -2.3310    9.4480    0.7270 ha        1 I02      0.133000
@<TRIPOS>BOND
     1    1    2 ar  
     2    1    6 ar  
     3    1   40 1   
     4    2    3 ar  
     5    2    7 1   
     6    3    4 ar  
     7    3   41 1   
     8    4    5 ar  
     9    4   42 1   
    10    5    6 ar  
    11    5   24 1   
    12    6   43 1   
    13    7    8 1   
    14    7   23 1   
    15    7   44 1   
    16    8    9 1   
    17    8   45 1   
    18    8   69 1   
    19    9   10 1   
    20    9   20 2   
    21   10   11 ar  
    22   10   15 ar  
    23   11   12 ar  
    24   11   46 1   
    25   12   13 ar  
    26   12   37 1   
    27   13   14 ar  
    28   13   47 1   
    29   14   15 ar  
    30   14   16 1   
    31   15   48 1   
    32   16   19 1   
    33   16   70 1   
    34   17   18 1   
    35   17   21 1   
    36   17   22 1   
    37   18   49 1   
    38   18   50 1   
    39   18   51 1   
    40   19   52 1   
    41   19   53 1   
    42   19   54 1   
    43   23   55 1   
    44   23   56 1   
    45   23   57 1   
    46   25   26 1   
    47   25   27 1   
    48   25   28 1   
    49   25   39 1   
    50   26   58 1   
    51   26   59 1   
    52   26   71 1   
    53   27   60 1   
    54   27   61 1   
    55   27   62 1   
    56   28   32 1   
    57   28   63 1   
    58   28   64 1   
    59   29   30 ar  
    60   29   34 ar  
    61   29   68 1   
    62   30   31 ar  
    63   30   67 1   
    64   31   32 ar  
    65   31   72 1   
    66   32   33 ar  
    67   33   34 ar  
    68   33   66 1   
    69   34   65 1   
    70   35   36 1   
    71   35   39 2   
    72   36   37 2   
    73   37   38 1   
    74   38   39 1   
@<TRIPOS>SUBSTRUCTURE
     1 I02         1 TEMP              0 ****  ****    0 ROOT
