@<TRIPOS>MOLECULE
I02
   69    72     1     0     0
SMALL
bcc


@<TRIPOS>ATOM
      1 C1         -3.2530   -8.1700    5.3750 ca        1 I02     -0.093000
      2 C2         -2.2990   -8.3650    4.3700 ca        1 I02     -0.126300
      3 C3         -1.7510   -7.2590    3.7140 ca        1 I02     -0.093000
      4 C4         -2.1370   -5.9670    4.0590 ca        1 I02     -0.166000
      5 C5         -3.0940   -5.7780    5.0730 ca        1 I02      0.128900
      6 C6         -3.6550   -6.8880    5.7330 ca        1 I02     -0.166000
      7 C7         -1.8530   -9.7590    3.9890 c3        1 I02      0.145000
      8 N1         -2.9480  -10.5660    3.4900 n         1 I02     -0.558900
      9 C8         -3.0660  -10.9080    2.1590 c         1 I02      0.671700
     10 C9         -4.3200  -11.6160    1.7500 ca        1 I02     -0.112600
     11 C10        -4.8870  -11.2790    0.5200 ca        1 I02     -0.072000
     12 C11        -6.0680  -11.9140    0.1190 ca        1 I02     -0.112500
     13 C12        -6.6780  -12.8730    0.9350 ca        1 I02     -0.106000
     14 C13        -6.0950  -13.2310    2.1710 ca        1 I02      0.158600
     15 C14        -4.8940  -12.5930    2.5610 ca        1 I02     -0.132000
     16 N2         -6.6910  -14.2060    2.9970 nh        1 I02     -0.676900
     17 S1         -6.4790  -14.3130    4.6300 s6        1 I02      1.459900
     18 C15        -5.2360  -15.4650    4.7630 c3        1 I02     -0.368300
     19 C16        -7.5990  -15.1270    2.3650 c3        1 I02      0.191100
     20 O1         -2.1700  -10.6560    1.3270 o         1 I02     -0.601100
     21 O2         -7.6360  -14.8540    5.2180 o         1 I02     -0.643800
     22 O3         -6.0030  -13.1010    5.1640 o         1 I02     -0.643800
     23 C17        -1.1610  -10.4090    5.1910 c3        1 I02     -0.102100
     24 F1         -3.4770   -4.5250    5.4150 f         1 I02     -0.139900
     25 C20        -6.5350   -9.5070   -4.1510 c3        1 I02      0.185900
     26 N3         -5.1900   -9.7620   -4.6540 n3        1 I02     -0.906800
     27 C21        -7.5690   -9.6180   -5.2820 c3        1 I02     -0.090100
     28 C22        -6.5950   -8.0840   -3.5290 c3        1 I02     -0.031100
     29 C23       -10.4180   -6.9000   -1.9880 ca        1 I02     -0.124000
     30 C24        -9.4950   -7.5340   -1.1570 ca        1 I02     -0.127000
     31 C25        -8.2580   -7.9320   -1.6610 ca        1 I02     -0.122000
     32 C26        -7.9340   -7.7040   -3.0040 ca        1 I02     -0.089300
     33 C27        -8.8640   -7.0640   -3.8320 ca        1 I02     -0.122000
     34 C28       -10.1000   -6.6650   -3.3260 ca        1 I02     -0.127000
     35 N35        -7.8840  -11.4330   -2.9610 nc        1 I02     -0.339000
     36 N4         -7.7460  -12.0760   -1.8140 nc        1 I02     -0.341000
     37 C29        -6.6750  -11.5820   -1.1540 cd        1 I02      0.500900
     38 O4         -6.0980  -10.5580   -1.9300 os        1 I02     -0.395800
     39 C30        -6.9150  -10.5060   -3.0720 cd        1 I02      0.421700
     40 H1         -3.6900   -9.0370    5.8960 ha        1 I02      0.142000
     41 H3         -1.0090   -7.4060    2.9130 ha        1 I02      0.142000
     42 H4         -1.7060   -5.0950    3.5460 ha        1 I02      0.151000
     43 H6         -4.4040   -6.7310    6.5220 ha        1 I02      0.151000
     44 H7         -1.0900   -9.6780    3.1520 h1        1 I02      0.093700
     45 HN1        -3.7320  -10.6820    4.0900 hn        1 I02      0.320500
     46 H10        -4.4010  -10.5290   -0.1260 ha        1 I02      0.172000
     47 H12        -7.6190  -13.3410    0.6000 ha        1 I02      0.168000
     48 H14        -4.4090  -12.8520    3.5170 ha        1 I02      0.154000
     49 H151       -4.2790  -15.1560    4.2740 h1        1 I02      0.119367
     50 H152       -4.9890  -15.6440    5.8420 h1        1 I02      0.119367
     51 H153       -5.5030  -16.4630    4.3390 h1        1 I02      0.119367
     52 H161       -8.5820  -14.6310    2.1410 h1        1 I02      0.057700
     53 H162       -7.7910  -15.9920    3.0590 h1        1 I02      0.057700
     54 H163       -7.1660  -15.5210    1.4070 h1        1 I02      0.057700
     55 H171       -1.8680  -10.5360    6.0450 hc        1 I02      0.045700
     56 H172       -0.7490  -11.4080    4.9130 hc        1 I02      0.045700
     57 H173       -0.3210   -9.7510    5.5190 hc        1 I02      0.045700
     58 HN31       -5.1460  -10.6460   -5.1190 hn        1 I02      0.367300
     59 HN32       -4.5180   -9.7250   -3.9140 hn        1 I02      0.367300
     60 H211       -7.5590  -10.6370   -5.7360 hc        1 I02      0.057367
     61 H212       -8.5890   -9.4160   -4.8760 hc        1 I02      0.057367
     62 H213       -7.3380   -8.8650   -6.0740 hc        1 I02      0.057367
     63 H221       -6.2840   -7.3530   -4.3240 hc        1 I02      0.066700
     64 H222       -5.8420   -8.0260   -2.6960 hc        1 I02      0.066700
     65 H28       -10.8260   -6.1650   -3.9840 ha        1 I02      0.132500
     66 H27        -8.6160   -6.8770   -4.8880 ha        1 I02      0.132000
     67 H25        -7.5300   -8.4320   -1.0040 ha        1 I02      0.132000
     68 H24        -9.7410   -7.7200   -0.1020 ha        1 I02      0.132500
     69 H23       -11.3940   -6.5850   -1.5900 ha        1 I02      0.133000
@<TRIPOS>BOND
     1    1    2 ar  
     2    1    6 ar  
     3    1   40 1   
     4    2    3 ar  
     5    2    7 1   
     6    3    4 ar  
     7    3   41 1   
     8    4    5 ar  
     9    4   42 1   
    10    5    6 ar  
    11    5   24 1   
    12    6   43 1   
    13    7    8 1   
    14    7   23 1   
    15    7   44 1   
    16    8    9 1   
    17    8   45 1   
    18    9   10 1   
    19    9   20 2   
    20   10   11 ar  
    21   10   15 ar  
    22   11   12 ar  
    23   11   46 1   
    24   12   13 ar  
    25   12   37 1   
    26   13   14 ar  
    27   13   47 1   
    28   14   15 ar  
    29   14   16 1   
    30   15   48 1   
    31   16   17 1   
    32   16   19 1   
    33   17   18 1   
    34   17   21 2   
    35   17   22 2   
    36   18   49 1   
    37   18   50 1   
    38   18   51 1   
    39   19   52 1   
    40   19   53 1   
    41   19   54 1   
    42   23   55 1   
    43   23   56 1   
    44   23   57 1   
    45   25   26 1   
    46   25   27 1   
    47   25   28 1   
    48   25   39 1   
    49   26   58 1   
    50   26   59 1   
    51   27   60 1   
    52   27   61 1   
    53   27   62 1   
    54   28   32 1   
    55   28   63 1   
    56   28   64 1   
    57   29   30 ar  
    58   29   34 ar  
    59   29   69 1   
    60   30   31 ar  
    61   30   68 1   
    62   31   32 ar  
    63   31   67 1   
    64   32   33 ar  
    65   33   34 ar  
    66   33   66 1   
    67   34   65 1   
    68   35   36 1   
    69   35   39 2   
    70   36   37 2   
    71   37   38 1   
    72   38   39 1   
@<TRIPOS>SUBSTRUCTURE
     1 I02         1 TEMP              0 ****  ****    0 ROOT
