@<TRIPOS>MOLECULE
I03
   74    75     1     0     0
SMALL
bcc


@<TRIPOS>ATOM
      1 C1          2.6650   -1.8160   -1.1720 ca        1 I03     -0.068500
      2 C2          2.7540   -0.6050   -0.4700 ca        1 I03     -0.239300
      3 C3          2.9050   -0.6210    0.9260 ca        1 I03     -0.068500
      4 C4          2.9700   -1.8240    1.6160 ca        1 I03     -0.162500
      5 C5          2.8790   -3.0400    0.9050 ca        1 I03      0.210900
      6 C6          2.7240   -3.0280   -0.5000 ca        1 I03     -0.162500
      7 C7          2.7550    0.7060   -1.1800 c3        1 I03      0.221800
      8 N1          1.2980    1.0560   -1.5450 n4        1 I03     -0.684800
      9 C8          1.1000    2.5130   -1.8240 c         1 I03      0.548700
     10 C9          0.3540    2.8870   -3.0470 ca        1 I03     -0.172600
     11 C10        -0.8000    2.2140   -3.4610 ca        1 I03     -0.030000
     12 C11        -1.4930    2.6850   -4.5810 ca        1 I03     -0.113600
     13 C12        -1.0360    3.8040   -5.2930 ca        1 I03     -0.028000
     14 C13         0.1290    4.4810   -4.8810 ca        1 I03      0.035600
     15 C14         0.8180    4.0120   -3.7430 ca        1 I03     -0.039000
     16 N2          0.6070    5.6540   -5.5650 nh        1 I03     -0.788600
     17 S1         -0.1310    7.7690   -4.4070 s4        1 I03      1.656500
     18 C15         0.5320    8.8110   -5.4050 c3        1 I03     -0.594800
     19 C16         0.2400    5.7270   -6.9730 c3        1 I03      0.088100
     20 O1          1.5770    3.3080   -1.0250 o         1 I03     -0.385100
     21 O2          0.5890    7.3820   -3.3350 o         1 I03     -0.400400
     22 O3         -1.4270    7.4510   -4.5940 o         1 I03     -0.400400
     23 C17         3.6410    0.7210   -2.4120 c3        1 I03     -0.131100
     24 F1          2.9390   -4.2110    1.5620 f         1 I03     -0.085900
     25 C18        -2.7150    2.0230   -5.0730 c         1 I03      0.660700
     26 O4         -3.1120    0.9120   -4.3750 os        1 I03     -0.439900
     27 O5         -3.4210    2.3830   -6.0210 o         1 I03     -0.550000
     28 C19        -3.9500   -0.0440   -5.0400 c3        1 I03      0.121400
     29 C20        -5.4630    0.1540   -4.7970 c3        1 I03      0.113200
     30 N3         -5.9620    1.3700   -5.5520 n4        1 I03     -0.836600
     31 C21        -6.1820   -1.1030   -5.3680 c3        1 I03      0.115400
     32 C22        -5.7830    0.3030   -3.2950 c3        1 I03     -0.039100
     33 C23        -5.3310   -3.3080   -1.0300 ca        1 I03     -0.086000
     34 C24        -4.2160   -2.5140   -1.3100 ca        1 I03     -0.112500
     35 C25        -4.3580   -1.3500   -2.0610 ca        1 I03     -0.125000
     36 C26        -5.6170   -0.9720   -2.5460 ca        1 I03     -0.138300
     37 C27        -6.7330   -1.7670   -2.2570 ca        1 I03     -0.125000
     38 C28        -6.5890   -2.9310   -1.5030 ca        1 I03     -0.112500
     39 O6         -5.9610   -1.0900   -6.7660 oh        1 I03     -0.640800
     40 H1          2.5710   -1.8190   -2.2690 ha        1 I03      0.144000
     41 H3          2.9970    0.3240    1.4880 ha        1 I03      0.144000
     42 H4          3.1040   -1.8420    2.7110 ha        1 I03      0.186000
     43 H6          2.6700   -3.9840   -1.0470 ha        1 I03      0.186000
     44 H7          3.0880    1.5290   -0.4710 hx        1 I03      0.126700
     45 HN1         0.7150    0.7870   -0.7400 hn        1 I03      0.460300
     46 H10        -1.1920    1.3380   -2.9160 ha        1 I03      0.170000
     47 H12        -1.6150    4.1350   -6.1780 ha        1 I03      0.194000
     48 H14         1.7230    4.5340   -3.3730 ha        1 I03      0.186000
     49 H151        1.6400    9.0180   -5.2570 h1        1 I03      0.222033
     50 H152        0.4510    8.5810   -6.5140 h1        1 I03      0.222033
     51 H153        0.0960    9.8670   -5.3750 h1        1 I03      0.222033
     52 H161       -0.8370    6.0370   -7.0590 h1        1 I03      0.085700
     53 H162        0.3730    4.7490   -7.5120 h1        1 I03      0.085700
     54 H163        0.8900    6.4890   -7.4830 h1        1 I03      0.085700
     55 H171        4.6770    0.4320   -2.0890 hc        1 I03      0.080367
     56 H172        3.3100   -0.0110   -3.1880 hc        1 I03      0.080367
     57 H173        3.6890    1.7410   -2.8630 hc        1 I03      0.080367
     58 H191       -3.7250   -0.0760   -6.1400 h1        1 I03      0.121200
     59 H192       -3.6530   -1.0140   -4.5430 h1        1 I03      0.121200
     60 HN31       -5.7650    1.2340   -6.5550 hn        1 I03      0.468133
     61 HN32       -5.4760    2.2100   -5.2290 hn        1 I03      0.468133
     62 H211       -7.2800   -1.0590   -5.1380 h1        1 I03      0.085200
     63 H212       -5.7410   -2.0200   -4.8910 h1        1 I03      0.085200
     64 H221       -6.8420    0.6620   -3.1660 hc        1 I03      0.073700
     65 H222       -5.0980    1.0830   -2.8640 hc        1 I03      0.073700
     66 H28        -7.4730   -3.5490   -1.2720 ha        1 I03      0.156000
     67 H27        -7.7320   -1.4690   -2.6110 ha        1 I03      0.125000
     68 H24        -3.2270   -2.8080   -0.9290 ha        1 I03      0.156000
     69 HO6        -6.3250   -1.9100   -7.1330 ho        1 I03      0.467000
     70 H23        -5.2190   -4.2260   -0.4300 ha        1 I03      0.168000
     71 H121        1.0190    0.4970   -2.3560 hn        1 I03      0.460300
     72 H21         1.6180    5.6710   -5.4820 hn        1 I03      0.410800
     73 H33        -6.9710    1.4720   -5.4160 hn        1 I03      0.468133
     74 H25        -3.4840   -0.7130   -2.2640 ha        1 I03      0.125000
@<TRIPOS>BOND
     1    1    2 ar  
     2    1    6 ar  
     3    1   40 1   
     4    2    3 ar  
     5    2    7 1   
     6    3    4 ar  
     7    3   41 1   
     8    4    5 ar  
     9    4   42 1   
    10    5    6 ar  
    11    5   24 1   
    12    6   43 1   
    13    7    8 1   
    14    7   23 1   
    15    7   44 1   
    16    8    9 1   
    17    8   45 1   
    18    8   71 1   
    19    9   10 1   
    20    9   20 2   
    21   10   11 ar  
    22   10   15 ar  
    23   11   12 ar  
    24   11   46 1   
    25   12   13 ar  
    26   12   25 1   
    27   13   14 ar  
    28   13   47 1   
    29   14   15 ar  
    30   14   16 1   
    31   15   48 1   
    32   16   19 1   
    33   16   72 1   
    34   17   18 1   
    35   17   21 1   
    36   17   22 1   
    37   18   49 1   
    38   18   50 1   
    39   18   51 1   
    40   19   52 1   
    41   19   53 1   
    42   19   54 1   
    43   23   55 1   
    44   23   56 1   
    45   23   57 1   
    46   25   26 1   
    47   25   27 2   
    48   26   28 1   
    49   28   29 1   
    50   28   58 1   
    51   28   59 1   
    52   29   30 1   
    53   29   31 1   
    54   29   32 1   
    55   30   60 1   
    56   30   61 1   
    57   30   73 1   
    58   31   39 1   
    59   31   62 1   
    60   31   63 1   
    61   32   36 1   
    62   32   64 1   
    63   32   65 1   
    64   33   34 ar  
    65   33   38 ar  
    66   33   70 1   
    67   34   35 ar  
    68   34   68 1   
    69   35   36 ar  
    70   35   74 1   
    71   36   37 ar  
    72   37   38 ar  
    73   37   67 1   
    74   38   66 1   
    75   39   69 1   
@<TRIPOS>SUBSTRUCTURE
     1 I03         1 TEMP              0 ****  ****    0 ROOT
