@<TRIPOS>MOLECULE
I03
   73    75     1     0     0
SMALL
bcc


@<TRIPOS>ATOM
      1 C1          4.6970    3.1750   -0.5160 ca        1 I03     -0.072500
      2 C2          3.8680    2.4940    0.3870 ca        1 I03     -0.218300
      3 C3          4.3930    2.0270    1.5990 ca        1 I03     -0.072500
      4 C4          5.7280    2.2400    1.9170 ca        1 I03     -0.161500
      5 C5          6.5590    2.9250    1.0060 ca        1 I03      0.192900
      6 C6          6.0350    3.3910   -0.2190 ca        1 I03     -0.161500
      7 C7          2.4170    2.2880    0.0900 c3        1 I03      0.211800
      8 N1          2.2920    1.3250   -1.0870 n4        1 I03     -0.685800
      9 C8          0.9400    0.6650   -1.1760 c         1 I03      0.568700
     10 C9          0.3070    0.6870   -2.5050 ca        1 I03     -0.176600
     11 C10        -1.0880    0.7440   -2.6020 ca        1 I03     -0.026000
     12 C11        -1.6660    0.8830   -3.8690 ca        1 I03     -0.124600
     13 C12        -0.8750    1.0470   -5.0130 ca        1 I03     -0.051000
     14 C13         0.5350    0.9980   -4.9150 ca        1 I03      0.174600
     15 C14         1.0990    0.6910   -3.6560 ca        1 I03     -0.094000
     16 N2          1.3800    1.2790   -5.9940 nh        1 I03     -0.667900
     17 S1          2.8180    2.1140   -5.7990 s6        1 I03      1.465900
     18 C15         2.5160    3.5740   -6.5640 c3        1 I03     -0.391300
     19 C16         0.9620    0.8650   -7.3080 c3        1 I03      0.179100
     20 O1          0.4740    0.1950   -0.1460 o         1 I03     -0.423100
     21 O2          3.8460    1.4230   -6.4400 o         1 I03     -0.652300
     22 O3          2.9920    2.3370   -4.4030 o         1 I03     -0.652300
     23 C17         1.7000    3.5980   -0.1960 c3        1 I03     -0.126100
     24 F1          7.8560    3.1340    1.3040 f         1 I03     -0.098900
     25 C18        -3.1270    0.9420   -4.0410 c         1 I03      0.654700
     26 O4         -3.8490    0.4020   -2.9930 os        1 I03     -0.478900
     27 O5         -3.7570    1.3890   -4.9960 o         1 I03     -0.491000
     28 C19        -5.2470    0.6880   -2.9190 c3        1 I03      0.111400
     29 C20        -6.1010   -0.5760   -3.1930 c3        1 I03      0.117200
     30 N3         -5.5180   -1.7530   -2.4310 n4        1 I03     -0.836600
     31 C21        -7.5310   -0.2900   -2.6630 c3        1 I03      0.113400
     32 C22        -6.1450   -0.9000   -4.7040 c3        1 I03     -0.041100
     33 C23        -9.1440    1.2400   -6.8920 ca        1 I03     -0.092000
     34 C24        -7.8830    1.8060   -6.7010 ca        1 I03     -0.116500
     35 C25        -6.9090    1.1190   -5.9770 ca        1 I03     -0.124000
     36 C26        -7.1960   -0.1370   -5.4290 ca        1 I03     -0.144300
     37 C27        -8.4600   -0.7070   -5.6340 ca        1 I03     -0.124000
     38 C28        -9.4300   -0.0190   -6.3610 ca        1 I03     -0.116500
     39 O6         -7.4430   -0.2160   -1.2500 oh        1 I03     -0.645800
     40 H1          4.2920    3.5540   -1.4690 ha        1 I03      0.146500
     41 H3          3.7470    1.4980    2.3200 ha        1 I03      0.146500
     42 H4          6.1450    1.8840    2.8730 ha        1 I03      0.178500
     43 H6          6.6930    3.9270   -0.9220 ha        1 I03      0.178500
     44 H7          1.9130    1.7700    0.9650 hx        1 I03      0.116700
     45 HN1         3.0060    0.5940   -0.9700 hn        1 I03      0.475300
     46 H10        -1.7190    0.6910   -1.6980 ha        1 I03      0.176000
     47 H12        -1.3650    1.2240   -5.9890 ha        1 I03      0.188000
     48 H14         2.1800    0.4660   -3.5870 ha        1 I03      0.170000
     49 H151        2.0870    3.4870   -7.5960 h1        1 I03      0.143367
     50 H152        3.4700    4.1570   -6.7010 h1        1 I03      0.143367
     51 H153        1.8300    4.2570   -6.0010 h1        1 I03      0.143367
     52 H161        1.8740    0.7420   -7.9580 h1        1 I03      0.068700
     53 H162        0.4270   -0.1210   -7.2690 h1        1 I03      0.068700
     54 H163        0.2760    1.6280   -7.7680 h1        1 I03      0.068700
     55 H171        1.8240    4.2590    0.7010 hc        1 I03      0.076700
     56 H172        0.6090    3.4340   -0.3660 hc        1 I03      0.076700
     57 H173        2.1360    4.1290   -1.0780 hc        1 I03      0.076700
     58 H191       -5.5570    1.4810   -3.6550 h1        1 I03      0.118200
     59 H192       -5.4100    1.0400   -1.8620 h1        1 I03      0.118200
     60 HN31       -4.5250   -1.8430   -2.6570 hn        1 I03      0.464467
     61 HN32       -6.0160   -2.6100   -2.6820 hn        1 I03      0.464467
     62 H211       -8.2310   -1.1140   -2.9680 h1        1 I03      0.085700
     63 H212       -7.8840    0.6820   -3.1020 h1        1 I03      0.085700
     64 H221       -6.3310   -1.9980   -4.8630 hc        1 I03      0.073200
     65 H222       -5.1360   -0.6550   -5.1390 hc        1 I03      0.073200
     66 H28       -10.4190   -0.4740   -6.5250 ha        1 I03      0.156000
     67 H27        -8.6870   -1.7090   -5.2400 ha        1 I03      0.138000
     68 H24        -7.6500    2.7920   -7.1330 ha        1 I03      0.156000
     69 HO6        -8.2890    0.1200   -0.9200 ho        1 I03      0.462000
     70 H23        -9.9100    1.7810   -7.4710 ha        1 I03      0.160000
     71 H121        2.4990    1.8420   -1.9580 hn        1 I03      0.475300
     72 H33        -5.6300   -1.5760   -1.4240 hn        1 I03      0.464467
     73 H25        -5.9050    1.5590   -5.8590 ha        1 I03      0.138000
@<TRIPOS>BOND
     1    1    2 ar  
     2    1    6 ar  
     3    1   40 1   
     4    2    3 ar  
     5    2    7 1   
     6    3    4 ar  
     7    3   41 1   
     8    4    5 ar  
     9    4   42 1   
    10    5    6 ar  
    11    5   24 1   
    12    6   43 1   
    13    7    8 1   
    14    7   23 1   
    15    7   44 1   
    16    8    9 1   
    17    8   45 1   
    18    8   71 1   
    19    9   10 1   
    20    9   20 2   
    21   10   11 ar  
    22   10   15 ar  
    23   11   12 ar  
    24   11   46 1   
    25   12   13 ar  
    26   12   25 1   
    27   13   14 ar  
    28   13   47 1   
    29   14   15 ar  
    30   14   16 1   
    31   15   48 1   
    32   16   17 1   
    33   16   19 1   
    34   17   18 1   
    35   17   21 2   
    36   17   22 2   
    37   18   49 1   
    38   18   50 1   
    39   18   51 1   
    40   19   52 1   
    41   19   53 1   
    42   19   54 1   
    43   23   55 1   
    44   23   56 1   
    45   23   57 1   
    46   25   26 1   
    47   25   27 2   
    48   26   28 1   
    49   28   29 1   
    50   28   58 1   
    51   28   59 1   
    52   29   30 1   
    53   29   31 1   
    54   29   32 1   
    55   30   60 1   
    56   30   61 1   
    57   30   72 1   
    58   31   39 1   
    59   31   62 1   
    60   31   63 1   
    61   32   36 1   
    62   32   64 1   
    63   32   65 1   
    64   33   34 ar  
    65   33   38 ar  
    66   33   70 1   
    67   34   35 ar  
    68   34   68 1   
    69   35   36 ar  
    70   35   73 1   
    71   36   37 ar  
    72   37   38 ar  
    73   37   67 1   
    74   38   66 1   
    75   39   69 1   
@<TRIPOS>SUBSTRUCTURE
     1 I03         1 TEMP              0 ****  ****    0 ROOT
