@<TRIPOS>MOLECULE
I03
   71    64     1     0     0
SMALL
bcc


@<TRIPOS>ATOM
      1 C1          5.0940   -0.9700    3.4160 c1        1 I03     -0.130500
      2 C2          3.8310   -0.4320    3.7120 c1        1 I03     -0.129000
      3 C3          2.8520   -1.2280    4.2240 c1        1 I03     -0.089000
      4 C4          3.1010   -2.5890    4.4580 c1        1 I03     -0.168000
      5 C5          4.3730   -3.1350    4.1620 c1        1 I03      0.096000
      6 C6          5.3530   -2.3330    3.6480 c1        1 I03     -0.130500
      7 C7          3.6290    1.0590    3.6660 c3        1 I03      0.059000
      8 N1          3.0600    1.4140    2.4280 n         1 I03     -0.366000
      9 C8          1.6810    1.1150    2.1670 c2        1 I03      0.343000
     10 C9          0.9500    1.8090    1.0020 c2        1 I03     -0.113000
     11 C10        -0.3760    1.4650    0.7020 c2        1 I03     -0.043000
     12 C11        -1.0310    2.0910   -0.3160 c1        1 I03     -0.083000
     13 C12        -0.3880    3.0730   -1.0610 c1        1 I03     -0.097000
     14 C13         0.9400    3.4210   -0.7660 c1        1 I03      0.066000
     15 C14         1.5990    2.7930    0.2570 c2        1 I03     -0.107000
     16 N2          1.6190    4.4380   -1.5580 n2        1 I03     -0.776000
     17 S1          2.0240    4.1200   -3.1850 s4        1 I03      2.029800
     18 C15         2.0770    5.6410   -4.1210 c2        1 I03     -0.948000
     19 C16         1.8630    5.7290   -1.0010 c3        1 I03     -0.078000
     20 O1          1.1290    0.2980    2.8030 o         1 I03     -0.354000
     21 O2          1.0970    3.1670   -3.7850 o         1 I03     -0.528900
     22 O3          3.2920    3.3840   -3.2850 o         1 I03     -0.528900
     23 C17         4.9710    1.7580    3.8300 c3        1 I03     -0.219000
     24 F1          4.5760   -4.5150    4.2450 f         1 I03     -0.105000
     25 C18        -2.3990    1.6180   -0.7260 c2        1 I03      0.358000
     26 O4         -2.5620    0.8700   -1.9270 os        1 I03     -0.268000
     27 O5         -3.3860    1.9420   -0.0650 o         1 I03     -0.349000
     28 C19        -3.7660   -0.0400   -1.9170 c3        1 I03     -0.050000
     29 C20        -3.3110   -1.4960   -1.7030 c3        1 I03     -0.015000
     30 N3         -1.9110   -1.5610   -1.7680 n3        1 I03     -0.324000
     31 C21        -3.7770   -1.9890   -0.3350 c3        1 I03     -0.009000
     32 C22        -3.9260   -2.3830   -2.7970 c3        1 I03     -0.119000
     33 C23        -4.7710   -6.3670   -1.4010 c1        1 I03     -0.130500
     34 C24        -5.7240   -5.3870   -1.2880 c1        1 I03     -0.130500
     35 C25        -5.4440   -4.1220   -1.6880 c1        1 I03     -0.130500
     36 C26        -4.2020   -3.8220   -2.2100 c1        1 I03     -0.065000
     37 C27        -3.2480   -4.8010   -2.3250 c1        1 I03     -0.107000
     38 C28        -3.5210   -6.0610   -1.9270 c1        1 I03     -0.130500
     39 O6         -2.8260   -1.6470    0.6460 oh        1 I03     -0.323000
     40 H1          5.8050   -0.3850    3.0410 ha        1 I03      0.134333
     41 H3          1.9920   -0.8570    4.4260 ha        1 I03      0.159000
     42 H4          2.3620   -3.1850    4.8450 ha        1 I03      0.152000
     43 H6          6.2490   -2.7130    3.4360 ha        1 I03      0.134333
     44 H7          2.9920    1.3500    4.4390 h1        1 I03      0.132000
     45 HN1         3.5880    1.7010    1.7610 hn        1 I03      0.222000
     46 H10        -0.8260    0.7820    1.2190 ha        1 I03      0.187000
     47 H12        -0.8580    3.5180   -1.7880 ha        1 I03      0.162000
     48 H14         2.5490    3.0380    0.4690 ha        1 I03      0.149000
     49 H151        2.3050    5.4410   -5.0630 ha        1 I03      0.159667
     50 H152        2.7980    6.2750   -3.7180 ha        1 I03      0.159667
     51 H153        1.1990    6.0760   -4.0820 ha        1 I03      0.159667
     52 H161        1.3660    6.3790   -1.4810 h1        1 I03      0.092667
     53 H162        1.5790    5.7350   -0.0360 h1        1 I03      0.092667
     54 H163        2.8260    5.9390   -1.0640 h1        1 I03      0.092667
     55 H171        5.3410    1.5590    4.7340 hc        1 I03      0.085000
     56 H172        5.5910    1.4400    3.1500 hc        1 I03      0.085000
     57 H173        4.8550    2.6720    3.7380 hc        1 I03      0.085000
     58 H191       -4.2000    0.0250   -2.7090 h1        1 I03      0.099000
     59 H192       -4.3580    0.2190   -1.2080 h1        1 I03      0.099000
     60 HN31       -1.6470   -1.8020   -2.6320 hn        1 I03      0.151500
     61 HN32       -1.5610   -0.7510   -1.5580 hn        1 I03      0.151500
     62 H211       -3.8840   -3.0170   -0.3600 h1        1 I03      0.095000
     63 H212       -4.6300   -1.5800   -0.1160 h1        1 I03      0.095000
     64 H221       -3.2690   -2.4510   -3.5970 hc        1 I03      0.091500
     65 H222       -4.8280   -1.9620   -3.1210 hc        1 I03      0.091500
     66 H23        -4.9640   -7.2460   -1.1230 ha        1 I03      0.134333
     67 H28        -2.8410   -6.7550   -2.0100 ha        1 I03      0.134333
     68 H27        -2.4190   -4.5970   -2.6720 ha        1 I03      0.130000
     69 H25        -6.1190   -3.4250   -1.6070 ha        1 I03      0.134333
     70 H24        -6.5640   -5.5890   -0.9350 ha        1 I03      0.134333
     71 HO6        -2.9780   -2.1590    1.4120 ho        1 I03      0.206000
@<TRIPOS>BOND
     1    1    6 1   
     2    1   40 1   
     3    2    3 1   
     4    2    7 1   
     5    3   41 1   
     6    4    5 1   
     7    4   42 1   
     8    5   24 1   
     9    6   43 1   
    10    7    8 1   
    11    7   23 1   
    12    7   44 1   
    13    8    9 1   
    14    8   45 1   
    15    9   10 1   
    16    9   20 1   
    17   10   11 1   
    18   10   15 1   
    19   11   12 1   
    20   11   46 1   
    21   12   25 1   
    22   13   14 1   
    23   13   47 1   
    24   14   15 1   
    25   15   48 1   
    26   16   17 1   
    27   16   19 1   
    28   17   21 1   
    29   17   22 1   
    30   18   49 1   
    31   18   50 1   
    32   18   51 1   
    33   19   52 1   
    34   19   53 1   
    35   19   54 1   
    36   23   55 1   
    37   23   56 1   
    38   23   57 1   
    39   25   26 1   
    40   25   27 1   
    41   26   28 1   
    42   28   29 1   
    43   28   58 1   
    44   28   59 1   
    45   29   30 1   
    46   29   31 1   
    47   29   32 1   
    48   30   60 1   
    49   30   61 1   
    50   31   39 1   
    51   31   62 1   
    52   31   63 1   
    53   32   36 1   
    54   32   64 1   
    55   32   65 1   
    56   33   38 1   
    57   33   66 1   
    58   34   35 1   
    59   34   70 1   
    60   35   69 1   
    61   36   37 1   
    62   37   68 1   
    63   38   67 1   
    64   39   71 1   
@<TRIPOS>SUBSTRUCTURE
     1 I03         1 TEMP              0 ****  ****    0 ROOT
