@<TRIPOS>MOLECULE
I03
   71    73     1     0     0
SMALL
bcc


@<TRIPOS>ATOM
      1 C1          7.6600    7.4630   -0.5190 ca        1 I03     -0.094500
      2 C2          6.5410    6.7930   -0.0130 ca        1 I03     -0.122300
      3 C3          5.7780    5.9850   -0.8620 ca        1 I03     -0.094500
      4 C4          6.1280    5.8340   -2.2000 ca        1 I03     -0.166000
      5 C5          7.2570    6.5080   -2.7010 ca        1 I03      0.129900
      6 C6          8.0260    7.3290   -1.8540 ca        1 I03     -0.166000
      7 C7          6.1490    6.9310    1.4410 c3        1 I03      0.147000
      8 N1          5.7730    8.2920    1.7660 n         1 I03     -0.563900
      9 C8          4.5130    8.6310    2.2080 c         1 I03      0.676700
     10 C9          4.2590   10.0870    2.4460 ca        1 I03     -0.125600
     11 C10         4.5110   11.0230    1.4420 ca        1 I03     -0.074000
     12 C11         4.2210   12.3680    1.6850 ca        1 I03     -0.116600
     13 C12         3.6820   12.7750    2.9100 ca        1 I03     -0.096000
     14 C13         3.4260   11.8310    3.9280 ca        1 I03      0.144600
     15 C14         3.7340   10.4720    3.6790 ca        1 I03     -0.114000
     16 N2          2.8800   12.2320    5.1630 nh        1 I03     -0.674900
     17 S1          1.9070   11.2750    6.0970 s6        1 I03      1.460900
     18 C15         0.6320   10.8940    5.0480 c3        1 I03     -0.374300
     19 C16         3.1610   13.5790    5.5840 c3        1 I03      0.189100
     20 O1          3.6300    7.7780    2.4200 o         1 I03     -0.593100
     21 O2          1.4030   12.0370    7.1690 o         1 I03     -0.643300
     22 O3          2.5670   10.0840    6.4410 o         1 I03     -0.643300
     23 C17         7.2880    6.4110    2.3230 c3        1 I03     -0.106100
     24 F1          7.6050    6.3700   -4.0020 f         1 I03     -0.138900
     25 C18         4.4620   13.4020    0.6620 c         1 I03      0.652700
     26 O4          5.0330   12.9210   -0.4840 os        1 I03     -0.446900
     27 O5          4.2030   14.6050    0.7440 o         1 I03     -0.545000
     28 C19         5.2740   13.8240   -1.5720 c3        1 I03      0.092400
     29 C20         6.7990   14.0730   -1.7420 c3        1 I03      0.126200
     30 N3          7.6010   12.8610   -1.5660 n3        1 I03     -0.890800
     31 C21         6.9780   14.6220   -3.1840 c3        1 I03      0.137400
     32 C22         7.2510   15.1550   -0.7300 c3        1 I03     -0.034100
     33 C23         6.3470   19.2100   -1.8050 ca        1 I03     -0.128000
     34 C24         5.4320   18.4640   -1.0640 ca        1 I03     -0.130500
     35 C25         5.7160   17.1420   -0.7220 ca        1 I03     -0.129000
     36 C26         6.9180   16.5510   -1.1270 ca        1 I03     -0.090300
     37 C27         7.8400   17.3110   -1.8610 ca        1 I03     -0.129000
     38 C28         7.5530   18.6320   -2.2000 ca        1 I03     -0.130500
     39 O6          6.6440   13.6630   -4.1660 oh        1 I03     -0.603800
     40 H1          8.2660    8.0980    0.1450 ha        1 I03      0.140000
     41 H3          4.8900    5.4620   -0.4730 ha        1 I03      0.140000
     42 H4          5.5320    5.1970   -2.8700 ha        1 I03      0.151000
     43 H6          8.9060    7.8510   -2.2540 ha        1 I03      0.151000
     44 H7          5.2390    6.2790    1.6350 h1        1 I03      0.096700
     45 HN1         6.4390    9.0040    1.5890 hn        1 I03      0.312500
     46 H10         4.9170   10.7160    0.4650 ha        1 I03      0.163000
     47 H12         3.4630   13.8470    3.0560 ha        1 I03      0.168000
     48 H14         3.5670    9.6930    4.4480 ha        1 I03      0.189000
     49 H151        0.0230   11.7800    4.7420 h1        1 I03      0.124367
     50 H152        0.9580   10.3870    4.1050 h1        1 I03      0.124367
     51 H153       -0.0800   10.1850    5.5440 h1        1 I03      0.124367
     52 H161        2.5080   14.3150    5.0400 h1        1 I03      0.058367
     53 H162        4.2350   13.8390    5.3850 h1        1 I03      0.058367
     54 H163        2.9660   13.6770    6.6880 h1        1 I03      0.058367
     55 H171        8.2110    7.0270    2.2000 hc        1 I03      0.047033
     56 H172        6.9880    6.4250    3.3980 hc        1 I03      0.047033
     57 H173        7.5190    5.3600    2.0280 hc        1 I03      0.047033
     58 H191        4.7350   14.7960   -1.4320 h1        1 I03      0.086200
     59 H192        4.8750   13.2770   -2.4690 h1        1 I03      0.086200
     60 HN31        7.2140   12.1300   -2.1340 hn        1 I03      0.350300
     61 HN32        7.5590   12.5720   -0.6070 hn        1 I03      0.350300
     62 H211        6.2540   15.4660   -3.3480 h1        1 I03      0.061200
     63 H212        8.0280   14.9910   -3.3170 h1        1 I03      0.061200
     64 H221        6.7600   14.9240    0.2560 hc        1 I03      0.060200
     65 H222        8.3630   15.0820   -0.5820 hc        1 I03      0.060200
     66 H28         8.2820   19.2190   -2.7770 ha        1 I03      0.132500
     67 H27         8.7970   16.8620   -2.1670 ha        1 I03      0.144000
     68 H25         4.9940   16.5640   -0.1210 ha        1 I03      0.144000
     69 H24         4.4830   18.9180   -0.7430 ha        1 I03      0.132500
     70 HO6         7.3970   13.0670   -4.2610 ho        1 I03      0.405000
     71 H23         6.1220   20.2530   -2.0730 ha        1 I03      0.132000
@<TRIPOS>BOND
     1    1    2 ar  
     2    1    6 ar  
     3    1   40 1   
     4    2    3 ar  
     5    2    7 1   
     6    3    4 ar  
     7    3   41 1   
     8    4    5 ar  
     9    4   42 1   
    10    5    6 ar  
    11    5   24 1   
    12    6   43 1   
    13    7    8 1   
    14    7   23 1   
    15    7   44 1   
    16    8    9 1   
    17    8   45 1   
    18    9   10 1   
    19    9   20 2   
    20   10   11 ar  
    21   10   15 ar  
    22   11   12 ar  
    23   11   46 1   
    24   12   13 ar  
    25   12   25 1   
    26   13   14 ar  
    27   13   47 1   
    28   14   15 ar  
    29   14   16 1   
    30   15   48 1   
    31   16   17 1   
    32   16   19 1   
    33   17   18 1   
    34   17   21 2   
    35   17   22 2   
    36   18   49 1   
    37   18   50 1   
    38   18   51 1   
    39   19   52 1   
    40   19   53 1   
    41   19   54 1   
    42   23   55 1   
    43   23   56 1   
    44   23   57 1   
    45   25   26 1   
    46   25   27 2   
    47   26   28 1   
    48   28   29 1   
    49   28   58 1   
    50   28   59 1   
    51   29   30 1   
    52   29   31 1   
    53   29   32 1   
    54   30   60 1   
    55   30   61 1   
    56   31   39 1   
    57   31   62 1   
    58   31   63 1   
    59   32   36 1   
    60   32   64 1   
    61   32   65 1   
    62   33   34 ar  
    63   33   38 ar  
    64   33   71 1   
    65   34   35 ar  
    66   34   69 1   
    67   35   36 ar  
    68   35   68 1   
    69   36   37 ar  
    70   37   38 ar  
    71   37   67 1   
    72   38   66 1   
    73   39   70 1   
@<TRIPOS>SUBSTRUCTURE
     1 I03         1 TEMP              0 ****  ****    0 ROOT
