@<TRIPOS>MOLECULE
I03
   73    75     1     0     0
SMALL
bcc


@<TRIPOS>ATOM
      1 C1          4.7480    3.1850   -0.6420 ca        1 I03     -0.072500
      2 C2          3.9300    2.5250    0.2840 ca        1 I03     -0.218300
      3 C3          4.4700    2.0750    1.4970 ca        1 I03     -0.072500
      4 C4          5.8110    2.2860    1.7910 ca        1 I03     -0.161500
      5 C5          6.6320    2.9500    0.8560 ca        1 I03      0.192900
      6 C6          6.0930    3.3990   -0.3680 ca        1 I03     -0.161500
      7 C7          2.4730    2.3210    0.0130 c3        1 I03      0.211800
      8 N1          2.3250    1.3390   -1.1460 ny        1 I03     -0.685800
      9 C8          0.9680    0.6870   -1.2040 c         1 I03      0.568700
     10 C9          0.3150    0.6910   -2.5230 ca        1 I03     -0.176600
     11 C10        -1.0810    0.7560   -2.6000 ca        1 I03     -0.026000
     12 C11        -1.6760    0.8780   -3.8600 ca        1 I03     -0.124600
     13 C12        -0.9020    1.0170   -5.0190 ca        1 I03     -0.051000
     14 C13         0.5090    0.9600   -4.9400 ca        1 I03      0.174600
     15 C14         1.0910    0.6700   -3.6850 ca        1 I03     -0.094000
     16 N2          1.3390    1.2180   -6.0370 nh        1 I03     -0.667900
     17 S1          2.7860    2.0450   -5.8780 s6        1 I03      1.465900
     18 C15         2.4830    3.4950   -6.6620 c3        1 I03     -0.391300
     19 C16         0.8990    0.7850   -7.3370 c3        1 I03      0.179100
     20 O1          0.5140    0.2370   -0.1590 o         1 I03     -0.423100
     21 O2          3.8000    1.3360   -6.5220 o         1 I03     -0.652300
     22 O3          2.9830    2.2910   -4.4880 o         1 I03     -0.652300
     23 C17         1.7590    3.6310   -0.2850 c3        1 I03     -0.126100
     24 F1          7.9340    3.1570    1.1310 f         1 I03     -0.098900
     25 C18        -3.1390    0.9440   -4.0110 c         1 I03      0.654700
     26 O4         -3.8490    0.4260   -2.9440 os        1 I03     -0.478900
     27 O5         -3.7810    1.3800   -4.9640 o         1 I03     -0.491000
     28 C19        -5.2440    0.7230   -2.8540 c3        1 I03      0.111400
     29 C20        -6.1100   -0.5390   -3.0950 c3        1 I03      0.117200
     30 N3         -5.5240   -1.7080   -2.3230 nz        1 I03     -0.836600
     31 C21        -7.5300   -0.2350   -2.5470 c3        1 I03      0.113400
     32 C22        -6.1800   -0.8870   -4.5990 c3        1 I03     -0.041100
     33 C23        -9.1970    1.2410   -6.7750 ca        1 I03     -0.092000
     34 C24        -7.9290    1.8000   -6.6120 ca        1 I03     -0.116500
     35 C25        -6.9490    1.1180   -5.8920 ca        1 I03     -0.124000
     36 C26        -7.2370   -0.1270   -5.3200 ca        1 I03     -0.144300
     37 C27        -8.5080   -0.6910   -5.4970 ca        1 I03     -0.124000
     38 C28        -9.4830   -0.0070   -6.2200 ca        1 I03     -0.116500
     39 O6         -7.4200   -0.1400   -1.1370 oh        1 I03     -0.645800
     40 H1          4.3320    3.5500   -1.5950 ha        1 I03      0.146500
     41 H3          3.8330    1.5620    2.2360 ha        1 I03      0.146500
     42 H4          6.2400    1.9440    2.7470 ha        1 I03      0.178500
     43 H6          6.7420    3.9190   -1.0910 ha        1 I03      0.178500
     44 H7          1.9790    1.8220    0.9040 hx        1 I03      0.116700
     45 HN1         2.5230    1.8400   -2.0280 hn        1 I03      0.475300
     46 H10        -1.6980    0.7230   -1.6860 ha        1 I03      0.176000
     47 H12        -1.4050    1.1820   -5.9900 ha        1 I03      0.188000
     48 H14         2.1700    0.4390   -3.6290 ha        1 I03      0.170000
     49 H151        2.0380    3.3930   -7.6860 h1        1 I03      0.143367
     50 H152        1.8100    4.1910   -6.1010 h1        1 I03      0.143367
     51 H153        3.4390    4.0680   -6.8240 h1        1 I03      0.143367
     52 H161        1.8000    0.6440   -7.9990 h1        1 I03      0.068700
     53 H162        0.3580   -0.1970   -7.2740 h1        1 I03      0.068700
     54 H163        0.2110    1.5440   -7.8000 h1        1 I03      0.068700
     55 H171        0.6650    3.4700   -0.4360 hc        1 I03      0.076700
     56 H172        2.1850    4.1440   -1.1820 hc        1 I03      0.076700
     57 H173        1.9000    4.3060    0.5980 hc        1 I03      0.076700
     58 H191       -5.3890    1.0930   -1.8000 h1        1 I03      0.118200
     59 H192       -5.5600    1.5060   -3.5970 h1        1 I03      0.118200
     60 HN31       -6.0310   -2.5650   -2.5530 hn        1 I03      0.464467
     61 HN32       -4.5350   -1.8090   -2.5630 hn        1 I03      0.464467
     62 H211       -8.2400   -1.0590   -2.8290 h1        1 I03      0.085700
     63 H212       -7.8830    0.7330   -2.9960 h1        1 I03      0.085700
     64 H221       -6.3760   -1.9860   -4.7380 hc        1 I03      0.073200
     65 H222       -5.1760   -0.6560   -5.0530 hc        1 I03      0.073200
     66 H28       -10.4790   -0.4580   -6.3610 ha        1 I03      0.156000
     67 H27        -8.7360   -1.6850   -5.0840 ha        1 I03      0.138000
     68 H24        -7.6970    2.7780   -7.0630 ha        1 I03      0.156000
     69 HO6        -8.2580    0.2070   -0.8000 ho        1 I03      0.462000
     70 H23        -9.9690    1.7780   -7.3500 ha        1 I03      0.160000
     71 H121        3.0360    0.6060   -1.0260 hn        1 I03      0.475300
     72 H33        -5.6190   -1.5140   -1.3180 hn        1 I03      0.464467
     73 H25        -5.9400    1.5520   -5.7970 ha        1 I03      0.138000
@<TRIPOS>BOND
     1    1    2 ar  
     2    1    6 ar  
     3    1   40 1   
     4    2    3 ar  
     5    2    7 1   
     6    3    4 ar  
     7    3   41 1   
     8    4    5 ar  
     9    4   42 1   
    10    5    6 ar  
    11    5   24 1   
    12    6   43 1   
    13    7    8 1   
    14    7   23 1   
    15    7   44 1   
    16    8    9 1   
    17    8   45 1   
    18    8   71 1   
    19    9   10 1   
    20    9   20 2   
    21   10   11 ar  
    22   10   15 ar  
    23   11   12 ar  
    24   11   46 1   
    25   12   13 ar  
    26   12   25 1   
    27   13   14 ar  
    28   13   47 1   
    29   14   15 ar  
    30   14   16 1   
    31   15   48 1   
    32   16   17 1   
    33   16   19 1   
    34   17   18 1   
    35   17   21 2   
    36   17   22 2   
    37   18   49 1   
    38   18   50 1   
    39   18   51 1   
    40   19   52 1   
    41   19   53 1   
    42   19   54 1   
    43   23   55 1   
    44   23   56 1   
    45   23   57 1   
    46   25   26 1   
    47   25   27 2   
    48   26   28 1   
    49   28   29 1   
    50   28   58 1   
    51   28   59 1   
    52   29   30 1   
    53   29   31 1   
    54   29   32 1   
    55   30   60 1   
    56   30   61 1   
    57   30   72 1   
    58   31   39 1   
    59   31   62 1   
    60   31   63 1   
    61   32   36 1   
    62   32   64 1   
    63   32   65 1   
    64   33   34 ar  
    65   33   38 ar  
    66   33   70 1   
    67   34   35 ar  
    68   34   68 1   
    69   35   36 ar  
    70   35   73 1   
    71   36   37 ar  
    72   37   38 ar  
    73   37   67 1   
    74   38   66 1   
    75   39   69 1   
@<TRIPOS>SUBSTRUCTURE
     1 I03         1 TEMP              0 ****  ****    0 ROOT
