@<TRIPOS>MOLECULE
I04
   66    69     1     0     0
SMALL
bcc


@<TRIPOS>ATOM
      1 F96         0.8760   -1.2460   -1.1640 f         1 I04     -0.119900
      2 C76         2.1670   -1.0880   -0.7980 ca        1 I04      0.157900
      3 C75         2.6340   -1.6470    0.4200 ca        1 I04      0.083100
      4 O95         1.6760   -2.3040    1.1580 os        1 I04     -0.309900
      5 C98         2.1540   -3.1070    2.2370 c3        1 I04      0.107700
      6 C74         3.9720   -1.4880    0.7980 ca        1 I04     -0.117000
      7 C73         4.8440   -0.7590   -0.0040 ca        1 I04     -0.171000
      8 C72         4.3850   -0.1930   -1.1990 ca        1 I04      0.142100
      9 O92         5.1870    0.5900   -2.0010 oh        1 I04     -0.522100
     10 C71         3.0540   -0.3650   -1.6200 ca        1 I04     -0.221600
     11 C61         2.6190    0.1540   -2.9330 c         1 I04      0.601300
     12 O62         2.7470   -0.4460   -3.9950 o         1 I04     -0.432100
     13 C54         1.9990    1.5160   -2.8960 ca        1 I04     -0.033600
     14 C55         0.6150    1.6560   -2.7600 ca        1 I04     -0.097500
     15 C56         0.0390    2.9220   -2.7850 ca        1 I04     -0.055500
     16 C53         2.8180    2.6510   -3.0190 ca        1 I04     -0.097500
     17 C52         2.2520    3.9160   -3.0550 ca        1 I04     -0.055500
     18 C51         0.8520    4.0630   -2.9620 ca        1 I04     -0.229600
     19 C42         0.1730    5.3380   -3.0210 c         1 I04      0.614700
     20 O43        -0.9620    5.6360   -2.6470 o         1 I04     -0.528100
     21 N41         0.9340    6.5030   -3.6610 n4        1 I04     -0.707800
     22 C37         0.0580    7.4120   -4.4920 c3        1 I04      0.125500
     23 C36         0.7090    7.7060   -5.8600 c3        1 I04     -0.095400
     24 C35        -0.3230    7.6980   -6.9700 c3        1 I04     -0.130400
     25 C34        -1.1800    8.9620   -7.0080 c3        1 I04      0.177800
     26 N33        -1.7520    9.3800   -5.7580 n3        1 I04     -0.873200
     27 C32        -0.8890    9.8160   -4.7340 c3        1 I04      0.206800
     28 C31        -0.2850    8.7320   -3.7520 c3        1 I04      0.043500
     29 N23        -1.2080    8.5160   -2.5820 n4        1 I04     -0.698800
     30 C21        -0.5090    8.5550   -1.2280 c         1 I04      0.606700
     31 O22         0.6380    8.1200   -1.2320 o         1 I04     -0.489100
     32 C14        -1.2710    9.1090   -0.1130 ca        1 I04     -0.173600
     33 C13        -0.5450    9.6070    0.9820 ca        1 I04     -0.189300
     34 C12        -1.2720   10.1340    2.0740 ca        1 I04      0.428200
     35 N11        -2.6130   10.1740    2.1180 nb        1 I04     -0.570000
     36 C16        -3.2960    9.6800    1.0630 ca        1 I04      0.428200
     37 C15        -2.6770    9.1370   -0.0760 ca        1 I04     -0.189300
     38 H981        2.5780   -2.4600    3.0420 h1        1 I04      0.059033
     39 H982        1.2270   -3.6270    2.5930 h1        1 I04      0.059033
     40 H983        2.9110   -3.8450    1.8790 h1        1 I04      0.059033
     41 H74         4.3410   -1.9400    1.7330 ha        1 I04      0.166000
     42 H73         5.8960   -0.6350    0.2970 ha        1 I04      0.159000
     43 H92         6.1120    0.3750   -1.8000 ho        1 I04      0.445000
     44 H55        -0.0200    0.7590   -2.6270 ha        1 I04      0.195500
     45 H56        -1.0540    3.0350   -2.6790 ha        1 I04      0.150000
     46 H53         3.9160    2.5190   -3.0770 ha        1 I04      0.195500
     47 H52         2.9240    4.7850   -3.1240 ha        1 I04      0.150000
     48 H41         1.6690    6.1050   -4.2640 hn        1 I04      0.473300
     49 H37        -0.9010    6.8350   -4.6880 hx        1 I04      0.123700
     50 H361        1.2470    8.6900   -5.8300 hc        1 I04      0.083700
     51 H362        1.4790    6.9250   -6.1150 hc        1 I04      0.083700
     52 H351        0.2170    7.6260   -7.9550 hc        1 I04      0.084700
     53 H352       -0.9730    6.7870   -6.8900 hc        1 I04      0.084700
     54 H341       -0.5520    9.8140   -7.4050 h1        1 I04      0.093200
     55 H342       -2.0290    8.8010   -7.7360 h1        1 I04      0.093200
     56 H33        -2.5810    8.9070   -5.4790 hn        1 I04      0.407800
     57 H321       -1.4290   10.5850   -4.1050 h1        1 I04      0.095700
     58 H322        0.0070   10.3360   -5.1890 h1        1 I04      0.095700
     59 H31         0.6660    9.1940   -3.3430 hx        1 I04      0.123700
     60 H23        -1.6880    7.6050   -2.6640 hn        1 I04      0.477300
     61 H13         0.5560    9.5890    1.0000 ha        1 I04      0.163000
     62 H12        -0.7410   10.5420    2.9590 h4        1 I04      0.073600
     63 H16        -4.4020    9.7210    1.1450 h4        1 I04      0.073600
     64 H15        -3.3070    8.7260   -0.8750 ha        1 I04      0.163000
     65 H412        1.3970    7.0350   -2.9110 hn        1 I04      0.473300
     66 H232       -1.9290    9.2530   -2.5880 hn        1 I04      0.477300
@<TRIPOS>BOND
     1    1    2 1   
     2    2    3 ar  
     3    2   10 ar  
     4    3    4 1   
     5    3    6 ar  
     6    4    5 1   
     7    5   38 1   
     8    5   39 1   
     9    5   40 1   
    10    6    7 ar  
    11    6   41 1   
    12    7    8 ar  
    13    7   42 1   
    14    8    9 1   
    15    8   10 ar  
    16    9   43 1   
    17   10   11 1   
    18   11   12 2   
    19   11   13 1   
    20   13   14 ar  
    21   13   16 ar  
    22   14   15 ar  
    23   14   44 1   
    24   15   18 ar  
    25   15   45 1   
    26   16   17 ar  
    27   16   46 1   
    28   17   18 ar  
    29   17   47 1   
    30   18   19 1   
    31   19   20 2   
    32   19   21 1   
    33   21   22 1   
    34   21   48 1   
    35   21   65 1   
    36   22   23 1   
    37   22   28 1   
    38   22   49 1   
    39   23   24 1   
    40   23   50 1   
    41   23   51 1   
    42   24   25 1   
    43   24   52 1   
    44   24   53 1   
    45   25   26 1   
    46   25   54 1   
    47   25   55 1   
    48   26   27 1   
    49   26   56 1   
    50   27   28 1   
    51   27   57 1   
    52   27   58 1   
    53   28   29 1   
    54   28   59 1   
    55   29   30 1   
    56   29   60 1   
    57   29   66 1   
    58   30   31 2   
    59   30   32 1   
    60   32   33 ar  
    61   32   37 ar  
    62   33   34 ar  
    63   33   61 1   
    64   34   35 ar  
    65   34   62 1   
    66   35   36 ar  
    67   36   37 ar  
    68   36   63 1   
    69   37   64 1   
@<TRIPOS>SUBSTRUCTURE
     1 I04         1 TEMP              0 ****  ****    0 ROOT
