@<TRIPOS>MOLECULE
I04
   64    61     1     0     0
SMALL
bcc


@<TRIPOS>ATOM
      1 F96         2.7820   -4.3050    2.4640 f         1 I04     -0.080000
      2 C76         1.4860   -4.7520    2.7160 c2        1 I04      0.126000
      3 C75         1.0300   -4.8840    4.0470 c1        1 I04      0.010000
      4 O95         1.9080   -4.6100    5.1330 o         1 I04     -0.195000
      5 C98         1.6010   -3.4400    5.8340 c3        1 I04     -0.078000
      6 C74        -0.2530   -5.3810    4.2970 c2        1 I04     -0.129000
      7 C73        -1.0710   -5.7430    3.2450 c1        1 I04     -0.196000
      8 C72        -0.6010   -5.6070    1.8980 c1        1 I04      0.105000
      9 O92        -1.4120   -6.0290    0.8180 oh        1 I04     -0.241000
     10 C71         0.6600   -5.1180    1.6520 c2        1 I04     -0.175000
     11 C61         1.1900   -5.0610    0.2140 c2        1 I04      0.332000
     12 O62         1.7860   -6.0780   -0.2870 o         1 I04     -0.254000
     13 C54         1.1860   -3.6800   -0.5720 c2        1 I04     -0.119000
     14 C55         1.4490   -2.4760    0.1230 c2        1 I04     -0.092000
     15 C56         1.3020   -1.2580   -0.5150 c1        1 I04     -0.120000
     16 C53         0.7750   -3.6360   -1.9110 c1        1 I04     -0.082000
     17 C52         0.6220   -2.3910   -2.5680 c1        1 I04     -0.092000
     18 C51         0.8800   -1.2160   -1.8870 c1        1 I04     -0.098000
     19 C42         0.7060    0.1080   -2.5900 c2        1 I04      0.344000
     20 O43         0.3290    0.1350   -3.8110 o         1 I04     -0.383000
     21 N41         1.0160    1.3520   -1.9000 n         1 I04     -0.366000
     22 C37         0.8880    2.6370   -2.6180 c3        1 I04      0.021000
     23 C36         2.2450    3.2330   -2.8170 c3        1 I04     -0.166000
     24 C35         2.1880    4.3450   -3.7930 c3        1 I04     -0.155000
     25 C34         1.1090    5.3190   -3.4250 c3        1 I04     -0.068000
     26 N33        -0.1460    4.8440   -3.8270 n3        1 I04     -0.317000
     27 C32        -0.8710    4.3940   -2.7400 c3        1 I04     -0.081000
     28 C31        -0.0050    3.5750   -1.8230 c3        1 I04      0.006000
     29 N23        -0.8580    2.7890   -0.9330 n         1 I04     -0.373000
     30 C21        -1.5190    3.4260    0.1910 c2        1 I04      0.342000
     31 O22        -1.3730    4.5630    0.3820 o         1 I04     -0.373000
     32 C14        -2.4590    2.6230    1.0790 c2        1 I04     -0.082000
     33 C13        -2.2610    2.5910    2.4300 c2        1 I04     -0.133000
     34 C12        -3.1850    1.9930    3.2430 c1        1 I04     -0.081000
     35 N11        -4.2770    1.4420    2.7190 n1        1 I04     -0.125000
     36 C16        -4.4780    1.4740    1.3550 c1        1 I04     -0.077000
     37 C15        -3.5660    2.0650    0.5490 c1        1 I04     -0.151000
     38 H981        1.7280   -2.6190    5.2110 h1        1 I04      0.087000
     39 H982        0.6540   -3.4770    6.1490 h1        1 I04      0.087000
     40 H983        2.1780   -3.3600    6.5840 h1        1 I04      0.087000
     41 H74        -0.5770   -5.4740    5.2370 ha        1 I04      0.149000
     42 H73        -1.9440   -6.0790    3.4140 ha        1 I04      0.145000
     43 H92        -2.2200   -5.6150    0.8660 ho        1 I04      0.227000
     44 H55         1.7410   -2.5070    1.0720 ha        1 I04      0.146000
     45 H56         1.4830   -0.4330   -0.0370 ha        1 I04      0.139000
     46 H53         0.5930   -4.4700   -2.3930 ha        1 I04      0.159000
     47 H52         0.3220   -2.3620   -3.5480 ha        1 I04      0.160000
     48 H41         1.3850    1.3320   -1.0530 hn        1 I04      0.227000
     49 H37         0.4480    2.4640   -3.5530 h1        1 I04      0.135000
     50 H361        2.5810    3.5770   -1.9460 hc        1 I04      0.087000
     51 H362        2.8180    2.5880   -3.1270 hc        1 I04      0.087000
     52 H351        3.0560    4.8090   -3.8080 hc        1 I04      0.091500
     53 H352        1.9970    3.9740   -4.6980 hc        1 I04      0.091500
     54 H341        1.1100    5.4420   -2.4460 h1        1 I04      0.071500
     55 H342        1.2960    6.2300   -3.8820 h1        1 I04      0.071500
     56 H33        -0.6440    5.5640   -4.2800 hn        1 I04      0.166000
     57 H321       -1.2050    5.1300   -2.2700 h1        1 I04      0.078500
     58 H322       -1.6770    3.7980   -3.0770 h1        1 I04      0.078500
     59 H31         0.5660    4.1900   -1.2740 h1        1 I04      0.127000
     60 H23        -0.9910    1.9300   -1.0960 hn        1 I04      0.249000
     61 H13        -1.4860    2.9850    2.8050 ha        1 I04      0.165000
     62 H12        -3.0410    1.9700    4.2230 ha        1 I04      0.163000
     63 H16        -5.2580    1.0800    0.9810 ha        1 I04      0.165000
     64 H15        -3.7110    2.0890   -0.4270 ha        1 I04      0.152000
@<TRIPOS>BOND
     1    1    2 1   
     2    2    3 1   
     3    2   10 1   
     4    3    6 1   
     5    4    5 1   
     6    5   38 1   
     7    5   39 1   
     8    5   40 1   
     9    6    7 1   
    10    6   41 1   
    11    7   42 1   
    12    8    9 1   
    13    8   10 1   
    14    9   43 1   
    15   10   11 1   
    16   11   12 1   
    17   11   13 1   
    18   13   14 1   
    19   13   16 1   
    20   14   15 1   
    21   14   44 1   
    22   15   45 1   
    23   16   46 1   
    24   17   18 1   
    25   17   47 1   
    26   18   19 1   
    27   19   20 1   
    28   19   21 1   
    29   21   22 1   
    30   21   48 1   
    31   22   23 1   
    32   22   28 1   
    33   22   49 1   
    34   23   24 1   
    35   23   50 1   
    36   23   51 1   
    37   24   25 1   
    38   24   52 1   
    39   24   53 1   
    40   25   26 1   
    41   25   54 1   
    42   25   55 1   
    43   26   27 1   
    44   26   56 1   
    45   27   28 1   
    46   27   57 1   
    47   27   58 1   
    48   28   29 1   
    49   28   59 1   
    50   29   30 1   
    51   29   60 1   
    52   30   31 1   
    53   30   32 1   
    54   32   33 1   
    55   32   37 1   
    56   33   34 1   
    57   33   61 1   
    58   34   62 1   
    59   35   36 1   
    60   36   63 1   
    61   37   64 1   
@<TRIPOS>SUBSTRUCTURE
     1 I04         1 TEMP              0 ****  ****    0 ROOT
