@<TRIPOS>MOLECULE
I04
   66    69     1     0     0
SMALL
bcc


@<TRIPOS>ATOM
      1 F96         0.9770   -1.2060   -1.2000 f         1 I04     -0.119900
      2 C76         2.2560   -1.0410   -0.7970 ca        1 I04      0.157900
      3 C75         2.6960   -1.6140    0.4260 ca        1 I04      0.083100
      4 O95         1.7240   -2.2900    1.1270 os        1 I04     -0.309900
      5 C98         2.1800   -3.1020    2.2100 c3        1 I04      0.107700
      6 C74         4.0210   -1.4480    0.8430 ca        1 I04     -0.117000
      7 C73         4.9070   -0.7000    0.0750 ca        1 I04     -0.171000
      8 C72         4.4760   -0.1210   -1.1250 ca        1 I04      0.141100
      9 O92         5.2930    0.6810   -1.8930 oh        1 I04     -0.521100
     10 C71         3.1580   -0.2980   -1.5830 ca        1 I04     -0.220600
     11 C61         2.7540    0.2370   -2.9000 c         1 I04      0.601300
     12 O62         2.9150   -0.3460   -3.9670 o         1 I04     -0.433100
     13 C54         2.1210    1.5930   -2.8600 ca        1 I04     -0.036600
     14 C55         0.7330    1.7190   -2.7560 ca        1 I04     -0.097500
     15 C56         0.1460    2.9810   -2.7780 ca        1 I04     -0.057000
     16 C53         2.9330    2.7370   -2.9460 ca        1 I04     -0.097500
     17 C52         2.3570    3.9970   -2.9780 ca        1 I04     -0.057000
     18 C51         0.9540    4.1300   -2.9180 ca        1 I04     -0.228600
     19 C42         0.2660    5.4020   -2.9750 c         1 I04      0.614700
     20 O43        -0.8730    5.6920   -2.6100 o         1 I04     -0.523100
     21 N41         1.0260    6.5750   -3.6020 n4        1 I04     -0.706800
     22 C37         0.1500    7.4630   -4.4550 c3        1 I04      0.126500
     23 C36         0.7910    7.7350   -5.8300 c3        1 I04     -0.092400
     24 C35        -0.2600    7.7440   -6.9230 c3        1 I04     -0.092400
     25 C34        -1.1610    8.9760   -6.9360 c3        1 I04      0.150800
     26 N33        -1.6940    9.3400   -5.6350 n3        1 I04     -0.862200
     27 C32        -0.7190    9.8730   -4.7260 c3        1 I04      0.155800
     28 C31        -0.2120    8.7870   -3.7220 c3        1 I04      0.111500
     29 N23        -1.2450    8.5590   -2.6460 n4        1 I04     -0.692800
     30 C21        -0.6700    8.5310   -1.2370 c         1 I04      0.605700
     31 O22         0.4850    8.1240   -1.1630 o         1 I04     -0.490100
     32 C14        -1.5440    8.9970   -0.1640 ca        1 I04     -0.173600
     33 C13        -0.9340    9.4270    1.0260 ca        1 I04     -0.189300
     34 C12        -1.7690    9.8670    2.0780 ca        1 I04      0.426700
     35 N11        -3.1090    9.8860    1.9970 nb        1 I04     -0.572000
     36 C16        -3.6800    9.4570    0.8520 ca        1 I04      0.426700
     37 C15        -2.9470    9.0040   -0.2590 ca        1 I04     -0.189300
     38 H981        1.2490   -3.6360    2.5330 h1        1 I04      0.058700
     39 H982        2.5750   -2.4600    3.0350 h1        1 I04      0.058700
     40 H983        2.9540   -3.8280    1.8650 h1        1 I04      0.058700
     41 H74         4.3690   -1.9090    1.7810 ha        1 I04      0.166000
     42 H73         5.9490   -0.5700    0.4060 ha        1 I04      0.159000
     43 H92         6.2130    0.4730   -1.6680 ho        1 I04      0.445000
     44 H55         0.1030    0.8150   -2.6520 ha        1 I04      0.195000
     45 H56        -0.9500    3.0830   -2.6970 ha        1 I04      0.150000
     46 H53         4.0320    2.6150   -2.9780 ha        1 I04      0.195000
     47 H52         3.0210    4.8730   -3.0170 ha        1 I04      0.150000
     48 H41         1.4560    7.1170   -2.8390 hn        1 I04      0.471300
     49 H37        -0.8060    6.8750   -4.6520 hx        1 I04      0.137700
     50 H361        1.3650    8.6970   -5.8150 hc        1 I04      0.080700
     51 H362        1.5290    6.9240   -6.0900 hc        1 I04      0.080700
     52 H351        0.2690    7.7090   -7.9170 hc        1 I04      0.085200
     53 H352       -0.8880    6.8160   -6.8530 hc        1 I04      0.085200
     54 H341       -2.0400    8.7550   -7.6110 h1        1 I04      0.076700
     55 H342       -0.5860    9.8330   -7.3980 h1        1 I04      0.076700
     56 H33        -2.4810    9.9540   -5.7380 hn        1 I04      0.413800
     57 H321        0.2050   10.2740   -5.2410 h1        1 I04      0.085200
     58 H322       -1.1460   10.7360   -4.1340 h1        1 I04      0.085200
     59 H31         0.7070    9.2240   -3.2230 hx        1 I04      0.119700
     60 H23        -1.9500    9.3080   -2.6960 hn        1 I04      0.480300
     61 H13         0.1610    9.4220    1.1470 ha        1 I04      0.163000
     62 H12        -1.3320   10.2190    3.0350 h4        1 I04      0.073100
     63 H16        -4.7900    9.4770    0.8310 h4        1 I04      0.073100
     64 H15        -3.4910    8.6420   -1.1410 ha        1 I04      0.163000
     65 H412        1.7830    6.1910   -4.1840 hn        1 I04      0.471300
     66 H232       -1.7330    7.6620   -2.8090 hn        1 I04      0.480300
@<TRIPOS>BOND
     1    1    2 1   
     2    2    3 ar  
     3    2   10 ar  
     4    3    4 1   
     5    3    6 ar  
     6    4    5 1   
     7    5   38 1   
     8    5   39 1   
     9    5   40 1   
    10    6    7 ar  
    11    6   41 1   
    12    7    8 ar  
    13    7   42 1   
    14    8    9 1   
    15    8   10 ar  
    16    9   43 1   
    17   10   11 1   
    18   11   12 2   
    19   11   13 1   
    20   13   14 ar  
    21   13   16 ar  
    22   14   15 ar  
    23   14   44 1   
    24   15   18 ar  
    25   15   45 1   
    26   16   17 ar  
    27   16   46 1   
    28   17   18 ar  
    29   17   47 1   
    30   18   19 1   
    31   19   20 2   
    32   19   21 1   
    33   21   22 1   
    34   21   48 1   
    35   21   65 1   
    36   22   23 1   
    37   22   28 1   
    38   22   49 1   
    39   23   24 1   
    40   23   50 1   
    41   23   51 1   
    42   24   25 1   
    43   24   52 1   
    44   24   53 1   
    45   25   26 1   
    46   25   54 1   
    47   25   55 1   
    48   26   27 1   
    49   26   56 1   
    50   27   28 1   
    51   27   57 1   
    52   27   58 1   
    53   28   29 1   
    54   28   59 1   
    55   29   30 1   
    56   29   60 1   
    57   29   66 1   
    58   30   31 2   
    59   30   32 1   
    60   32   33 ar  
    61   32   37 ar  
    62   33   34 ar  
    63   33   61 1   
    64   34   35 ar  
    65   34   62 1   
    66   35   36 ar  
    67   36   37 ar  
    68   36   63 1   
    69   37   64 1   
@<TRIPOS>SUBSTRUCTURE
     1 I04         1 TEMP              0 ****  ****    0 ROOT
