@<TRIPOS>MOLECULE
I04
   66    69     1     0     0
SMALL
bcc


@<TRIPOS>ATOM
      1 F96         1.0530   -1.0960    0.0250 f         1 I04     -0.119900
      2 C76         2.3800   -1.1200   -0.2290 ca        1 I04      0.157900
      3 C75         3.2930   -1.4890    0.7930 ca        1 I04      0.084100
      4 O95         2.7140   -1.7720    2.0090 os        1 I04     -0.309900
      5 C98         3.5540   -2.4060    2.9740 c3        1 I04      0.107700
      6 C74         4.6670   -1.5180    0.5300 ca        1 I04     -0.117000
      7 C73         5.1470   -1.1620   -0.7250 ca        1 I04     -0.170000
      8 C72         4.2520   -0.7840   -1.7340 ca        1 I04      0.141100
      9 O92         4.6750   -0.3600   -2.9750 oh        1 I04     -0.522100
     10 C71         2.8640   -0.7770   -1.5070 ca        1 I04     -0.221600
     11 C61         1.9340   -0.4760   -2.6150 c         1 I04      0.600300
     12 O62         1.5240   -1.3020   -3.4230 o         1 I04     -0.430100
     13 C54         1.5120    0.9570   -2.7060 ca        1 I04     -0.030600
     14 C55         0.3440    1.3900   -2.0720 ca        1 I04     -0.097500
     15 C56        -0.0720    2.7110   -2.2080 ca        1 I04     -0.053500
     16 C53         2.2890    1.8600   -3.4530 ca        1 I04     -0.097500
     17 C52         1.8800    3.1760   -3.5980 ca        1 I04     -0.053500
     18 C51         0.6830    3.6130   -2.9900 ca        1 I04     -0.232600
     19 C42         0.1550    4.9530   -3.1140 c         1 I04      0.609700
     20 O43        -0.7770    5.4830   -2.5110 o         1 I04     -0.525100
     21 N41         0.8140    5.8560   -4.1600 ny        1 I04     -0.698800
     22 C37         0.0370    7.1120   -4.4820 c3        1 I04      0.125500
     23 C36         0.4440    7.6250   -5.8740 c3        1 I04     -0.104400
     24 C35        -0.5150    8.6710   -6.4020 c3        1 I04     -0.089400
     25 C34        -0.1450   10.0900   -5.9850 c3        1 I04      0.149800
     26 N33        -0.1790   10.3020   -4.5520 n7        1 I04     -0.871200
     27 C32         0.7640    9.5310   -3.7890 c3        1 I04      0.157800
     28 C31         0.1780    8.1600   -3.3320 c3        1 I04      0.116500
     29 N23        -1.1350    8.3600   -2.6280 ny        1 I04     -0.682800
     30 C21        -0.9980    8.9890   -1.2390 c         1 I04      0.588700
     31 O22         0.1220    8.9540   -0.7510 o         1 I04     -0.427100
     32 C14        -2.2230    9.5550   -0.6740 ca        1 I04     -0.165600
     33 C13        -2.0760   10.4120    0.4300 ca        1 I04     -0.192300
     34 C12        -3.2430   10.9650    1.0020 ca        1 I04      0.425700
     35 N11        -4.4810   10.7090    0.5480 nb        1 I04     -0.577000
     36 C16        -4.6060    9.8770   -0.5070 ca        1 I04      0.425700
     37 C15        -3.5130    9.2740   -1.1550 ca        1 I04     -0.192300
     38 H981        2.8430   -2.6460    3.8060 h1        1 I04      0.059033
     39 H982        4.3450   -1.6980    3.3210 h1        1 I04      0.059033
     40 H983        4.0070   -3.3370    2.5570 h1        1 I04      0.059033
     41 H74         5.3750   -1.8250    1.3170 ha        1 I04      0.167000
     42 H73         6.2290   -1.1860   -0.9290 ha        1 I04      0.160000
     43 H92         5.5670   -0.7130   -3.1240 ho        1 I04      0.446000
     44 H55        -0.2470    0.6810   -1.4620 ha        1 I04      0.196000
     45 H56        -0.9980    3.0520   -1.7130 ha        1 I04      0.148500
     46 H53         3.2310    1.5050   -3.9140 ha        1 I04      0.196000
     47 H52         2.5190    3.8560   -4.1810 ha        1 I04      0.148500
     48 H41         0.9150    5.3060   -5.0250 hn        1 I04      0.469800
     49 H37        -1.0450    6.7740   -4.5730 hx        1 I04      0.113700
     50 H361        1.4930    8.0220   -5.8680 hc        1 I04      0.081700
     51 H362        0.4250    6.7580   -6.5960 hc        1 I04      0.081700
     52 H351       -1.5670    8.4320   -6.0970 hc        1 I04      0.081700
     53 H352       -0.4850    8.6400   -7.5270 hc        1 I04      0.081700
     54 H341       -0.8960   10.8000   -6.4420 h1        1 I04      0.076700
     55 H342        0.8680   10.3390   -6.4210 h1        1 I04      0.076700
     56 H33        -0.1090   11.2810   -4.3380 hn        1 I04      0.419800
     57 H321        1.7260    9.3070   -4.3350 h1        1 I04      0.083700
     58 H322        1.0420   10.0940   -2.8480 h1        1 I04      0.083700
     59 H31         0.8970    7.7740   -2.5420 hx        1 I04      0.117700
     60 H23        -1.6100    7.4540   -2.5080 hn        1 I04      0.477800
     61 H13        -1.0830   10.6470    0.8470 ha        1 I04      0.160500
     62 H12        -3.1740   11.6480    1.8750 h4        1 I04      0.070100
     63 H16        -5.6440    9.6850   -0.8460 h4        1 I04      0.070100
     64 H15        -3.7090    8.5940   -1.9930 ha        1 I04      0.160500
     65 H412        1.7550    6.1010   -3.8330 hn        1 I04      0.469800
     66 H232       -1.7340    8.9760   -3.1980 hn        1 I04      0.477800
@<TRIPOS>BOND
     1    1    2 1   
     2    2    3 ar  
     3    2   10 ar  
     4    3    4 1   
     5    3    6 ar  
     6    4    5 1   
     7    5   38 1   
     8    5   39 1   
     9    5   40 1   
    10    6    7 ar  
    11    6   41 1   
    12    7    8 ar  
    13    7   42 1   
    14    8    9 1   
    15    8   10 ar  
    16    9   43 1   
    17   10   11 1   
    18   11   12 2   
    19   11   13 1   
    20   13   14 ar  
    21   13   16 ar  
    22   14   15 ar  
    23   14   44 1   
    24   15   18 ar  
    25   15   45 1   
    26   16   17 ar  
    27   16   46 1   
    28   17   18 ar  
    29   17   47 1   
    30   18   19 1   
    31   19   20 2   
    32   19   21 1   
    33   21   22 1   
    34   21   48 1   
    35   21   65 1   
    36   22   23 1   
    37   22   28 1   
    38   22   49 1   
    39   23   24 1   
    40   23   50 1   
    41   23   51 1   
    42   24   25 1   
    43   24   52 1   
    44   24   53 1   
    45   25   26 1   
    46   25   54 1   
    47   25   55 1   
    48   26   27 1   
    49   26   56 1   
    50   27   28 1   
    51   27   57 1   
    52   27   58 1   
    53   28   29 1   
    54   28   59 1   
    55   29   30 1   
    56   29   60 1   
    57   29   66 1   
    58   30   31 2   
    59   30   32 1   
    60   32   33 ar  
    61   32   37 ar  
    62   33   34 ar  
    63   33   61 1   
    64   34   35 ar  
    65   34   62 1   
    66   35   36 ar  
    67   36   37 ar  
    68   36   63 1   
    69   37   64 1   
@<TRIPOS>SUBSTRUCTURE
     1 I04         1 TEMP              0 ****  ****    0 ROOT
