@<TRIPOS>MOLECULE
I04
   64    67     1     0     0
SMALL
bcc


@<TRIPOS>ATOM
      1 F96        -3.7780    0.6870   -1.0000 f         1 I04     -0.111900
      2 C76        -4.5590    0.2600    0.0160 ca        1 I04      0.172900
      3 C75        -5.3490    1.2030    0.7220 ca        1 I04      0.047100
      4 O95        -5.1930    2.5110    0.3040 os        1 I04     -0.310900
      5 C98        -6.0720    3.4620    0.8950 c3        1 I04      0.111700
      6 C74        -6.1910    0.7870    1.7570 ca        1 I04     -0.125000
      7 C73        -6.2760   -0.5590    2.0840 ca        1 I04     -0.150000
      8 C72        -5.5060   -1.5030    1.3830 ca        1 I04      0.167100
      9 O92        -5.6650   -2.8030    1.7890 oh        1 I04     -0.497100
     10 C71        -4.6100   -1.1060    0.3700 ca        1 I04     -0.261600
     11 C61        -3.7800   -2.1160   -0.3250 c         1 I04      0.604300
     12 O62        -4.2870   -3.1600   -0.7630 o         1 I04     -0.537100
     13 C54        -2.3250   -1.8730   -0.4340 ca        1 I04     -0.147600
     14 C55        -1.6170   -2.4440   -1.5000 ca        1 I04     -0.082500
     15 C56        -0.2420   -2.2520   -1.6090 ca        1 I04     -0.107000
     16 C53        -1.6430   -1.1150    0.5250 ca        1 I04     -0.082500
     17 C52        -0.2640   -0.9370    0.4270 ca        1 I04     -0.107000
     18 C51         0.4380   -1.5060   -0.6400 ca        1 I04     -0.117600
     19 C42         1.9130   -1.3280   -0.7970 c         1 I04      0.668700
     20 O43         2.4180   -1.0920   -1.9170 o         1 I04     -0.625100
     21 N41         2.6840   -1.4630    0.3340 n         1 I04     -0.558900
     22 C37         4.1330   -1.4360    0.3180 c3        1 I04      0.095700
     23 C36         4.6780   -2.0920    1.6010 c3        1 I04     -0.088400
     24 C35         6.0960   -2.5880    1.4560 c3        1 I04     -0.076400
     25 C34         7.0930   -1.4850    1.1030 c3        1 I04      0.169800
     26 N33         7.0200   -1.0950   -0.2860 n3        1 I04     -0.839200
     27 C32         6.0730   -0.0680   -0.6480 c3        1 I04      0.161800
     28 C31         4.7600    0.0000    0.1850 c3        1 I04      0.084700
     29 N23         3.8830    0.9740   -0.4230 n         1 I04     -0.555900
     30 C21         3.2210    1.9360    0.3080 c         1 I04      0.666700
     31 O22         3.4250    2.0890    1.5320 o         1 I04     -0.614100
     32 C14         2.2850    2.8320   -0.4350 ca        1 I04     -0.106600
     33 C13         2.1760    4.1670   -0.0250 ca        1 I04     -0.210300
     34 C12         1.2900    5.0080   -0.7210 ca        1 I04      0.387700
     35 N11         0.5330    4.5980   -1.7580 nb        1 I04     -0.649000
     36 C16         0.6440    3.3090   -2.1310 ca        1 I04      0.387700
     37 C15         1.5040    2.3860   -1.5060 ca        1 I04     -0.210300
     38 H981       -5.8700    3.5550    1.9900 h1        1 I04      0.048033
     39 H982       -5.8120    4.4140    0.3640 h1        1 I04      0.048033
     40 H983       -7.1380    3.1870    0.7140 h1        1 I04      0.048033
     41 H74        -6.7980    1.5190    2.3100 ha        1 I04      0.150000
     42 H73        -6.9460   -0.9060    2.8850 ha        1 I04      0.162000
     43 H92        -5.3150   -3.3980    1.1060 ho        1 I04      0.447000
     44 H55        -2.1590   -3.0450   -2.2490 ha        1 I04      0.154000
     45 H56         0.3170   -2.6780   -2.4580 ha        1 I04      0.153000
     46 H53        -2.1980   -0.6540    1.3570 ha        1 I04      0.154000
     47 H52         0.2560   -0.3300    1.1850 ha        1 I04      0.153000
     48 H41         2.2370   -1.5280    1.2180 hn        1 I04      0.317500
     49 H37         4.4610   -2.0340   -0.5850 h1        1 I04      0.091700
     50 H361        4.6150   -1.3610    2.4500 hc        1 I04      0.048200
     51 H362        4.0380   -2.9750    1.8770 hc        1 I04      0.048200
     52 H351        6.4160   -3.0350    2.4350 hc        1 I04      0.052700
     53 H352        6.1360   -3.4020    0.6840 hc        1 I04      0.052700
     54 H341        6.9380   -0.6170    1.8080 h1        1 I04      0.031700
     55 H342        8.1290   -1.8900    1.2960 h1        1 I04      0.031700
     56 H33         7.9280   -0.8370   -0.6240 hn        1 I04      0.371800
     57 H321        6.5430    0.9600   -0.5940 h1        1 I04      0.040200
     58 H322        5.8110   -0.2660   -1.7290 h1        1 I04      0.040200
     59 H31         5.0100    0.3730    1.2240 h1        1 I04      0.086700
     60 H23         3.6040    0.7920   -1.3630 hn        1 I04      0.333500
     61 H13         2.7650    4.5380    0.8260 ha        1 I04      0.162500
     62 H12         1.1770    6.0690   -0.4330 h4        1 I04      0.028100
     63 H16         0.0060    2.9970   -2.9780 h4        1 I04      0.028100
     64 H15         1.5370    1.3440   -1.8610 ha        1 I04      0.162500
@<TRIPOS>BOND
     1    1    2 1   
     2    2    3 ar  
     3    2   10 ar  
     4    3    4 1   
     5    3    6 ar  
     6    4    5 1   
     7    5   38 1   
     8    5   39 1   
     9    5   40 1   
    10    6    7 ar  
    11    6   41 1   
    12    7    8 ar  
    13    7   42 1   
    14    8    9 1   
    15    8   10 ar  
    16    9   43 1   
    17   10   11 1   
    18   11   12 2   
    19   11   13 1   
    20   13   14 ar  
    21   13   16 ar  
    22   14   15 ar  
    23   14   44 1   
    24   15   18 ar  
    25   15   45 1   
    26   16   17 ar  
    27   16   46 1   
    28   17   18 ar  
    29   17   47 1   
    30   18   19 1   
    31   19   20 2   
    32   19   21 1   
    33   21   22 1   
    34   21   48 1   
    35   22   23 1   
    36   22   28 1   
    37   22   49 1   
    38   23   24 1   
    39   23   50 1   
    40   23   51 1   
    41   24   25 1   
    42   24   52 1   
    43   24   53 1   
    44   25   26 1   
    45   25   54 1   
    46   25   55 1   
    47   26   27 1   
    48   26   56 1   
    49   27   28 1   
    50   27   57 1   
    51   27   58 1   
    52   28   29 1   
    53   28   59 1   
    54   29   30 1   
    55   29   60 1   
    56   30   31 2   
    57   30   32 1   
    58   32   33 ar  
    59   32   37 ar  
    60   33   34 ar  
    61   33   61 1   
    62   34   35 ar  
    63   34   62 1   
    64   35   36 ar  
    65   36   37 ar  
    66   36   63 1   
    67   37   64 1   
@<TRIPOS>SUBSTRUCTURE
     1 I04         1 TEMP              0 ****  ****    0 ROOT
