@<TRIPOS>MOLECULE
I05
   65    68     1     0     0
SMALL
bcc


@<TRIPOS>ATOM
      1 F96        -0.1600    0.7680    0.5730 f         1 I05     -0.115900
      2 C76         0.7850    0.2710   -0.2550 ca        1 I05      0.164900
      3 C75         1.8480   -0.5090    0.2740 ca        1 I05      0.076100
      4 O95         1.8130   -0.6740    1.6410 os        1 I05     -0.307900
      5 C97         2.8130   -1.5250    2.1980 c3        1 I05      0.108700
      6 C74         2.8240   -1.0340   -0.5770 ca        1 I05     -0.123000
      7 C73         2.7630   -0.7870   -1.9450 ca        1 I05     -0.180000
      8 C72         1.7230   -0.0120   -2.4700 ca        1 I05      0.141100
      9 O92         1.6350    0.2850   -3.8130 oh        1 I05     -0.514100
     10 C71         0.7220    0.5220   -1.6390 ca        1 I05     -0.205600
     11 C61        -0.3960    1.3090   -2.2040 c         1 I05      0.632300
     12 O62        -1.4740    0.8090   -2.5380 o         1 I05     -0.518100
     13 C54        -0.1750    2.7750   -2.3380 ca        1 I05     -0.151600
     14 C55         0.6950    3.2760   -3.3100 ca        1 I05     -0.100500
     15 C56         0.8200    4.6550   -3.4830 ca        1 I05     -0.143500
     16 C53        -0.8770    3.6510   -1.5020 ca        1 I05     -0.100500
     17 C52        -0.7390    5.0270   -1.6690 ca        1 I05     -0.143500
     18 C51         0.0890    5.5340   -2.6790 ca        1 I05     -0.139300
     19 C42         0.1770    7.0130   -2.8870 c3        1 I05      0.163700
     20 O41        -1.0800    7.5420   -3.3120 os        1 I05     -0.432600
     21 C37        -1.4480    7.1870   -4.6490 c3        1 I05      0.128100
     22 C36        -1.1580    8.3420   -5.5990 c3        1 I05     -0.089400
     23 C35        -0.8930    7.8490   -7.0050 c3        1 I05     -0.085400
     24 C34        -2.1280    7.3430   -7.7450 c3        1 I05      0.155800
     25 N33        -2.9460    6.4020   -6.9970 n7        1 I05     -0.849200
     26 C32        -3.6880    6.9970   -5.9120 c3        1 I05      0.148800
     27 C31        -2.9600    6.8610   -4.5560 c3        1 I05      0.121500
     28 N23        -3.1220    5.4800   -3.9740 ny        1 I05     -0.676800
     29 C21        -4.5170    5.1780   -3.4830 c         1 I05      0.566700
     30 O22        -5.2080    6.1300   -3.1470 o         1 I05     -0.418100
     31 C14        -4.8950    3.7570   -3.4790 ca        1 I05     -0.163600
     32 C13        -6.2500    3.4440   -3.6690 ca        1 I05     -0.200300
     33 C12        -6.6230    2.0850   -3.6540 ca        1 I05      0.418200
     34 N11        -5.7520    1.0780   -3.4600 nb        1 I05     -0.604000
     35 C16        -4.4580    1.3970   -3.2640 ca        1 I05      0.418200
     36 C15        -3.9760    2.7220   -3.2650 ca        1 I05     -0.200300
     37 H971        3.8290   -1.0930    2.0340 h1        1 I05      0.054700
     38 H972        2.5570   -1.5340    3.2880 h1        1 I05      0.054700
     39 H973        2.7430   -2.5520    1.7660 h1        1 I05      0.054700
     40 H74         3.6450   -1.6460   -0.1720 ha        1 I05      0.160000
     41 H73         3.5320   -1.2040   -2.6130 ha        1 I05      0.153000
     42 H92         2.2690   -0.2760   -4.2860 ho        1 I05      0.438000
     43 H55         1.2770    2.5770   -3.9370 ha        1 I05      0.167500
     44 H56         1.5050    5.0470   -4.2520 ha        1 I05      0.152500
     45 H53        -1.5180    3.2490   -0.7000 ha        1 I05      0.167500
     46 H52        -1.2550    5.7230   -0.9890 ha        1 I05      0.152500
     47 H421        0.9780    7.2780   -3.6260 h1        1 I05      0.082200
     48 H422        0.3640    7.5480   -1.9130 h1        1 I05      0.082200
     49 H37        -0.8660    6.2810   -4.9890 h1        1 I05      0.068700
     50 H361       -0.2440    8.8760   -5.2180 hc        1 I05      0.071700
     51 H362       -1.9960    9.0850   -5.5860 hc        1 I05      0.071700
     52 H351       -0.1160    7.0400   -6.9780 hc        1 I05      0.062200
     53 H352       -0.4690    8.6960   -7.6090 hc        1 I05      0.062200
     54 H341       -2.7340    8.2400   -8.0710 h1        1 I05      0.052700
     55 H342       -1.7800    6.8120   -8.6780 h1        1 I05      0.052700
     56 H33        -3.5630    5.9190   -7.6240 hn        1 I05      0.387800
     57 H321       -4.7070    6.5190   -5.8250 h1        1 I05      0.068700
     58 H322       -3.8630    8.1050   -6.0560 h1        1 I05      0.068700
     59 H31        -3.4390    7.5820   -3.8230 hx        1 I05      0.133700
     60 H23        -2.8620    4.7870   -4.6860 hn        1 I05      0.470300
     61 H13        -7.0030    4.2320   -3.8150 ha        1 I05      0.165500
     62 H12        -7.6810    1.7910   -3.8010 h4        1 I05      0.066600
     63 H16        -3.7570    0.5530   -3.0900 h4        1 I05      0.066600
     64 H15        -2.9060    2.8890   -3.0640 ha        1 I05      0.165500
     65 H232       -2.4650    5.3930   -3.1780 hn        1 I05      0.470300
@<TRIPOS>BOND
     1    1    2 1   
     2    2    3 ar  
     3    2   10 ar  
     4    3    4 1   
     5    3    6 ar  
     6    4    5 1   
     7    5   37 1   
     8    5   38 1   
     9    5   39 1   
    10    6    7 ar  
    11    6   40 1   
    12    7    8 ar  
    13    7   41 1   
    14    8    9 1   
    15    8   10 ar  
    16    9   42 1   
    17   10   11 1   
    18   11   12 2   
    19   11   13 1   
    20   13   14 ar  
    21   13   16 ar  
    22   14   15 ar  
    23   14   43 1   
    24   15   18 ar  
    25   15   44 1   
    26   16   17 ar  
    27   16   45 1   
    28   17   18 ar  
    29   17   46 1   
    30   18   19 1   
    31   19   20 1   
    32   19   47 1   
    33   19   48 1   
    34   20   21 1   
    35   21   22 1   
    36   21   27 1   
    37   21   49 1   
    38   22   23 1   
    39   22   50 1   
    40   22   51 1   
    41   23   24 1   
    42   23   52 1   
    43   23   53 1   
    44   24   25 1   
    45   24   54 1   
    46   24   55 1   
    47   25   26 1   
    48   25   56 1   
    49   26   27 1   
    50   26   57 1   
    51   26   58 1   
    52   27   28 1   
    53   27   59 1   
    54   28   29 1   
    55   28   60 1   
    56   28   65 1   
    57   29   30 2   
    58   29   31 1   
    59   31   32 ar  
    60   31   36 ar  
    61   32   33 ar  
    62   32   61 1   
    63   33   34 ar  
    64   33   62 1   
    65   34   35 ar  
    66   35   36 ar  
    67   35   63 1   
    68   36   64 1   
@<TRIPOS>SUBSTRUCTURE
     1 I05         1 TEMP              0 ****  ****    0 ROOT
