@<TRIPOS>MOLECULE
I05
   65    68     1     0     0
SMALL
bcc


@<TRIPOS>ATOM
      1 F96        -0.1430    0.7150    0.5410 f         1 I05     -0.115900
      2 C76         0.8150    0.2480   -0.2890 ca        1 I05      0.164900
      3 C75         1.8870   -0.5240    0.2330 ca        1 I05      0.076100
      4 O95         1.8450   -0.7150    1.5960 os        1 I05     -0.307900
      5 C97         2.8550   -1.5590    2.1440 c3        1 I05      0.108700
      6 C74         2.8780   -1.0180   -0.6210 ca        1 I05     -0.123000
      7 C73         2.8220   -0.7470   -1.9840 ca        1 I05     -0.180000
      8 C72         1.7730    0.0210   -2.5030 ca        1 I05      0.141100
      9 O92         1.6900    0.3420   -3.8410 oh        1 I05     -0.514100
     10 C71         0.7570    0.5230   -1.6690 ca        1 I05     -0.205600
     11 C61        -0.3690    1.3030   -2.2280 c         1 I05      0.632300
     12 O62        -1.4350    0.7910   -2.5790 o         1 I05     -0.518100
     13 C54        -0.1720    2.7740   -2.3320 ca        1 I05     -0.151600
     14 C55         0.7040    3.3080   -3.2810 ca        1 I05     -0.100500
     15 C56         0.8070    4.6920   -3.4280 ca        1 I05     -0.143500
     16 C53        -0.9020    3.6230   -1.4920 ca        1 I05     -0.100500
     17 C52        -0.7850    5.0040   -1.6320 ca        1 I05     -0.143500
     18 C51         0.0490    5.5440   -2.6190 ca        1 I05     -0.139300
     19 C42         0.1140    7.0270   -2.7990 c3        1 I05      0.163700
     20 O41        -1.1450    7.5430   -3.2340 os        1 I05     -0.432600
     21 C37        -1.4870    7.2060   -4.5820 c3        1 I05      0.128100
     22 C36        -1.2030    8.3820   -5.5070 c3        1 I05     -0.089400
     23 C35        -0.9080    7.9190   -6.9170 c3        1 I05     -0.085400
     24 C34        -2.1240    7.4060   -7.6840 c3        1 I05      0.155800
     25 N33        -2.9370    6.4380   -6.9670 n3        1 I05     -0.849200
     26 C32        -3.7050    7.0000   -5.8830 c3        1 I05      0.148800
     27 C31        -2.9950    6.8530   -4.5180 c3        1 I05      0.121500
     28 N23        -3.1420    5.4590   -3.9630 n4        1 I05     -0.676800
     29 C21        -4.5390    5.1240   -3.4990 c         1 I05      0.566700
     30 O22        -5.2520    6.0590   -3.1590 o         1 I05     -0.418100
     31 C14        -4.8920    3.6980   -3.5250 ca        1 I05     -0.163600
     32 C13        -6.2390    3.3640   -3.7410 ca        1 I05     -0.200300
     33 C12        -6.5880    1.9990   -3.7550 ca        1 I05      0.418200
     34 N11        -5.7020    1.0040   -3.5640 nb        1 I05     -0.604000
     35 C16        -4.4180    1.3430   -3.3420 ca        1 I05      0.418200
     36 C15        -3.9590    2.6750   -3.3140 ca        1 I05     -0.200300
     37 H971        2.5920   -1.5920    3.2330 h1        1 I05      0.054700
     38 H972        2.8060   -2.5790    1.6940 h1        1 I05      0.054700
     39 H973        3.8660   -1.1070    1.9960 h1        1 I05      0.054700
     40 H74         3.7060   -1.6240   -0.2220 ha        1 I05      0.160000
     41 H73         3.6020   -1.1390   -2.6540 ha        1 I05      0.153000
     42 H92         2.3350   -0.2010   -4.3190 ho        1 I05      0.438000
     43 H55         1.3080    2.6310   -3.9110 ha        1 I05      0.167500
     44 H56         1.4970    5.1110   -4.1780 ha        1 I05      0.152500
     45 H53        -1.5480    3.1950   -0.7080 ha        1 I05      0.167500
     46 H52        -1.3250    5.6780   -0.9470 ha        1 I05      0.152500
     47 H421        0.2770    7.5470   -1.8130 h1        1 I05      0.082200
     48 H422        0.9210    7.3200   -3.5200 h1        1 I05      0.082200
     49 H37        -0.8850    6.3150   -4.9290 h1        1 I05      0.068700
     50 H361       -0.3040    8.9240   -5.1020 hc        1 I05      0.071700
     51 H362       -2.0530    9.1110   -5.4940 hc        1 I05      0.071700
     52 H351       -0.4900    8.7840   -7.4990 hc        1 I05      0.062200
     53 H352       -0.1190    7.1220   -6.8930 hc        1 I05      0.062200
     54 H341       -1.7520    6.8980   -8.6210 h1        1 I05      0.052700
     55 H342       -2.7400    8.2990   -8.0050 h1        1 I05      0.052700
     56 H33        -3.5360    5.9570   -7.6110 hn        1 I05      0.387800
     57 H321       -3.8960    8.1090   -6.0090 h1        1 I05      0.068700
     58 H322       -4.7170    6.5050   -5.8190 h1        1 I05      0.068700
     59 H31        -3.4980    7.5530   -3.7800 hx        1 I05      0.133700
     60 H23        -2.8600    4.7830   -4.6830 hn        1 I05      0.470300
     61 H13        -7.0030    4.1420   -3.8870 ha        1 I05      0.165500
     62 H12        -7.6380    1.6890   -3.9240 h4        1 I05      0.066600
     63 H16        -3.7050    0.5070   -3.1710 h4        1 I05      0.066600
     64 H15        -2.8950    2.8570   -3.0920 ha        1 I05      0.165500
     65 H232       -2.4960    5.3690   -3.1580 hn        1 I05      0.470300
@<TRIPOS>BOND
     1    1    2 1   
     2    2    3 ar  
     3    2   10 ar  
     4    3    4 1   
     5    3    6 ar  
     6    4    5 1   
     7    5   37 1   
     8    5   38 1   
     9    5   39 1   
    10    6    7 ar  
    11    6   40 1   
    12    7    8 ar  
    13    7   41 1   
    14    8    9 1   
    15    8   10 ar  
    16    9   42 1   
    17   10   11 1   
    18   11   12 2   
    19   11   13 1   
    20   13   14 ar  
    21   13   16 ar  
    22   14   15 ar  
    23   14   43 1   
    24   15   18 ar  
    25   15   44 1   
    26   16   17 ar  
    27   16   45 1   
    28   17   18 ar  
    29   17   46 1   
    30   18   19 1   
    31   19   20 1   
    32   19   47 1   
    33   19   48 1   
    34   20   21 1   
    35   21   22 1   
    36   21   27 1   
    37   21   49 1   
    38   22   23 1   
    39   22   50 1   
    40   22   51 1   
    41   23   24 1   
    42   23   52 1   
    43   23   53 1   
    44   24   25 1   
    45   24   54 1   
    46   24   55 1   
    47   25   26 1   
    48   25   56 1   
    49   26   27 1   
    50   26   57 1   
    51   26   58 1   
    52   27   28 1   
    53   27   59 1   
    54   28   29 1   
    55   28   60 1   
    56   28   65 1   
    57   29   30 2   
    58   29   31 1   
    59   31   32 ar  
    60   31   36 ar  
    61   32   33 ar  
    62   32   61 1   
    63   33   34 ar  
    64   33   62 1   
    65   34   35 ar  
    66   35   36 ar  
    67   35   63 1   
    68   36   64 1   
@<TRIPOS>SUBSTRUCTURE
     1 I05         1 TEMP              0 ****  ****    0 ROOT
