@<TRIPOS>MOLECULE
I05
   64    61     1     0     0
SMALL
bcc


@<TRIPOS>ATOM
      1 F96         4.1840   -1.2080    4.4980 f         1 I05     -0.087000
      2 C76         4.6760   -2.2240    3.7690 c2        1 I05      0.128000
      3 C75         5.9790   -2.6400    3.9580 c1        1 I05     -0.023000
      4 O95         6.8510   -1.8780    4.7750 o         1 I05     -0.214000
      5 C97         7.3000   -2.5540    5.9140 c3        1 I05     -0.079000
      6 C74         6.4600   -3.7610    3.2770 c2        1 I05     -0.066000
      7 C73         5.6200   -4.4630    2.4030 c1        1 I05     -0.220000
      8 C72         4.3190   -4.0480    2.2140 c1        1 I05      0.127000
      9 O92         3.3970   -4.8800    1.4550 oh        1 I05     -0.238000
     10 C71         3.8390   -2.9240    2.8970 c2        1 I05     -0.191000
     11 C61         2.4000   -2.5380    2.7750 c2        1 I05      0.334000
     12 O62         1.6130   -2.9400    3.5580 o         1 I05     -0.264000
     13 C54         1.9290   -1.6480    1.5820 c2        1 I05     -0.140000
     14 C55         1.2000   -2.2130    0.5410 c2        1 I05     -0.083000
     15 C56         0.6540   -1.3910   -0.4650 c1        1 I05     -0.142000
     16 C53         2.1160   -0.2780    1.6290 c1        1 I05     -0.074000
     17 C52         1.5710    0.5410    0.6260 c1        1 I05     -0.120000
     18 C51         0.8410   -0.0250   -0.4170 c1        1 I05     -0.059000
     19 C42         0.3120    0.8700   -1.5690 c3        1 I05      0.016000
     20 O41        -0.9840    1.3560   -1.2370 os        1 I05     -0.293000
     21 C37        -1.2900    2.5890   -1.8070 c3        1 I05      0.025000
     22 C36        -0.8260    3.7030   -0.8720 c3        1 I05     -0.176000
     23 C35        -0.8360    5.0560   -1.5890 c3        1 I05     -0.157000
     24 C34        -2.1820    5.2910   -2.3020 c3        1 I05     -0.070000
     25 N33        -2.2570    4.5290   -3.5080 n3        1 I05     -0.318000
     26 C32        -3.1140    3.4100   -3.3490 c3        1 I05     -0.084000
     27 C31        -2.8110    2.6730   -2.0490 c3        1 I05      0.024000
     28 N23        -3.3530    1.3590   -2.1180 n         1 I05     -0.356000
     29 C21        -4.7680    1.1030   -1.6540 c2        1 I05      0.336000
     30 O22        -5.4540    2.0410   -1.2150 o         1 I05     -0.362000
     31 C14        -5.3940   -0.3140   -1.8040 c2        1 I05     -0.080000
     32 C13        -5.6190   -1.0810   -0.7000 c2        1 I05     -0.131000
     33 C12        -6.1580   -2.3550   -0.8390 c1        1 I05     -0.078000
     34 N11        -6.4640   -2.8380   -2.0870 n1        1 I05     -0.125000
     35 C16        -6.2420   -2.0770   -3.1820 c1        1 I05     -0.078000
     36 C15        -5.7000   -0.8000   -3.0460 c1        1 I05     -0.155000
     37 H971        7.7080   -3.4320    5.6440 h1        1 I05      0.085667
     38 H972        7.9540   -2.0230    6.3610 h1        1 I05      0.085667
     39 H973        6.5500   -2.7160    6.5130 h1        1 I05      0.085667
     40 H74         7.3790   -4.0560    3.4100 ha        1 I05      0.157000
     41 H73         5.9580   -5.2520    1.9240 ha        1 I05      0.145000
     42 H92         3.4410   -5.7420    1.7610 ho        1 I05      0.228000
     43 H55         1.0700   -3.1630    0.5070 ha        1 I05      0.142000
     44 H56         0.1350   -1.7930   -1.2070 ha        1 I05      0.136000
     45 H53         2.6170    0.1100    2.3440 ha        1 I05      0.155000
     46 H52         1.7060    1.5240    0.6610 ha        1 I05      0.154000
     47 H421        0.9390    1.6470   -1.7060 h1        1 I05      0.082000
     48 H422        0.2620    0.3530   -2.3790 h1        1 I05      0.082000
     49 H37        -0.8140    2.6730   -2.6770 h1        1 I05      0.106000
     50 H361       -1.4350    3.7440   -0.0870 hc        1 I05      0.090500
     51 H362        0.1110    3.5010   -0.5550 hc        1 I05      0.090500
     52 H351       -0.6890    5.7710   -0.9330 hc        1 I05      0.088000
     53 H352       -0.1110    5.0740   -2.2560 hc        1 I05      0.088000
     54 H341       -2.9210    5.0230   -1.7010 h1        1 I05      0.072500
     55 H342       -2.2740    6.2550   -2.5180 h1        1 I05      0.072500
     56 H33        -2.5690    5.0650   -4.1960 hn        1 I05      0.165000
     57 H321       -2.9820    2.7690   -4.1410 h1        1 I05      0.085000
     58 H322       -4.0340    3.7140   -3.3360 h1        1 I05      0.085000
     59 H31        -3.2380    3.1640   -1.2850 h1        1 I05      0.110000
     60 H23        -2.8480    0.6730   -2.4400 hn        1 I05      0.239000
     61 H13        -5.4050   -0.7410    0.1750 ha        1 I05      0.165000
     62 H12        -6.3200   -2.9060   -0.0490 ha        1 I05      0.165000
     63 H16        -6.4600   -2.4230   -4.0700 ha        1 I05      0.162000
     64 H15        -5.5420   -0.2570   -3.8280 ha        1 I05      0.149000
@<TRIPOS>BOND
     1    1    2 1   
     2    2    3 1   
     3    2   10 1   
     4    3    6 1   
     5    4    5 1   
     6    5   37 1   
     7    5   38 1   
     8    5   39 1   
     9    6    7 1   
    10    6   40 1   
    11    7   41 1   
    12    8    9 1   
    13    8   10 1   
    14    9   42 1   
    15   10   11 1   
    16   11   12 1   
    17   11   13 1   
    18   13   14 1   
    19   13   16 1   
    20   14   15 1   
    21   14   43 1   
    22   15   44 1   
    23   16   45 1   
    24   17   18 1   
    25   17   46 1   
    26   18   19 1   
    27   19   20 1   
    28   19   47 1   
    29   19   48 1   
    30   20   21 1   
    31   21   22 1   
    32   21   27 1   
    33   21   49 1   
    34   22   23 1   
    35   22   50 1   
    36   22   51 1   
    37   23   24 1   
    38   23   52 1   
    39   23   53 1   
    40   24   25 1   
    41   24   54 1   
    42   24   55 1   
    43   25   26 1   
    44   25   56 1   
    45   26   27 1   
    46   26   57 1   
    47   26   58 1   
    48   27   28 1   
    49   27   59 1   
    50   28   29 1   
    51   28   60 1   
    52   29   30 1   
    53   29   31 1   
    54   31   32 1   
    55   31   36 1   
    56   32   33 1   
    57   32   61 1   
    58   33   62 1   
    59   34   35 1   
    60   35   63 1   
    61   36   64 1   
@<TRIPOS>SUBSTRUCTURE
     1 I05         1 TEMP              0 ****  ****    0 ROOT
