@<TRIPOS>MOLECULE
I05
   65    68     1     0     0
SMALL
bcc


@<TRIPOS>ATOM
      1 F96        -0.1630    0.6910    0.5150 f         1 I05     -0.115900
      2 C76         0.8100    0.2380   -0.3040 ca        1 I05      0.164900
      3 C75         1.8810   -0.5300    0.2280 ca        1 I05      0.076100
      4 O95         1.8200   -0.7320    1.5890 os        1 I05     -0.307900
      5 C97         2.8290   -1.5720    2.1460 c3        1 I05      0.108700
      6 C74         2.8870   -1.0090   -0.6150 ca        1 I05     -0.123000
      7 C73         2.8500   -0.7280   -1.9770 ca        1 I05     -0.180000
      8 C72         1.8020    0.0360   -2.5050 ca        1 I05      0.141100
      9 O92         1.7360    0.3660   -3.8420 oh        1 I05     -0.513100
     10 C71         0.7710    0.5240   -1.6830 ca        1 I05     -0.205600
     11 C61        -0.3540    1.2990   -2.2520 c         1 I05      0.632300
     12 O62        -1.4110    0.7820   -2.6220 o         1 I05     -0.517100
     13 C54        -0.1650    2.7720   -2.3430 ca        1 I05     -0.151600
     14 C55         0.7100    3.3190   -3.2850 ca        1 I05     -0.100500
     15 C56         0.8050    4.7050   -3.4200 ca        1 I05     -0.143500
     16 C53        -0.9030    3.6100   -1.4980 ca        1 I05     -0.100500
     17 C52        -0.7940    4.9920   -1.6260 ca        1 I05     -0.143500
     18 C51         0.0390    5.5450   -2.6070 ca        1 I05     -0.140300
     19 C42         0.0950    7.0310   -2.7730 c3        1 I05      0.163700
     20 O41        -1.1650    7.5420   -3.2090 os        1 I05     -0.432600
     21 C37        -1.5000    7.2140   -4.5610 c3        1 I05      0.128100
     22 C36        -1.2220    8.4010   -5.4740 c3        1 I05     -0.089400
     23 C35        -0.9180    7.9530   -6.8870 c3        1 I05     -0.085400
     24 C34        -2.1280    7.4380   -7.6640 c3        1 I05      0.155800
     25 N33        -2.9360    6.4580   -6.9580 n3        1 I05     -0.849200
     26 C32        -3.7120    7.0050   -5.8720 c3        1 I05      0.148800
     27 C31        -3.0060    6.8500   -4.5050 c3        1 I05      0.121500
     28 N23        -3.1440    5.4500   -3.9640 n4        1 I05     -0.676800
     29 C21        -4.5400    5.1010   -3.5080 c         1 I05      0.566700
     30 O22        -5.2610    6.0270   -3.1600 o         1 I05     -0.418100
     31 C14        -4.8840    3.6730   -3.5500 ca        1 I05     -0.163600
     32 C13        -6.2280    3.3330   -3.7740 ca        1 I05     -0.200300
     33 C12        -6.5680    1.9650   -3.8030 ca        1 I05      0.418200
     34 N11        -5.6760    0.9740   -3.6200 nb        1 I05     -0.604000
     35 C16        -4.3940    1.3190   -3.3910 ca        1 I05      0.418200
     36 C15        -3.9450    2.6540   -3.3470 ca        1 I05     -0.200300
     37 H971        2.5500   -1.6160    3.2300 h1        1 I05      0.054700
     38 H972        2.7930   -2.5890    1.6860 h1        1 I05      0.054700
     39 H973        3.8380   -1.1120    2.0150 h1        1 I05      0.054700
     40 H74         3.7140   -1.6120   -0.2080 ha        1 I05      0.160000
     41 H73         3.6420   -1.1090   -2.6380 ha        1 I05      0.153000
     42 H92         2.3930   -0.1680   -4.3140 ho        1 I05      0.438000
     43 H55         1.3190    2.6510   -3.9190 ha        1 I05      0.167500
     44 H56         1.4940    5.1340   -4.1650 ha        1 I05      0.152500
     45 H53        -1.5480    3.1710   -0.7190 ha        1 I05      0.167500
     46 H52        -1.3400    5.6570   -0.9370 ha        1 I05      0.152500
     47 H421        0.9040    7.3340   -3.4900 h1        1 I05      0.082200
     48 H422        0.2520    7.5430   -1.7830 h1        1 I05      0.082200
     49 H37        -0.8900    6.3310   -4.9140 h1        1 I05      0.068700
     50 H361       -2.0760    9.1240   -5.4570 hc        1 I05      0.071700
     51 H362       -0.3280    8.9450   -5.0620 hc        1 I05      0.071700
     52 H351       -0.5040    8.8260   -7.4600 hc        1 I05      0.062200
     53 H352       -0.1230    7.1610   -6.8680 hc        1 I05      0.062200
     54 H341       -2.7490    8.3290   -7.9780 h1        1 I05      0.052700
     55 H342       -1.7490    6.9410   -8.6040 h1        1 I05      0.052700
     56 H33        -3.5300    5.9780   -7.6090 hn        1 I05      0.387800
     57 H321       -3.9110    8.1130   -5.9890 h1        1 I05      0.068700
     58 H322       -4.7200    6.5010   -5.8160 h1        1 I05      0.068700
     59 H31        -3.5160    7.5390   -3.7630 hx        1 I05      0.133700
     60 H23        -2.8550    4.7820   -4.6890 hn        1 I05      0.470300
     61 H13        -6.9970    4.1070   -3.9130 ha        1 I05      0.165500
     62 H12        -7.6150    1.6500   -3.9780 h4        1 I05      0.066600
     63 H16        -3.6770    0.4860   -3.2270 h4        1 I05      0.066600
     64 H15        -2.8830    2.8410   -3.1200 ha        1 I05      0.165500
     65 H232       -2.5000    5.3570   -3.1580 hn        1 I05      0.470300
@<TRIPOS>BOND
     1    1    2 1   
     2    2    3 ar  
     3    2   10 ar  
     4    3    4 1   
     5    3    6 ar  
     6    4    5 1   
     7    5   37 1   
     8    5   38 1   
     9    5   39 1   
    10    6    7 ar  
    11    6   40 1   
    12    7    8 ar  
    13    7   41 1   
    14    8    9 1   
    15    8   10 ar  
    16    9   42 1   
    17   10   11 1   
    18   11   12 2   
    19   11   13 1   
    20   13   14 ar  
    21   13   16 ar  
    22   14   15 ar  
    23   14   43 1   
    24   15   18 ar  
    25   15   44 1   
    26   16   17 ar  
    27   16   45 1   
    28   17   18 ar  
    29   17   46 1   
    30   18   19 1   
    31   19   20 1   
    32   19   47 1   
    33   19   48 1   
    34   20   21 1   
    35   21   22 1   
    36   21   27 1   
    37   21   49 1   
    38   22   23 1   
    39   22   50 1   
    40   22   51 1   
    41   23   24 1   
    42   23   52 1   
    43   23   53 1   
    44   24   25 1   
    45   24   54 1   
    46   24   55 1   
    47   25   26 1   
    48   25   56 1   
    49   26   27 1   
    50   26   57 1   
    51   26   58 1   
    52   27   28 1   
    53   27   59 1   
    54   28   29 1   
    55   28   60 1   
    56   28   65 1   
    57   29   30 2   
    58   29   31 1   
    59   31   32 ar  
    60   31   36 ar  
    61   32   33 ar  
    62   32   61 1   
    63   33   34 ar  
    64   33   62 1   
    65   34   35 ar  
    66   35   36 ar  
    67   35   63 1   
    68   36   64 1   
@<TRIPOS>SUBSTRUCTURE
     1 I05         1 TEMP              0 ****  ****    0 ROOT
