@<TRIPOS>MOLECULE
I05
   64    67     1     0     0
SMALL
bcc


@<TRIPOS>ATOM
      1 F96         1.7120   -1.2920   -0.6310 f         1 I05     -0.119900
      2 C76         3.0580   -1.1640   -0.6550 ca        1 I05      0.165900
      3 C75         3.8440   -2.0560    0.1170 ca        1 I05      0.046100
      4 O95         3.1170   -2.9620    0.8660 os        1 I05     -0.323900
      5 C97         3.8750   -3.8890    1.6370 c3        1 I05      0.110700
      6 C74         5.2400   -1.9760    0.0870 ca        1 I05     -0.123000
      7 C73         5.8630   -1.0320   -0.7160 ca        1 I05     -0.149000
      8 C72         5.0910   -0.1470   -1.4910 ca        1 I05      0.170100
      9 O92         5.8120    0.7440   -2.2420 oh        1 I05     -0.496100
     10 C71         3.6820   -0.1730   -1.4430 ca        1 I05     -0.255600
     11 C61         2.8960    0.8040   -2.2330 c         1 I05      0.605300
     12 O62         3.1690    1.0090   -3.4260 o         1 I05     -0.543100
     13 C54         1.8220    1.5580   -1.5550 ca        1 I05     -0.164600
     14 C55         0.8200    2.1570   -2.3300 ca        1 I05     -0.076000
     15 C56        -0.2000    2.8840   -1.7190 ca        1 I05     -0.130500
     16 C53         1.8010    1.7110   -0.1630 ca        1 I05     -0.076000
     17 C52         0.7830    2.4390    0.4450 ca        1 I05     -0.130500
     18 C51        -0.2270    3.0250   -0.3280 ca        1 I05     -0.094300
     19 C42        -1.3170    3.8010    0.3430 c3        1 I05      0.168700
     20 O41        -2.3270    2.9490    0.8700 os        1 I05     -0.424600
     21 C37        -3.3040    2.5300   -0.0960 c3        1 I05      0.130100
     22 C36        -4.4930    3.4820    0.0250 c3        1 I05     -0.095400
     23 C35        -5.4390    3.4160   -1.1480 c3        1 I05     -0.077400
     24 C34        -5.9900    2.0130   -1.4000 c3        1 I05      0.166800
     25 N33        -5.0120    1.1270   -1.9930 n3        1 I05     -0.839200
     26 C32        -4.1850    0.3560   -1.0940 c3        1 I05      0.150800
     27 C31        -3.7380    1.0710    0.2160 c3        1 I05      0.104700
     28 N23        -2.7200    0.2810    0.8750 n         1 I05     -0.549900
     29 C21        -3.0600   -0.7560    1.7190 c         1 I05      0.666700
     30 O22        -4.2450   -1.1270    1.8510 o         1 I05     -0.606100
     31 C14        -1.9480   -1.4400    2.4430 ca        1 I05     -0.102600
     32 C13        -2.1670   -1.8710    3.7570 ca        1 I05     -0.208800
     33 C12        -1.1220   -2.5360    4.4230 ca        1 I05      0.383700
     34 N11         0.0770   -2.7910    3.8630 nb        1 I05     -0.659000
     35 C16         0.2650   -2.3780    2.5950 ca        1 I05      0.383700
     36 C15        -0.7110   -1.6960    1.8430 ca        1 I05     -0.208800
     37 H971        4.5080   -4.5270    0.9750 h1        1 I05      0.051033
     38 H972        4.5040   -3.3540    2.3900 h1        1 I05      0.051033
     39 H973        3.0860   -4.5010    2.1450 h1        1 I05      0.051033
     40 H74         5.8510   -2.6660    0.6890 ha        1 I05      0.151000
     41 H73         6.9600   -0.9650   -0.7650 ha        1 I05      0.163000
     42 H92         5.2320    1.1460   -2.9100 ho        1 I05      0.449000
     43 H55         0.8480    2.0480   -3.4270 ha        1 I05      0.151000
     44 H56        -0.9850    3.3470   -2.3350 ha        1 I05      0.143000
     45 H53         2.5870    1.2450    0.4520 ha        1 I05      0.151000
     46 H52         0.7670    2.5530    1.5400 ha        1 I05      0.143000
     47 H421       -0.9190    4.3310    1.2530 h1        1 I05      0.060200
     48 H422       -1.7610    4.5530   -0.3630 h1        1 I05      0.060200
     49 H37        -2.8620    2.5720   -1.1300 h1        1 I05      0.067700
     50 H361       -5.0440    3.2650    0.9780 hc        1 I05      0.050200
     51 H362       -4.0910    4.5280    0.1130 hc        1 I05      0.050200
     52 H351       -6.3100    4.0940   -0.9450 hc        1 I05      0.047700
     53 H352       -4.9260    3.7950   -2.0710 hc        1 I05      0.047700
     54 H341       -6.4060    1.6090   -0.4310 h1        1 I05      0.033700
     55 H342       -6.8550    2.1130   -2.1180 h1        1 I05      0.033700
     56 H33        -5.4590    0.5010   -2.6370 hn        1 I05      0.369800
     57 H321       -4.6950   -0.6000   -0.7680 h1        1 I05      0.045200
     58 H322       -3.2700    0.0710   -1.6900 h1        1 I05      0.045200
     59 H31        -4.6380    1.1110    0.9050 h1        1 I05      0.074700
     60 H23        -1.8060    0.6690    0.9170 hn        1 I05      0.326500
     61 H13        -3.1380   -1.7040    4.2450 ha        1 I05      0.160000
     62 H12        -1.2530   -2.8900    5.4620 h4        1 I05      0.032600
     63 H16         1.2530   -2.6070    2.1480 h4        1 I05      0.032600
     64 H15        -0.4880   -1.3980    0.8090 ha        1 I05      0.160000
@<TRIPOS>BOND
     1    1    2 1   
     2    2    3 ar  
     3    2   10 ar  
     4    3    4 1   
     5    3    6 ar  
     6    4    5 1   
     7    5   37 1   
     8    5   38 1   
     9    5   39 1   
    10    6    7 ar  
    11    6   40 1   
    12    7    8 ar  
    13    7   41 1   
    14    8    9 1   
    15    8   10 ar  
    16    9   42 1   
    17   10   11 1   
    18   11   12 2   
    19   11   13 1   
    20   13   14 ar  
    21   13   16 ar  
    22   14   15 ar  
    23   14   43 1   
    24   15   18 ar  
    25   15   44 1   
    26   16   17 ar  
    27   16   45 1   
    28   17   18 ar  
    29   17   46 1   
    30   18   19 1   
    31   19   20 1   
    32   19   47 1   
    33   19   48 1   
    34   20   21 1   
    35   21   22 1   
    36   21   27 1   
    37   21   49 1   
    38   22   23 1   
    39   22   50 1   
    40   22   51 1   
    41   23   24 1   
    42   23   52 1   
    43   23   53 1   
    44   24   25 1   
    45   24   54 1   
    46   24   55 1   
    47   25   26 1   
    48   25   56 1   
    49   26   27 1   
    50   26   57 1   
    51   26   58 1   
    52   27   28 1   
    53   27   59 1   
    54   28   29 1   
    55   28   60 1   
    56   29   30 2   
    57   29   31 1   
    58   31   32 ar  
    59   31   36 ar  
    60   32   33 ar  
    61   32   61 1   
    62   33   34 ar  
    63   33   62 1   
    64   34   35 ar  
    65   35   36 ar  
    66   35   63 1   
    67   36   64 1   
@<TRIPOS>SUBSTRUCTURE
     1 I05         1 TEMP              0 ****  ****    0 ROOT
