@<TRIPOS>MOLECULE
I06
   34    36     1     0     0
SMALL
bcc


@<TRIPOS>ATOM
      1 C7          1.8010   -0.4820   -4.5830 ca        1 I06     -0.115000
      2 C8          1.9210   -0.1450   -3.2340 ca        1 I06     -0.081000
      3 C9          0.7710    0.0870   -2.4750 ca        1 I06     -0.110600
      4 C10        -0.4950   -0.0210   -3.0720 ca        1 I06     -0.109600
      5 C11        -0.6110   -0.3560   -4.4230 ca        1 I06     -0.081000
      6 C12         0.5420   -0.5860   -5.1750 ca        1 I06     -0.115000
      7 C13         0.8860    0.4400   -1.0390 c         1 I06      0.687100
      8 O13         1.9830    0.5140   -0.4590 o         1 I06     -0.606500
      9 N14        -0.3080    0.8240   -0.3520 n         1 I06     -0.314400
     10 N15        -1.5160    0.3720   -0.8520 n         1 I06     -0.396500
     11 C16        -1.6990    0.2350   -2.2520 c         1 I06      0.682100
     12 O16        -2.8590    0.2390   -2.6980 o         1 I06     -0.603500
     13 CA         -0.2160    0.8410    1.1170 c3        1 I06      0.069000
     14 CB         -0.2710   -0.5210    1.8090 c3        1 I06     -0.062100
     15 CG         -0.0890   -0.3600    3.2770 ca        1 I06     -0.086300
     16 CD1        -1.1670   -0.5360    4.1520 ca        1 I06     -0.125000
     17 CD2         1.1730   -0.0450    3.7960 ca        1 I06     -0.125000
     18 CE1        -0.9850   -0.3960    5.5270 ca        1 I06     -0.128500
     19 CE2         1.3510    0.0960    5.1710 ca        1 I06     -0.128500
     20 CZ          0.2730   -0.0790    6.0390 ca        1 I06     -0.129000
     21 H71         2.7070   -0.6640   -5.1820 ha        1 I06      0.144000
     22 H81         2.9110   -0.0590   -2.7560 ha        1 I06      0.165000
     23 H111       -1.6120   -0.4350   -4.8770 ha        1 I06      0.164000
     24 H121        0.4540   -0.8520   -6.2400 ha        1 I06      0.144000
     25 H15        -2.2800    0.8490   -0.3930 hn        1 I06      0.313500
     26 HA1         0.7650    1.3420    1.3590 h1        1 I06      0.077700
     27 HA2        -1.0480    1.4930    1.5070 h1        1 I06      0.077700
     28 HB1        -1.2500   -1.0250    1.5930 hc        1 I06      0.062200
     29 HB2         0.5450   -1.1780    1.4010 hc        1 I06      0.062200
     30 HD11       -2.1600   -0.7890    3.7530 ha        1 I06      0.135500
     31 HD21        2.0250    0.0890    3.1120 ha        1 I06      0.135500
     32 HE11       -1.8370   -0.5370    6.2080 ha        1 I06      0.132500
     33 HE21        2.3450    0.3430    5.5720 ha        1 I06      0.132500
     34 HZ1         0.4150    0.0310    7.1230 ha        1 I06      0.132000
@<TRIPOS>BOND
     1    1    2 ar  
     2    1    6 ar  
     3    1   21 1   
     4    2    3 ar  
     5    2   22 1   
     6    3    4 ar  
     7    3    7 1   
     8    4    5 ar  
     9    4   11 1   
    10    5    6 ar  
    11    5   23 1   
    12    6   24 1   
    13    7    8 2   
    14    7    9 1   
    15    9   10 1   
    16    9   13 1   
    17   10   11 1   
    18   10   25 1   
    19   11   12 2   
    20   13   14 1   
    21   13   26 1   
    22   13   27 1   
    23   14   15 1   
    24   14   28 1   
    25   14   29 1   
    26   15   16 ar  
    27   15   17 ar  
    28   16   18 ar  
    29   16   30 1   
    30   17   19 ar  
    31   17   31 1   
    32   18   20 ar  
    33   18   32 1   
    34   19   20 ar  
    35   19   33 1   
    36   20   34 1   
@<TRIPOS>SUBSTRUCTURE
     1 I06         1 TEMP              0 ****  ****    0 ROOT
