@<TRIPOS>MOLECULE
I06
   34    36     1     0     0
SMALL
bcc


@<TRIPOS>ATOM
      1 C7          0.0410   -0.2230   -0.0390 ca        1 I06     -0.115000
      2 C8          1.4330   -0.1220   -0.0250 ca        1 I06     -0.081000
      3 C9          2.1040   -0.0030    1.1940 ca        1 I06     -0.110600
      4 C10         1.3770    0.0130    2.3960 ca        1 I06     -0.109600
      5 C11        -0.0150   -0.0860    2.3770 ca        1 I06     -0.081000
      6 C12        -0.6800   -0.2040    1.1550 ca        1 I06     -0.115000
      7 C13         3.5840    0.1000    1.2220 c         1 I06      0.687100
      8 O13         4.2730    0.0570    0.1880 o         1 I06     -0.606500
      9 N14         4.2070    0.3830    2.4780 n         1 I06     -0.314400
     10 N15         3.5220    0.0420    3.6310 n         1 I06     -0.396500
     11 C16         2.1080    0.1470    3.6750 c         1 I06      0.682100
     12 O16         1.5580    0.2460    4.7850 o         1 I06     -0.603500
     13 CA          5.6590    0.1490    2.5330 c3        1 I06      0.069000
     14 CB          6.1000   -1.3100    2.6560 c3        1 I06     -0.062100
     15 CG          7.5850   -1.4030    2.6190 ca        1 I06     -0.086300
     16 CD1         8.3070   -1.7060    3.7780 ca        1 I06     -0.125000
     17 CD2         8.2710   -1.2020    1.4150 ca        1 I06     -0.125000
     18 CE1         9.6980   -1.8040    3.7330 ca        1 I06     -0.128500
     19 CE2         9.6600   -1.3000    1.3730 ca        1 I06     -0.128500
     20 CZ         10.3760   -1.6010    2.5320 ca        1 I06     -0.129000
     21 H71        -0.4890   -0.3160   -1.0000 ha        1 I06      0.144000
     22 H81         2.0130   -0.1340   -0.9630 ha        1 I06      0.165000
     23 H111       -0.5720   -0.0700    3.3280 ha        1 I06      0.164000
     24 H121       -1.7780   -0.2840    1.1370 ha        1 I06      0.144000
     25 H15         3.9780    0.4470    4.4360 hn        1 I06      0.313500
     26 HA1         6.0770    0.5850    1.5790 h1        1 I06      0.077700
     27 HA2         6.0710    0.7390    3.3990 h1        1 I06      0.077700
     28 HB1         5.6680   -1.9020    1.8040 hc        1 I06      0.062200
     29 HB2         5.7070   -1.7530    3.6090 hc        1 I06      0.062200
     30 HD11        7.7770   -1.8720    4.7280 ha        1 I06      0.135500
     31 HD21        7.7050   -0.9680    0.4990 ha        1 I06      0.135500
     32 HE11       10.2590   -2.0440    4.6480 ha        1 I06      0.132500
     33 HE21       10.1920   -1.1410    0.4230 ha        1 I06      0.132500
     34 HZ1        11.4720   -1.6780    2.4980 ha        1 I06      0.132000
@<TRIPOS>BOND
     1    1    2 ar  
     2    1    6 ar  
     3    1   21 1   
     4    2    3 ar  
     5    2   22 1   
     6    3    4 ar  
     7    3    7 1   
     8    4    5 ar  
     9    4   11 1   
    10    5    6 ar  
    11    5   23 1   
    12    6   24 1   
    13    7    8 2   
    14    7    9 1   
    15    9   10 1   
    16    9   13 1   
    17   10   11 1   
    18   10   25 1   
    19   11   12 2   
    20   13   14 1   
    21   13   26 1   
    22   13   27 1   
    23   14   15 1   
    24   14   28 1   
    25   14   29 1   
    26   15   16 ar  
    27   15   17 ar  
    28   16   18 ar  
    29   16   30 1   
    30   17   19 ar  
    31   17   31 1   
    32   18   20 ar  
    33   18   32 1   
    34   19   20 ar  
    35   19   33 1   
    36   20   34 1   
@<TRIPOS>SUBSTRUCTURE
     1 I06         1 TEMP              0 ****  ****    0 ROOT
