@<TRIPOS>MOLECULE
I06
   34    29     1     0     0
SMALL
bcc


@<TRIPOS>ATOM
      1 C7         -4.7900    0.4760   -2.4020 c1        1 I06     -0.122000
      2 C8         -3.4210    0.4680   -2.3740 c1        1 I06     -0.081000
      3 C9         -2.7360    0.4660   -1.1290 c1        1 I06     -0.089500
      4 C10        -3.4470    0.4720    0.0430 c1        1 I06     -0.089500
      5 C11        -4.8560    0.4800    0.0130 c1        1 I06     -0.081000
      6 C12        -5.5200    0.4820   -1.1940 c1        1 I06     -0.122000
      7 C13        -1.3460    0.4900   -1.1000 c1        1 I06      0.321500
      8 O13        -0.7220    0.4580   -2.1290 o         1 I06     -0.329500
      9 N14        -0.6720    0.5190    0.1280 n2        1 I06     -0.210000
     10 N15        -1.3780    0.5240    1.2960 n2        1 I06     -0.243000
     11 C16        -2.7690    0.5010    1.2700 c1        1 I06      0.321500
     12 O16        -3.3730    0.5070    2.2700 o         1 I06     -0.329500
     13 CA          0.7990    0.5730    0.1590 c3        1 I06     -0.047000
     14 CB          1.3440   -0.7870    0.2520 c3        1 I06     -0.148000
     15 CG          2.9340   -0.7110    0.5390 c2        1 I06     -0.079000
     16 CD1         3.8290   -0.8310   -0.5100 c2        1 I06     -0.125000
     17 CD2         3.4020   -0.5770    1.8380 c1        1 I06     -0.125000
     18 CE1         5.1800   -0.8170   -0.2680 c1        1 I06     -0.128000
     19 CE2         4.7600   -0.5640    2.0800 c1        1 I06     -0.122000
     20 CZ          5.6520   -0.6840    1.0190 c1        1 I06     -0.122000
     21 H71        -5.2730    0.4800   -3.2800 ha        1 I06      0.138000
     22 H81        -2.8860    0.4600   -3.2600 ha        1 I06      0.164500
     23 H111       -5.3800    0.4810    0.8790 ha        1 I06      0.164500
     24 H121       -6.5600    0.4880   -1.2150 ha        1 I06      0.138000
     25 H15        -0.9620    0.5420    2.0500 hn        1 I06      0.227000
     26 HA1         1.1160    0.9810   -0.6290 h1        1 I06      0.117000
     27 HA2         1.1020    1.1200    0.9760 h1        1 I06      0.117000
     28 HB1         1.1920   -1.2480   -0.5810 hc        1 I06      0.101500
     29 HB2         0.8960   -1.2770    0.9870 hc        1 I06      0.101500
     30 HD11        3.5100   -0.9220   -1.3990 ha        1 I06      0.140000
     31 HD21        2.8190   -0.4990    2.5250 ha        1 I06      0.131000
     32 HE11        5.8400   -0.9060   -1.0500 ha        1 I06      0.133000
     33 HE21        5.1030   -0.4680    3.0140 ha        1 I06      0.138000
     34 HZ1         6.6120   -0.6750    1.1850 ha        1 I06      0.138000
@<TRIPOS>BOND
     1    1    6 1   
     2    1   21 1   
     3    2    3 1   
     4    2   22 1   
     5    3    7 1   
     6    4    5 1   
     7    4   11 1   
     8    5   23 1   
     9    6   24 1   
    10    7    8 1   
    11    9   10 1   
    12    9   13 1   
    13   10   25 1   
    14   11   12 1   
    15   13   14 1   
    16   13   26 1   
    17   13   27 1   
    18   14   15 1   
    19   14   28 1   
    20   14   29 1   
    21   15   16 1   
    22   15   17 1   
    23   16   18 1   
    24   16   30 1   
    25   17   31 1   
    26   18   32 1   
    27   19   20 1   
    28   19   33 1   
    29   20   34 1   
@<TRIPOS>SUBSTRUCTURE
     1 I06         1 TEMP              0 ****  ****    0 ROOT
