@<TRIPOS>MOLECULE
I08
   64    67     1     0     0
SMALL
bcc


@<TRIPOS>ATOM
      1 F96         3.5080   -0.4920   -1.2220 f         1 I08     -0.115900
      2 C76         4.3830   -0.0930   -0.2740 ca        1 I08      0.168900
      3 C75         5.1150   -1.0740    0.4420 ca        1 I08      0.045100
      4 O95         4.8030   -2.3790    0.1120 os        1 I08     -0.313900
      5 C98         5.6240   -3.3830    0.7000 c3        1 I08      0.111700
      6 C74         6.0540   -0.6930    1.4050 ca        1 I08     -0.125000
      7 C73         6.2890    0.6520    1.6510 ca        1 I08     -0.151000
      8 C72         5.5740    1.6320    0.9400 ca        1 I08      0.168100
      9 O92         5.8860    2.9280    1.2630 oh        1 I08     -0.497100
     10 C71         4.5860    1.2770   -0.0000 ca        1 I08     -0.257600
     11 C61         3.8160    2.3310   -0.7020 c         1 I08      0.606300
     12 O62         4.4000    3.2950   -1.2220 o         1 I08     -0.544100
     13 C54         2.3440    2.2270   -0.7200 ca        1 I08     -0.169600
     14 C55         1.6250    2.8920   -1.7250 ca        1 I08     -0.071500
     15 C56         0.2370    2.8190   -1.7590 ca        1 I08     -0.140500
     16 C53         1.6490    1.5060    0.2580 ca        1 I08     -0.071500
     17 C52         0.2600    1.4420    0.2290 ca        1 I08     -0.140500
     18 C51        -0.4640    2.0950   -0.7810 ca        1 I08     -0.020800
     19 C42        -1.9140    2.0190   -0.8530 ce        1 I08     -0.139200
     20 C41        -2.7150    1.7590    0.1880 c2        1 I08     -0.139200
     21 C37        -4.2000    1.6690    0.0720 c3        1 I08     -0.045500
     22 C36        -4.8250    2.6350    1.0750 c3        1 I08     -0.069400
     23 C35        -6.2680    2.9620    0.7740 c3        1 I08     -0.078400
     24 C34        -7.1720    1.7310    0.7160 c3        1 I08      0.168800
     25 N33        -7.0030    0.9620   -0.4970 n3        1 I08     -0.836200
     26 C32        -5.9880   -0.0650   -0.5020 c3        1 I08      0.154800
     27 C31        -4.7120    0.2280    0.3390 c3        1 I08      0.107700
     28 N23        -3.7090   -0.7840    0.0870 n         1 I08     -0.566900
     29 C21        -3.5310   -1.8720    0.9140 c         1 I08      0.669700
     30 O22        -4.2640   -2.0680    1.9050 o         1 I08     -0.601100
     31 C14        -2.4320   -2.8200    0.5620 ca        1 I08     -0.103600
     32 C13        -2.6530   -4.1930    0.7220 ca        1 I08     -0.212300
     33 C12        -1.6070   -5.0780    0.4050 ca        1 I08      0.389700
     34 N11        -0.4000   -4.6760   -0.0380 nb        1 I08     -0.650000
     35 C16        -0.2010   -3.3510   -0.1760 ca        1 I08      0.389700
     36 C15        -1.1830   -2.3820    0.1090 ca        1 I08     -0.212300
     37 H981        6.6970   -3.2230    0.4380 h1        1 I08      0.048033
     38 H982        5.4870   -3.4010    1.8080 h1        1 I08      0.048033
     39 H983        5.2390   -4.3290    0.2400 h1        1 I08      0.048033
     40 H74         6.6180   -1.4540    1.9660 ha        1 I08      0.150000
     41 H73         7.0360    0.9710    2.3930 ha        1 I08      0.161000
     42 H92         5.5370    3.5230    0.5790 ho        1 I08      0.448000
     43 H55         2.1740    3.4730   -2.4840 ha        1 I08      0.149500
     44 H56        -0.3180    3.3360   -2.5570 ha        1 I08      0.139500
     45 H53         2.2070    0.9800    1.0490 ha        1 I08      0.149500
     46 H52        -0.2720    0.8680    1.0030 ha        1 I08      0.139500
     47 H42        -2.3400    2.2070   -1.8560 ha        1 I08      0.132000
     48 H41        -2.3160    1.5990    1.2040 ha        1 I08      0.131000
     49 H37        -4.5130    1.9690   -0.9680 hc        1 I08      0.075700
     50 H361       -4.7390    2.2090    2.1100 hc        1 I08      0.045700
     51 H362       -4.2350    3.5920    1.0630 hc        1 I08      0.045700
     52 H351       -6.6600    3.6340    1.5840 hc        1 I08      0.049200
     53 H352       -6.3330    3.5270   -0.1930 hc        1 I08      0.049200
     54 H341       -7.0010    1.1130    1.6460 h1        1 I08      0.031700
     55 H342       -8.2400    2.0940    0.7500 h1        1 I08      0.031700
     56 H33        -7.8780    0.5540   -0.7710 hn        1 I08      0.368800
     57 H321       -6.3960   -1.0540   -0.1340 h1        1 I08      0.035700
     58 H322       -5.6940   -0.2010   -1.5830 h1        1 I08      0.035700
     59 H31        -4.9950    0.1440    1.4340 h1        1 I08      0.086700
     60 H23        -3.1220   -0.6620   -0.7030 hn        1 I08      0.318500
     61 H13        -3.6170   -4.5630    1.0990 ha        1 I08      0.156500
     62 H12        -1.7400   -6.1690    0.5150 h4        1 I08      0.031600
     63 H16         0.8000   -3.0480   -0.5340 h4        1 I08      0.031600
     64 H15        -0.9500   -1.3150   -0.0120 ha        1 I08      0.156500
@<TRIPOS>BOND
     1    1    2 1   
     2    2    3 ar  
     3    2   10 ar  
     4    3    4 1   
     5    3    6 ar  
     6    4    5 1   
     7    5   37 1   
     8    5   38 1   
     9    5   39 1   
    10    6    7 ar  
    11    6   40 1   
    12    7    8 ar  
    13    7   41 1   
    14    8    9 1   
    15    8   10 ar  
    16    9   42 1   
    17   10   11 1   
    18   11   12 2   
    19   11   13 1   
    20   13   14 ar  
    21   13   16 ar  
    22   14   15 ar  
    23   14   43 1   
    24   15   18 ar  
    25   15   44 1   
    26   16   17 ar  
    27   16   45 1   
    28   17   18 ar  
    29   17   46 1   
    30   18   19 1   
    31   19   20 2   
    32   19   47 1   
    33   20   21 1   
    34   20   48 1   
    35   21   22 1   
    36   21   27 1   
    37   21   49 1   
    38   22   23 1   
    39   22   50 1   
    40   22   51 1   
    41   23   24 1   
    42   23   52 1   
    43   23   53 1   
    44   24   25 1   
    45   24   54 1   
    46   24   55 1   
    47   25   26 1   
    48   25   56 1   
    49   26   27 1   
    50   26   57 1   
    51   26   58 1   
    52   27   28 1   
    53   27   59 1   
    54   28   29 1   
    55   28   60 1   
    56   29   30 2   
    57   29   31 1   
    58   31   32 ar  
    59   31   36 ar  
    60   32   33 ar  
    61   32   61 1   
    62   33   34 ar  
    63   33   62 1   
    64   34   35 ar  
    65   35   36 ar  
    66   35   63 1   
    67   36   64 1   
@<TRIPOS>SUBSTRUCTURE
     1 I08         1 TEMP              0 ****  ****    0 ROOT
