@<TRIPOS>MOLECULE
I08
   65    68     1     0     0
SMALL
bcc


@<TRIPOS>ATOM
      1 F96         1.9080    1.7160    1.2690 f         1 I08     -0.116900
      2 C76         1.6520    0.7450    0.3650 ca        1 I08      0.163900
      3 C75         2.2470   -0.5360    0.5160 ca        1 I08      0.076100
      4 O95         3.0720   -0.6600    1.6120 os        1 I08     -0.307900
      5 C98         3.6150   -1.9570    1.8480 c3        1 I08      0.108700
      6 C74         1.9820   -1.5480   -0.4110 ca        1 I08     -0.123000
      7 C73         1.1410   -1.3000   -1.4920 ca        1 I08     -0.180000
      8 C72         0.5580   -0.0370   -1.6510 ca        1 I08      0.142100
      9 O92        -0.2590    0.2670   -2.7190 oh        1 I08     -0.513100
     10 C71         0.7990    0.9960   -0.7270 ca        1 I08     -0.204600
     11 C61         0.1530    2.3180   -0.8800 c         1 I08      0.631300
     12 O62        -0.9180    2.6150   -0.3450 o         1 I08     -0.514100
     13 C54         0.8770    3.3150   -1.7160 ca        1 I08     -0.156600
     14 C55         0.8490    3.2240   -3.1100 ca        1 I08     -0.098500
     15 C56         1.4330    4.2270   -3.8820 ca        1 I08     -0.147500
     16 C53         1.5550    4.3680   -1.0930 ca        1 I08     -0.098500
     17 C52         2.1510    5.3620   -1.8660 ca        1 I08     -0.147500
     18 C51         2.0590    5.3180   -3.2660 ca        1 I08     -0.093800
     19 C42         2.6300    6.4110   -4.0470 ce        1 I08     -0.101200
     20 C41         1.9350    7.2700   -4.8000 c2        1 I08     -0.189200
     21 C37         0.4590    7.2260   -5.0230 c3        1 I08     -0.043500
     22 C36         0.1310    7.6760   -6.4420 c3        1 I08     -0.071400
     23 C35        -1.1790    7.1130   -6.9480 c3        1 I08     -0.086400
     24 C34        -2.4170    7.8380   -6.4330 c3        1 I08      0.155800
     25 N33        -2.4870    7.9620   -4.9880 n7        1 I08     -0.850200
     26 C32        -1.4930    8.8380   -4.4170 c3        1 I08      0.143800
     27 C31        -0.2390    8.0720   -3.9310 c3        1 I08      0.141500
     28 N23        -0.5890    7.1800   -2.7630 ny        1 I08     -0.678800
     29 C21        -0.9750    7.9190   -1.5050 c         1 I08      0.568700
     30 O22        -0.5620    9.0640   -1.3780 o         1 I08     -0.424100
     31 C14        -1.8240    7.1680   -0.5690 ca        1 I08     -0.162600
     32 C13        -2.7300    7.8940    0.2210 ca        1 I08     -0.200800
     33 C12        -3.5380    7.1790    1.1270 ca        1 I08      0.417700
     34 N11        -3.4810    5.8430    1.2790 nb        1 I08     -0.604000
     35 C16        -2.5960    5.1640    0.5250 ca        1 I08      0.417700
     36 C15        -1.7440    5.7780   -0.4150 ca        1 I08     -0.200800
     37 H981        4.2000   -1.8180    2.7920 h1        1 I08      0.054700
     38 H982        4.2860   -2.2590    1.0070 h1        1 I08      0.054700
     39 H983        2.8000   -2.7060    1.9940 h1        1 I08      0.054700
     40 H74         2.4340   -2.5440   -0.2940 ha        1 I08      0.160000
     41 H73         0.9320   -2.0990   -2.2200 ha        1 I08      0.153000
     42 H92        -0.4720   -0.5610   -3.1760 ho        1 I08      0.437000
     43 H55         0.3630    2.3560   -3.5920 ha        1 I08      0.169000
     44 H56         1.4160    4.1520   -4.9810 ha        1 I08      0.154500
     45 H53         1.6310    4.3990    0.0060 ha        1 I08      0.169000
     46 H52         2.7160    6.1720   -1.3780 ha        1 I08      0.154500
     47 H42         3.7290    6.5130   -3.9580 ha        1 I08      0.163000
     48 H41         2.4600    8.0820   -5.3350 ha        1 I08      0.152000
     49 H37         0.1130    6.1500   -4.9440 hc        1 I08      0.070700
     50 H361        0.9520    7.3000   -7.1150 hc        1 I08      0.064200
     51 H362        0.1410    8.7930   -6.5180 hc        1 I08      0.064200
     52 H351       -1.2480    6.0220   -6.6950 hc        1 I08      0.062200
     53 H352       -1.1950    7.1930   -8.0690 hc        1 I08      0.062200
     54 H341       -3.3260    7.2550   -6.7590 h1        1 I08      0.052200
     55 H342       -2.4650    8.8520   -6.9330 h1        1 I08      0.052200
     56 H33        -3.4090    8.2570   -4.7210 hn        1 I08      0.386800
     57 H321       -1.9280    9.3930   -3.5340 h1        1 I08      0.069200
     58 H322       -1.1220    9.6240   -5.1390 h1        1 I08      0.069200
     59 H31         0.4880    8.8480   -3.5380 hx        1 I08      0.116700
     60 H23        -1.3710    6.5700   -3.0380 hn        1 I08      0.471300
     61 H13        -2.8030    8.9890    0.1440 ha        1 I08      0.164500
     62 H12        -4.2690    7.7100    1.7680 h4        1 I08      0.065600
     63 H16        -2.5520    4.0640    0.6760 h4        1 I08      0.065600
     64 H15        -1.0270    5.1450   -0.9620 ha        1 I08      0.164500
     65 H232        0.2290    6.5840   -2.5490 hn        1 I08      0.471300
@<TRIPOS>BOND
     1    1    2 1   
     2    2    3 ar  
     3    2   10 ar  
     4    3    4 1   
     5    3    6 ar  
     6    4    5 1   
     7    5   37 1   
     8    5   38 1   
     9    5   39 1   
    10    6    7 ar  
    11    6   40 1   
    12    7    8 ar  
    13    7   41 1   
    14    8    9 1   
    15    8   10 ar  
    16    9   42 1   
    17   10   11 1   
    18   11   12 2   
    19   11   13 1   
    20   13   14 ar  
    21   13   16 ar  
    22   14   15 ar  
    23   14   43 1   
    24   15   18 ar  
    25   15   44 1   
    26   16   17 ar  
    27   16   45 1   
    28   17   18 ar  
    29   17   46 1   
    30   18   19 1   
    31   19   20 2   
    32   19   47 1   
    33   20   21 1   
    34   20   48 1   
    35   21   22 1   
    36   21   27 1   
    37   21   49 1   
    38   22   23 1   
    39   22   50 1   
    40   22   51 1   
    41   23   24 1   
    42   23   52 1   
    43   23   53 1   
    44   24   25 1   
    45   24   54 1   
    46   24   55 1   
    47   25   26 1   
    48   25   56 1   
    49   26   27 1   
    50   26   57 1   
    51   26   58 1   
    52   27   28 1   
    53   27   59 1   
    54   28   29 1   
    55   28   60 1   
    56   28   65 1   
    57   29   30 2   
    58   29   31 1   
    59   31   32 ar  
    60   31   36 ar  
    61   32   33 ar  
    62   32   61 1   
    63   33   34 ar  
    64   33   62 1   
    65   34   35 ar  
    66   35   36 ar  
    67   35   63 1   
    68   36   64 1   
@<TRIPOS>SUBSTRUCTURE
     1 I08         1 TEMP              0 ****  ****    0 ROOT
