@<TRIPOS>MOLECULE
I08
   65    68     1     0     0
SMALL
bcc


@<TRIPOS>ATOM
      1 F96        -0.0770    1.8290    0.3300 f         1 I08     -0.139900
      2 C76         0.7260    0.8360   -0.1180 ca        1 I08      0.143900
      3 C75         1.4340    0.0330    0.8130 ca        1 I08      0.070100
      4 O95         1.2460    0.3790    2.1350 os        1 I08     -0.315900
      5 C98         1.7580   -0.5380    3.1000 c3        1 I08      0.109700
      6 C74         2.2600   -1.0000    0.3620 ca        1 I08     -0.121000
      7 C73         2.3980   -1.2370   -1.0000 ca        1 I08     -0.181000
      8 C72         1.7070   -0.4410   -1.9250 ca        1 I08      0.154100
      9 O92         1.8210   -0.6220   -3.2830 oh        1 I08     -0.492100
     10 C71         0.8640    0.6030   -1.4990 ca        1 I08     -0.201600
     11 C61         0.1040    1.3990   -2.4920 c         1 I08      0.608300
     12 O62        -0.9970    1.0450   -2.9190 o         1 I08     -0.480100
     13 C54         0.7380    2.6560   -2.9650 ca        1 I08     -0.147600
     14 C55         0.6130    3.0130   -4.3140 ca        1 I08     -0.084000
     15 C56         1.1710    4.2020   -4.7780 ca        1 I08     -0.154500
     16 C53         1.4420    3.4900   -2.0900 ca        1 I08     -0.084000
     17 C52         1.9920    4.6840   -2.5520 ca        1 I08     -0.154500
     18 C51         1.8520    5.0530   -3.8980 ca        1 I08     -0.089800
     19 C42         2.4560    6.2970   -4.3680 ce        1 I08     -0.104200
     20 C41         1.7950    7.3530   -4.8530 c2        1 I08     -0.194200
     21 C37         0.3130    7.4400   -5.0110 c3        1 I08     -0.045500
     22 C36        -0.0490    8.1570   -6.3060 c3        1 I08     -0.068400
     23 C35        -1.3770    7.6950   -6.8670 c3        1 I08     -0.086400
     24 C34        -2.6010    8.2370   -6.1360 c3        1 I08      0.156800
     25 N33        -2.5730    8.0700   -4.6940 n3        1 I08     -0.848200
     26 C32        -1.5970    8.8920   -4.0220 c3        1 I08      0.145800
     27 C31        -0.2710    8.1370   -3.7610 c3        1 I08      0.138500
     28 N23        -0.4530    7.1090   -2.6690 n4        1 I08     -0.677800
     29 C21        -0.6310    7.6950   -1.2910 c         1 I08      0.565700
     30 O22        -0.2330    8.8380   -1.1090 o         1 I08     -0.420100
     31 C14        -1.2900    6.8180   -0.3110 ca        1 I08     -0.160600
     32 C13        -2.0940    7.4180    0.6690 ca        1 I08     -0.201300
     33 C12        -2.7120    6.5800    1.6210 ca        1 I08      0.417200
     34 N11        -2.5600    5.2440    1.6420 nb        1 I08     -0.600000
     35 C16        -1.7710    4.6870    0.7020 ca        1 I08      0.417200
     36 C15        -1.1140    5.4280   -0.3000 ca        1 I08     -0.201300
     37 H981        1.4000   -0.1110    4.0710 h1        1 I08      0.054367
     38 H982        2.8750   -0.5550    3.0640 h1        1 I08      0.054367
     39 H983        1.3400   -1.5600    2.9380 h1        1 I08      0.054367
     40 H74         2.8040   -1.6320    1.0820 ha        1 I08      0.159000
     41 H73         3.0460   -2.0530   -1.3550 ha        1 I08      0.154000
     42 H92         2.3430   -1.4250   -3.4380 ho        1 I08      0.437000
     43 H55         0.0720    2.3420   -5.0030 ha        1 I08      0.164500
     44 H56         1.0910    4.4650   -5.8450 ha        1 I08      0.149500
     45 H53         1.5690    3.1940   -1.0350 ha        1 I08      0.164500
     46 H52         2.5810    5.3150   -1.8680 ha        1 I08      0.149500
     47 H42         3.5610    6.3210   -4.2940 ha        1 I08      0.162000
     48 H41         2.3510    8.2480   -5.1860 ha        1 I08      0.152000
     49 H37        -0.1130    6.3940   -5.0910 hc        1 I08      0.077700
     50 H361       -0.0420    9.2680   -6.1620 hc        1 I08      0.064200
     51 H362        0.7490    7.9250   -7.0640 hc        1 I08      0.064200
     52 H351       -1.4530    8.0370   -7.9350 hc        1 I08      0.063200
     53 H352       -1.4120    6.5740   -6.8770 hc        1 I08      0.063200
     54 H341       -2.7260    9.3260   -6.4180 h1        1 I08      0.052200
     55 H342       -3.5070    7.6830   -6.5170 h1        1 I08      0.052200
     56 H33        -3.4900    8.2360   -4.3190 hn        1 I08      0.386800
     57 H321       -2.0020    9.2510   -3.0310 h1        1 I08      0.068200
     58 H322       -1.3170    9.8170   -4.6080 h1        1 I08      0.068200
     59 H31         0.4750    8.8960   -3.3730 hx        1 I08      0.116700
     60 H23        -1.2750    6.5330   -2.8930 hn        1 I08      0.471800
     61 H13        -2.2350    8.5090    0.7050 ha        1 I08      0.163000
     62 H12        -3.3590    7.0090    2.4110 h4        1 I08      0.062100
     63 H16        -1.6510    3.5850    0.7570 h4        1 I08      0.062100
     64 H15        -0.4640    4.9020   -1.0150 ha        1 I08      0.163000
     65 H232        0.3780    6.4930   -2.6580 hn        1 I08      0.471800
@<TRIPOS>BOND
     1    1    2 1   
     2    2    3 ar  
     3    2   10 ar  
     4    3    4 1   
     5    3    6 ar  
     6    4    5 1   
     7    5   37 1   
     8    5   38 1   
     9    5   39 1   
    10    6    7 ar  
    11    6   40 1   
    12    7    8 ar  
    13    7   41 1   
    14    8    9 1   
    15    8   10 ar  
    16    9   42 1   
    17   10   11 1   
    18   11   12 2   
    19   11   13 1   
    20   13   14 ar  
    21   13   16 ar  
    22   14   15 ar  
    23   14   43 1   
    24   15   18 ar  
    25   15   44 1   
    26   16   17 ar  
    27   16   45 1   
    28   17   18 ar  
    29   17   46 1   
    30   18   19 1   
    31   19   20 2   
    32   19   47 1   
    33   20   21 1   
    34   20   48 1   
    35   21   22 1   
    36   21   27 1   
    37   21   49 1   
    38   22   23 1   
    39   22   50 1   
    40   22   51 1   
    41   23   24 1   
    42   23   52 1   
    43   23   53 1   
    44   24   25 1   
    45   24   54 1   
    46   24   55 1   
    47   25   26 1   
    48   25   56 1   
    49   26   27 1   
    50   26   57 1   
    51   26   58 1   
    52   27   28 1   
    53   27   59 1   
    54   28   29 1   
    55   28   60 1   
    56   28   65 1   
    57   29   30 2   
    58   29   31 1   
    59   31   32 ar  
    60   31   36 ar  
    61   32   33 ar  
    62   32   61 1   
    63   33   34 ar  
    64   33   62 1   
    65   34   35 ar  
    66   35   36 ar  
    67   35   63 1   
    68   36   64 1   
@<TRIPOS>SUBSTRUCTURE
     1 I08         1 TEMP              0 ****  ****    0 ROOT
