@<TRIPOS>MOLECULE
I08
   65    68     1     0     0
SMALL
bcc


@<TRIPOS>ATOM
      1 F96         1.2400    0.9440    1.1620 f         1 I08     -0.120900
      2 C76         2.1640    0.2230    0.4880 ca        1 I08      0.153900
      3 C75         3.3980   -0.0950    1.1140 ca        1 I08      0.061100
      4 O95         3.5490    0.4160    2.3870 os        1 I08     -0.314900
      5 C98         4.6300   -0.1170    3.1470 c3        1 I08      0.110700
      6 C74         4.3600   -0.8460    0.4350 ca        1 I08     -0.123000
      7 C73         4.1160   -1.2770   -0.8650 ca        1 I08     -0.189000
      8 C72         2.9040   -0.9590   -1.4920 ca        1 I08      0.151100
      9 O92         2.6230   -1.3420   -2.7820 oh        1 I08     -0.492100
     10 C71         1.9140   -0.2090   -0.8290 ca        1 I08     -0.202600
     11 C61         0.6180    0.0600   -1.4990 c         1 I08      0.609300
     12 O62        -0.3010   -0.7620   -1.4960 o         1 I08     -0.482100
     13 C54         0.4800    1.3630   -2.1970 ca        1 I08     -0.128600
     14 C55        -0.3560    1.4430   -3.3200 ca        1 I08     -0.081000
     15 C56        -0.5240    2.6540   -3.9820 ca        1 I08     -0.122500
     16 C53         1.1500    2.5070   -1.7530 ca        1 I08     -0.081000
     17 C52         0.9710    3.7240   -2.4080 ca        1 I08     -0.122500
     18 C51         0.1240    3.8120   -3.5220 ca        1 I08     -0.086800
     19 C42        -0.1010    5.0680   -4.2180 ce        1 I08     -0.064200
     20 C41         0.0920    6.2820   -3.6840 c2        1 I08     -0.252200
     21 C37        -0.1600    7.5480   -4.4310 c3        1 I08     -0.036500
     22 C36         1.0970    8.4070   -4.5010 c3        1 I08     -0.066400
     23 C35         1.1600    9.2170   -5.7780 c3        1 I08     -0.086400
     24 C34         0.1800   10.3860   -5.8430 c3        1 I08      0.156800
     25 N33        -1.1870   10.0590   -5.4790 n3        1 I08     -0.847200
     26 C32        -1.3820    9.8040   -4.0740 c3        1 I08      0.145800
     27 C31        -1.3230    8.2930   -3.7370 c3        1 I08      0.137500
     28 N23        -2.6230    7.6070   -4.1020 n4        1 I08     -0.676800
     29 C21        -3.7190    7.8900   -3.1070 c         1 I08      0.566700
     30 O22        -4.4100    8.8710   -3.3570 o         1 I08     -0.427100
     31 C14        -3.8680    6.9640   -1.9780 ca        1 I08     -0.157600
     32 C13        -5.0720    7.0260   -1.2580 ca        1 I08     -0.195800
     33 C12        -5.2410    6.1480   -0.1680 ca        1 I08      0.414200
     34 N11        -4.3090    5.2600    0.2190 nb        1 I08     -0.595000
     35 C16        -3.1570    5.2170   -0.4790 ca        1 I08      0.414200
     36 C15        -2.8840    6.0460   -1.5830 ca        1 I08     -0.195800
     37 H981        4.5770   -1.2320    3.1910 h1        1 I08      0.051367
     38 H982        4.4730    0.3290    4.1630 h1        1 I08      0.051367
     39 H983        5.6070    0.2150    2.7180 h1        1 I08      0.051367
     40 H74         5.3120   -1.1030    0.9230 ha        1 I08      0.155000
     41 H73         4.8720   -1.8720   -1.3980 ha        1 I08      0.150000
     42 H92         3.3200   -1.9490   -3.0750 ho        1 I08      0.433000
     43 H55        -0.8780    0.5350   -3.6680 ha        1 I08      0.162000
     44 H56        -1.1700    2.7020   -4.8720 ha        1 I08      0.136500
     45 H53         1.8150    2.4470   -0.8750 ha        1 I08      0.162000
     46 H52         1.5150    4.6120   -2.0530 ha        1 I08      0.136500
     47 H42        -0.4640    4.9620   -5.2590 ha        1 I08      0.129000
     48 H41         0.4890    6.4120   -2.6640 ha        1 I08      0.143000
     49 H37        -0.4570    7.3080   -5.4970 hc        1 I08      0.077700
     50 H361        1.9900    7.7230   -4.4740 hc        1 I08      0.063700
     51 H362        1.1710    9.0750   -3.6040 hc        1 I08      0.063700
     52 H351        2.1930    9.6450   -5.8820 hc        1 I08      0.064700
     53 H352        0.9920    8.5410   -6.6580 hc        1 I08      0.064700
     54 H341        0.5850   11.2210   -5.1960 h1        1 I08      0.052700
     55 H342        0.1600   10.7630   -6.9070 h1        1 I08      0.052700
     56 H33        -1.8080   10.7800   -5.7980 hn        1 I08      0.392800
     57 H321       -0.5920   10.2900   -3.4260 h1        1 I08      0.072700
     58 H322       -2.3790   10.2140   -3.7390 h1        1 I08      0.072700
     59 H31        -1.2130    8.1950   -2.6150 hx        1 I08      0.098700
     60 H23        -2.4540    6.5950   -4.1530 hn        1 I08      0.466300
     61 H13        -5.8650    7.7410   -1.5330 ha        1 I08      0.167000
     62 H12        -6.1770    6.1620    0.4270 h4        1 I08      0.060100
     63 H16        -2.4110    4.4750   -0.1320 h4        1 I08      0.060100
     64 H15        -1.9090    5.9550   -2.0860 ha        1 I08      0.167000
     65 H232       -2.9110    7.9470   -5.0310 hn        1 I08      0.466300
@<TRIPOS>BOND
     1    1    2 1   
     2    2    3 ar  
     3    2   10 ar  
     4    3    4 1   
     5    3    6 ar  
     6    4    5 1   
     7    5   37 1   
     8    5   38 1   
     9    5   39 1   
    10    6    7 ar  
    11    6   40 1   
    12    7    8 ar  
    13    7   41 1   
    14    8    9 1   
    15    8   10 ar  
    16    9   42 1   
    17   10   11 1   
    18   11   12 2   
    19   11   13 1   
    20   13   14 ar  
    21   13   16 ar  
    22   14   15 ar  
    23   14   43 1   
    24   15   18 ar  
    25   15   44 1   
    26   16   17 ar  
    27   16   45 1   
    28   17   18 ar  
    29   17   46 1   
    30   18   19 1   
    31   19   20 2   
    32   19   47 1   
    33   20   21 1   
    34   20   48 1   
    35   21   22 1   
    36   21   27 1   
    37   21   49 1   
    38   22   23 1   
    39   22   50 1   
    40   22   51 1   
    41   23   24 1   
    42   23   52 1   
    43   23   53 1   
    44   24   25 1   
    45   24   54 1   
    46   24   55 1   
    47   25   26 1   
    48   25   56 1   
    49   26   27 1   
    50   26   57 1   
    51   26   58 1   
    52   27   28 1   
    53   27   59 1   
    54   28   29 1   
    55   28   60 1   
    56   28   65 1   
    57   29   30 2   
    58   29   31 1   
    59   31   32 ar  
    60   31   36 ar  
    61   32   33 ar  
    62   32   61 1   
    63   33   34 ar  
    64   33   62 1   
    65   34   35 ar  
    66   35   36 ar  
    67   35   63 1   
    68   36   64 1   
@<TRIPOS>SUBSTRUCTURE
     1 I08         1 TEMP              0 ****  ****    0 ROOT
