@<TRIPOS>MOLECULE
I09
   69    71     1     0     0
SMALL
bcc


@<TRIPOS>ATOM
      1 C1          0.3950   -0.3630   -0.0690 c3        1 I09      0.132500
      2 C10        -0.4180   -1.6480   -0.2790 c         1 I09      0.501100
      3 N11        -1.8940   -1.4110   -0.5310 n4        1 I09     -0.679800
      4 C12        -2.7350   -2.6270   -0.3350 c3        1 I09      0.101800
      5 C13        -4.2150   -2.3630   -0.5800 c3        1 I09     -0.108400
      6 C14        -4.9380   -3.7070   -0.6780 c3        1 I09      0.150100
      7 O14        -4.3520   -4.4010   -1.7680 oh        1 I09     -0.621800
      8 C15        -6.4380   -3.4860   -0.9030 c3        1 I09      0.098400
      9 O15        -6.9850   -4.7820   -1.0620 oh        1 I09     -0.605800
     10 O10        -0.0210   -2.8000   -0.2840 o         1 I09     -0.405100
     11 N1          1.8220   -0.5440    0.0250 n3        1 I09     -0.811200
     12 C2         -0.1110    0.3320    1.2320 c3        1 I09     -0.028400
     13 C21        -1.1560    1.3530    0.9550 ca        1 I09     -0.137300
     14 C26        -1.0040    2.3330   -0.0340 ca        1 I09     -0.122000
     15 C25        -2.0080    3.2780   -0.2480 ca        1 I09     -0.105000
     16 C22        -2.3310    1.3260    1.7210 ca        1 I09     -0.148000
     17 C23        -3.3360    2.2710    1.4930 ca        1 I09      0.014400
     18 CL2        -4.7520    2.2220    2.4210 cl        1 I09     -0.051400
     19 C24        -3.1770    3.2540    0.5090 ca        1 I09     -0.099000
     20 C3          1.1940    0.8160    1.9390 c3        1 I09      0.088400
     21 C37         1.5250    2.1720    1.5250 c1        1 I09      0.211700
     22 N37         1.8100    3.2440    1.1770 n1        1 I09     -0.328800
     23 C31         1.0690    0.6960    3.4320 ca        1 I09     -0.106300
     24 C32         1.1730    1.8180    4.2620 ca        1 I09     -0.110000
     25 C33         1.0530    1.6940    5.6460 ca        1 I09     -0.117500
     26 C36         0.8390   -0.5580    4.0180 ca        1 I09     -0.110000
     27 C35         0.7190   -0.6920    5.3970 ca        1 I09     -0.117500
     28 C34         0.8250    0.4380    6.2160 ca        1 I09      0.032400
     29 CL3         0.6780    0.2810    7.8950 cl        1 I09     -0.053400
     30 C4          2.2880   -0.1700    1.3680 c3        1 I09      0.184500
     31 C41         3.6810    0.4610    1.3570 c3        1 I09     -0.070400
     32 C42         4.8370   -0.5370    1.4540 c3        1 I09     -0.056000
     33 C45         4.7160   -1.6470    0.4230 c3        1 I09     -0.091100
     34 C44         6.1280    0.2350    1.1950 c3        1 I09     -0.091100
     35 C43         4.9070   -1.1450    2.8480 c3        1 I09     -0.091100
     36 H1          0.2050    0.2810   -0.9830 h1        1 I09      0.108700
     37 H2         -2.2150   -0.6550    0.0950 hn        1 I09      0.462300
     38 H3         -2.5700   -2.9950    0.7170 hx        1 I09      0.123700
     39 H4         -2.3670   -3.4260   -1.0490 hx        1 I09      0.123700
     40 H5         -4.6610   -1.7680    0.2570 hc        1 I09      0.072200
     41 H6         -4.3700   -1.8040   -1.5410 hc        1 I09      0.072200
     42 H7         -4.7860   -4.3070    0.2640 h1        1 I09      0.063700
     43 H8         -4.9230   -5.1590   -1.9650 ho        1 I09      0.451000
     44 H9         -6.8940   -2.9720   -0.0170 h1        1 I09      0.043700
     45 H10        -6.6110   -2.8730   -1.8280 h1        1 I09      0.043700
     46 H11        -7.9250   -4.6750   -1.2540 ho        1 I09      0.430000
     47 H12         2.1610   -1.4350   -0.2790 hn        1 I09      0.416800
     48 H14        -0.5520   -0.4580    1.9090 hc        1 I09      0.069700
     49 H15        -0.0810    2.3840   -0.6350 ha        1 I09      0.157000
     50 H16        -1.8670    4.0590   -1.0140 ha        1 I09      0.164000
     51 H17        -2.4470    0.5920    2.5340 ha        1 I09      0.152000
     52 H18        -3.9620    4.0100    0.3450 ha        1 I09      0.171000
     53 H19         1.3520    2.8220    3.8450 ha        1 I09      0.139000
     54 H20         1.1410    2.5880    6.2850 ha        1 I09      0.162000
     55 H21         0.7610   -1.4620    3.3940 ha        1 I09      0.139000
     56 H22         0.5470   -1.6850    5.8410 ha        1 I09      0.162000
     57 H23         2.3190   -1.0770    2.0440 h1        1 I09      0.061700
     58 H24         3.7470    1.1510    2.2420 hc        1 I09      0.070200
     59 H25         3.8150    1.0830    0.4320 hc        1 I09      0.070200
     60 H26         5.6660   -2.2350    0.3870 hc        1 I09      0.040144
     61 H27         4.5280   -1.2210   -0.5920 hc        1 I09      0.040144
     62 H28         3.8910   -2.3500    0.6900 hc        1 I09      0.040144
     63 H29         6.1390    0.6380    0.1540 hc        1 I09      0.040144
     64 H30         7.0100   -0.4380    1.3250 hc        1 I09      0.040144
     65 H31         6.2220    1.0860    1.9110 hc        1 I09      0.040144
     66 H32         5.7920   -1.8230    2.9220 hc        1 I09      0.040144
     67 H33         3.9920   -1.7410    3.0750 hc        1 I09      0.040144
     68 H34         5.0110   -0.3430    3.6180 hc        1 I09      0.040144
     69 H112       -2.0040   -1.0830   -1.4980 hn        1 I09      0.462300
@<TRIPOS>BOND
     1    1    2 1   
     2    1   11 1   
     3    1   12 1   
     4    1   36 1   
     5    2    3 1   
     6    2   10 2   
     7    3    4 1   
     8    3   37 1   
     9    3   69 1   
    10    4    5 1   
    11    4   38 1   
    12    4   39 1   
    13    5    6 1   
    14    5   40 1   
    15    5   41 1   
    16    6    7 1   
    17    6    8 1   
    18    6   42 1   
    19    7   43 1   
    20    8    9 1   
    21    8   44 1   
    22    8   45 1   
    23    9   46 1   
    24   11   30 1   
    25   11   47 1   
    26   12   13 1   
    27   12   20 1   
    28   12   48 1   
    29   13   14 ar  
    30   13   16 ar  
    31   14   15 ar  
    32   14   49 1   
    33   15   19 ar  
    34   15   50 1   
    35   16   17 ar  
    36   16   51 1   
    37   17   18 1   
    38   17   19 ar  
    39   19   52 1   
    40   20   21 1   
    41   20   23 1   
    42   20   30 1   
    43   21   22 3   
    44   23   24 ar  
    45   23   26 ar  
    46   24   25 ar  
    47   24   53 1   
    48   25   28 ar  
    49   25   54 1   
    50   26   27 ar  
    51   26   55 1   
    52   27   28 ar  
    53   27   56 1   
    54   28   29 1   
    55   30   31 1   
    56   30   57 1   
    57   31   32 1   
    58   31   58 1   
    59   31   59 1   
    60   32   33 1   
    61   32   34 1   
    62   32   35 1   
    63   33   60 1   
    64   33   61 1   
    65   33   62 1   
    66   34   63 1   
    67   34   64 1   
    68   34   65 1   
    69   35   66 1   
    70   35   67 1   
    71   35   68 1   
@<TRIPOS>SUBSTRUCTURE
     1 I09         1 TEMP              0 ****  ****    0 ROOT
