@<TRIPOS>MOLECULE
I09
   69    71     1     0     0
SMALL
bcc


@<TRIPOS>ATOM
      1 C1          0.0000    0.0000    0.0000 c3        1 I09      0.035500
      2 C10        -0.5250   -1.3880    0.2620 c         1 I09      0.339100
      3 N11        -1.8160   -1.6790    0.0070 ny        1 I09      0.148200
      4 C12        -2.3270   -3.0280    0.2610 c3        1 I09     -0.027200
      5 C13        -3.8100   -3.0910   -0.1100 c3        1 I09     -0.039400
      6 C14        -4.3440   -4.5000    0.1550 c3        1 I09      0.193100
      7 O14        -3.6950   -5.4280   -0.7170 oh        1 I09     -0.593800
      8 C15        -5.8520   -4.5300   -0.0970 c3        1 I09      0.199400
      9 O15        -6.3700   -5.8130    0.2620 oh        1 I09     -0.587800
     10 O10         0.2130   -2.2430    0.7030 o         1 I09     -0.391100
     11 N1          1.4850    0.0000    0.0000 n7        1 I09     -0.551200
     12 C2         -0.3890    0.9500    1.1530 c3        1 I09     -0.002400
     13 C21        -0.6410    2.3390    0.6260 ca        1 I09     -0.134300
     14 C26         0.3560    3.0090   -0.0600 ca        1 I09     -0.109000
     15 C25         0.1250    4.2830   -0.5440 ca        1 I09     -0.055000
     16 C22        -1.8700    2.9400    0.8220 ca        1 I09     -0.092000
     17 C23        -2.1020    4.2150    0.3360 ca        1 I09     -0.034600
     18 Cl2        -3.6450    4.9700    0.5820 cl        1 I09      0.016600
     19 C24        -1.1020    4.8880   -0.3440 ca        1 I09     -0.065000
     20 C3          0.8280    0.9500    2.1010 c3        1 I09      0.110400
     21 C37         1.3890    2.3060    2.2130 c1        1 I09      0.192700
     22 N37         1.8080    3.3580    2.3120 n1        1 I09     -0.335800
     23 C31         0.4340    0.4340    3.4610 ca        1 I09     -0.112300
     24 C32         0.7210    1.1750    4.5910 ca        1 I09     -0.092500
     25 C33         0.3540    0.7050    5.8380 ca        1 I09     -0.079500
     26 C36        -0.2200   -0.7800    3.5760 ca        1 I09     -0.092500
     27 C35        -0.5820   -1.2530    4.8230 ca        1 I09     -0.079500
     28 C34        -0.3000   -0.5090    5.9550 ca        1 I09     -0.030600
     29 Cl3        -0.7600   -1.1000    7.5200 cl        1 I09      0.023600
     30 C4          1.8510    0.0000    1.4400 c3        1 I09      0.092500
     31 C41         3.2730    0.5310    1.6300 c3        1 I09     -0.030400
     32 C42         4.2710   -0.4490    1.0090 c3        1 I09     -0.065000
     33 C45         4.0690   -0.4880   -0.5080 c3        1 I09     -0.003433
     34 C44         5.6970    0.0080    1.3220 c3        1 I09     -0.003433
     35 C43         4.0430   -1.8460    1.5900 c3        1 I09     -0.003433
     36 H1         -0.3750    0.3800   -0.9420 h1        1 I09      0.069700
     37 H2         -1.9720   -1.4860   -0.9630 hn        1 I09      0.261300
     38 H3         -1.7750   -3.7420   -0.3370 hx        1 I09      0.095700
     39 H4         -2.2080   -3.2680    1.3110 hx        1 I09      0.095700
     40 H5         -3.9300   -2.8510   -1.1600 hc        1 I09      0.038200
     41 H6         -4.3620   -2.3770    0.4890 hc        1 I09      0.038200
     42 H7         -4.1450   -4.7730    1.1850 h1        1 I09      0.019700
     43 H8         -3.7120   -6.2870   -0.3300 ho        1 I09      0.428000
     44 H9         -6.0460   -4.3430   -1.1460 h1        1 I09     -0.000300
     45 H10        -6.3340   -3.7660    0.5010 h1        1 I09     -0.000300
     46 H11        -7.3020   -5.8280    0.1160 ho        1 I09      0.414000
     47 H12         1.8190    0.8400   -0.4290 hn        1 I09      0.304800
     48 H14        -1.2640    0.5730    1.6690 hc        1 I09      0.035700
     49 H15         1.3170    2.5360   -0.2160 ha        1 I09      0.114000
     50 H16         0.9050    4.8080   -1.0810 ha        1 I09      0.123000
     51 H17        -2.6590    2.4040    1.3360 ha        1 I09      0.109000
     52 H18        -1.2830    5.8860   -0.7250 ha        1 I09      0.130000
     53 H19         1.2200    2.1320    4.4990 ha        1 I09      0.102000
     54 H20         0.5790    1.2860    6.7240 ha        1 I09      0.123500
     55 H21        -0.4410   -1.3620    2.6900 ha        1 I09      0.102000
     56 H22        -1.0680   -2.2170    4.9160 ha        1 I09      0.123500
     57 H23         1.7570   -0.9980    1.8510 h1        1 I09      0.087700
     58 H24         3.4810    0.6360    2.6880 hc        1 I09      0.038700
     59 H25         3.3660    1.4960    1.1470 hc        1 I09      0.038700
     60 H26         3.8950    0.5160   -0.8750 hc        1 I09      0.011922
     61 H27         4.9550   -0.8970   -0.9790 hc        1 I09      0.011922
     62 H28         3.2150   -1.1120   -0.7430 hc        1 I09      0.011922
     63 H29         6.4040   -0.6820    0.8760 hc        1 I09      0.011922
     64 H30         5.8570    1.0000    0.9180 hc        1 I09      0.011922
     65 H31         5.8420    0.0280    2.3960 hc        1 I09      0.011922
     66 H32         3.7840   -1.7630    2.6380 hc        1 I09      0.011922
     67 H33         4.9480   -2.4320    1.4860 hc        1 I09      0.011922
     68 H34         3.2350   -2.3310    1.0560 hc        1 I09      0.011922
     69 H112       -2.3700   -1.0490    0.5540 hn        1 I09      0.261300
@<TRIPOS>BOND
     1    1    2 1   
     2    1   11 1   
     3    1   12 1   
     4    1   36 1   
     5    2    3 1   
     6    2   10 2   
     7    3    4 1   
     8    3   37 1   
     9    3   69 1   
    10    4    5 1   
    11    4   38 1   
    12    4   39 1   
    13    5    6 1   
    14    5   40 1   
    15    5   41 1   
    16    6    7 1   
    17    6    8 1   
    18    6   42 1   
    19    7   43 1   
    20    8    9 1   
    21    8   44 1   
    22    8   45 1   
    23    9   46 1   
    24   11   30 1   
    25   11   47 1   
    26   12   13 1   
    27   12   20 1   
    28   12   48 1   
    29   13   14 ar  
    30   13   16 ar  
    31   14   15 ar  
    32   14   49 1   
    33   15   19 ar  
    34   15   50 1   
    35   16   17 ar  
    36   16   51 1   
    37   17   18 1   
    38   17   19 ar  
    39   19   52 1   
    40   20   21 1   
    41   20   23 1   
    42   20   30 1   
    43   21   22 3   
    44   23   24 ar  
    45   23   26 ar  
    46   24   25 ar  
    47   24   53 1   
    48   25   28 ar  
    49   25   54 1   
    50   26   27 ar  
    51   26   55 1   
    52   27   28 ar  
    53   27   56 1   
    54   28   29 1   
    55   30   31 1   
    56   30   57 1   
    57   31   32 1   
    58   31   58 1   
    59   31   59 1   
    60   32   33 1   
    61   32   34 1   
    62   32   35 1   
    63   33   60 1   
    64   33   61 1   
    65   33   62 1   
    66   34   63 1   
    67   34   64 1   
    68   34   65 1   
    69   35   66 1   
    70   35   67 1   
    71   35   68 1   
@<TRIPOS>SUBSTRUCTURE
     1 I09         1 TEMP              0 ****  ****    0 ROOT
