@<TRIPOS>MOLECULE
I09
   68    70     1     0     0
SMALL
bcc


@<TRIPOS>ATOM
      1 C1         -0.0800    0.8030   -0.7430 c3        1 I09      0.087500
      2 C10        -1.5210    0.3680   -0.3810 c         1 I09      0.671100
      3 N11        -2.4360    0.3740   -1.4060 n         1 I09     -0.554900
      4 C12        -3.8070   -0.0210   -1.2250 c3        1 I09      0.085000
      5 C13        -4.8080    0.9640   -1.8300 c3        1 I09     -0.127400
      6 C14        -6.2200    0.4060   -1.7120 c3        1 I09      0.137100
      7 O14        -6.3970   -0.7710   -2.4820 oh        1 I09     -0.592800
      8 C15        -7.2540    1.4560   -2.1400 c3        1 I09      0.096400
      9 O15        -7.2370    2.4820   -1.1640 oh        1 I09     -0.595800
     10 O10        -1.8410    0.0710    0.7870 o         1 I09     -0.623100
     11 N1          0.4680   -0.0650   -1.7850 n3        1 I09     -0.794200
     12 C2          0.8440    0.7430    0.5090 c3        1 I09     -0.035400
     13 C21         1.4680    2.0680    0.7970 ca        1 I09     -0.079300
     14 C26         2.0350    2.8560   -0.2120 ca        1 I09     -0.126000
     15 C25         2.5870    4.1000    0.0870 ca        1 I09     -0.115000
     16 C22         1.4590    2.5450    2.1150 ca        1 I09     -0.105000
     17 C23         2.0160    3.7930    2.4060 ca        1 I09      0.018400
     18 CL2         2.0030    4.3630    4.0080 cl        1 I09     -0.089400
     19 C24         2.5820    4.5780    1.3970 ca        1 I09     -0.117000
     20 C3          1.8660   -0.3980    0.2120 c3        1 I09      0.040400
     21 C37         3.1960    0.1580   -0.0020 c1        1 I09      0.225700
     22 N37         4.2520    0.6080   -0.1880 n1        1 I09     -0.371800
     23 C31         1.8690   -1.4370    1.2990 ca        1 I09     -0.083300
     24 C32         3.0590   -1.8940    1.8760 ca        1 I09     -0.112000
     25 C33         3.0390   -2.8740    2.8680 ca        1 I09     -0.124500
     26 C36         0.6510   -1.9840    1.7330 ca        1 I09     -0.112000
     27 C35         0.6220   -2.9620    2.7230 ca        1 I09     -0.124500
     28 C34         1.8200   -3.4080    3.2900 ca        1 I09      0.021400
     29 CL3         1.7910   -4.6030    4.4980 cl        1 I09     -0.090400
     30 C4          1.3430   -1.0430   -1.1380 c3        1 I09      0.169500
     31 C41         2.4950   -1.5610   -1.9940 c3        1 I09     -0.076400
     32 C42         2.1190   -2.6040   -3.0490 c3        1 I09     -0.050000
     33 C45         1.1010   -2.0610   -4.0380 c3        1 I09     -0.088433
     34 C44         3.3970   -2.9610   -3.8070 c3        1 I09     -0.088433
     35 C43         1.5740   -3.8660   -2.3970 c3        1 I09     -0.088433
     36 H1         -0.1550    1.8680   -1.1120 h1        1 I09      0.082700
     37 H2         -2.1210    0.5080   -2.3370 hn        1 I09      0.316500
     38 H3         -3.9720   -1.0310   -1.7040 h1        1 I09      0.066700
     39 H4         -4.0130   -0.1240   -0.1200 h1        1 I09      0.066700
     40 H5         -4.7710    1.9460   -1.2900 hc        1 I09      0.057700
     41 H6         -4.5700    1.1550   -2.9090 hc        1 I09      0.057700
     42 H7         -6.4280    0.0800   -0.6530 h1        1 I09      0.096700
     43 H8         -6.1720   -0.5570   -3.3950 ho        1 I09      0.396000
     44 H9         -6.9900    1.8800   -3.1450 h1        1 I09      0.029700
     45 H10        -8.2680    0.9790   -2.1980 h1        1 I09      0.029700
     46 H11        -7.9810    3.0630   -1.3620 ho        1 I09      0.406000
     47 H12         0.9800    0.4780   -2.4570 hn        1 I09      0.362800
     48 H14         0.2260    0.4470    1.4060 hc        1 I09      0.120700
     49 H15         2.0570    2.4890   -1.2490 ha        1 I09      0.128000
     50 H16         3.0350    4.7080   -0.7130 ha        1 I09      0.140000
     51 H17         1.0120    1.9390    2.9190 ha        1 I09      0.156000
     52 H18         3.0210    5.5590    1.6320 ha        1 I09      0.149000
     53 H19         4.0340   -1.4920    1.5610 ha        1 I09      0.156000
     54 H20         3.9840   -3.2200    3.3140 ha        1 I09      0.151500
     55 H21        -0.3020   -1.6310    1.2990 ha        1 I09      0.156000
     56 H22        -0.3420   -3.3760    3.0550 ha        1 I09      0.151500
     57 H23         0.6800   -1.9130   -0.8510 h1        1 I09      0.090700
     58 H24         3.0080   -0.7050   -2.5090 hc        1 I09      0.054200
     59 H25         3.2410   -2.0330   -1.2990 hc        1 I09      0.054200
     60 H26         1.4120   -1.0530   -4.4040 hc        1 I09      0.036811
     61 H27         1.0190   -2.7470   -4.9160 hc        1 I09      0.036811
     62 H28         0.0930   -1.9800   -3.5650 hc        1 I09      0.036811
     63 H29         3.8070   -2.0600   -4.3220 hc        1 I09      0.036811
     64 H30         4.1690   -3.3550   -3.1040 hc        1 I09      0.036811
     65 H31         3.1830   -3.7430   -4.5740 hc        1 I09      0.036811
     66 H32         1.4510   -4.6670   -3.1660 hc        1 I09      0.036811
     67 H33         2.2760   -4.2330   -1.6100 hc        1 I09      0.036811
     68 H34         0.5780   -3.6770   -1.9310 hc        1 I09      0.036811
@<TRIPOS>BOND
     1    1    2 1   
     2    1   11 1   
     3    1   12 1   
     4    1   36 1   
     5    2    3 1   
     6    2   10 2   
     7    3    4 1   
     8    3   37 1   
     9    4    5 1   
    10    4   38 1   
    11    4   39 1   
    12    5    6 1   
    13    5   40 1   
    14    5   41 1   
    15    6    7 1   
    16    6    8 1   
    17    6   42 1   
    18    7   43 1   
    19    8    9 1   
    20    8   44 1   
    21    8   45 1   
    22    9   46 1   
    23   11   30 1   
    24   11   47 1   
    25   12   13 1   
    26   12   20 1   
    27   12   48 1   
    28   13   14 ar  
    29   13   16 ar  
    30   14   15 ar  
    31   14   49 1   
    32   15   19 ar  
    33   15   50 1   
    34   16   17 ar  
    35   16   51 1   
    36   17   18 1   
    37   17   19 ar  
    38   19   52 1   
    39   20   21 1   
    40   20   23 1   
    41   20   30 1   
    42   21   22 3   
    43   23   24 ar  
    44   23   26 ar  
    45   24   25 ar  
    46   24   53 1   
    47   25   28 ar  
    48   25   54 1   
    49   26   27 ar  
    50   26   55 1   
    51   27   28 ar  
    52   27   56 1   
    53   28   29 1   
    54   30   31 1   
    55   30   57 1   
    56   31   32 1   
    57   31   58 1   
    58   31   59 1   
    59   32   33 1   
    60   32   34 1   
    61   32   35 1   
    62   33   60 1   
    63   33   61 1   
    64   33   62 1   
    65   34   63 1   
    66   34   64 1   
    67   34   65 1   
    68   35   66 1   
    69   35   67 1   
    70   35   68 1   
@<TRIPOS>SUBSTRUCTURE
     1 I09         1 TEMP              0 ****  ****    0 ROOT
