@<TRIPOS>MOLECULE
I09
   69    71     1     0     0
SMALL
bcc


@<TRIPOS>ATOM
      1 C1          0.4050   -0.3440   -0.0680 c3        1 I09      0.132500
      2 C10        -0.4070   -1.6280   -0.2940 c         1 I09      0.501100
      3 N11        -1.8820   -1.3870   -0.5490 n4        1 I09     -0.679800
      4 C12        -2.7240   -2.6040   -0.3620 c3        1 I09      0.101800
      5 C13        -4.2030   -2.3380   -0.6100 c3        1 I09     -0.108400
      6 C14        -4.9270   -3.6810   -0.7150 c3        1 I09      0.150100
      7 O14        -4.3390   -4.3720   -1.8070 oh        1 I09     -0.621800
      8 C15        -6.4270   -3.4570   -0.9430 c3        1 I09      0.098400
      9 O15        -6.9740   -4.7530   -1.1080 oh        1 I09     -0.605800
     10 O10        -0.0100   -2.7790   -0.3110 o         1 I09     -0.405100
     11 N1          1.8320   -0.5270    0.0300 n3        1 I09     -0.811200
     12 C2         -0.1050    0.3360    1.2390 c3        1 I09     -0.028400
     13 C21        -1.1480    1.3620    0.9680 ca        1 I09     -0.137300
     14 C26        -0.9910    2.3520   -0.0110 ca        1 I09     -0.122000
     15 C25        -1.9920    3.3000   -0.2190 ca        1 I09     -0.105000
     16 C22        -2.3270    1.3280    1.7280 ca        1 I09     -0.148000
     17 C23        -3.3300    2.2760    1.5050 ca        1 I09      0.014400
     18 CL2        -4.7500    2.2190    2.4260 cl        1 I09     -0.051400
     19 C24        -3.1650    3.2700    0.5330 ca        1 I09     -0.099000
     20 C3          1.1960    0.8120    1.9570 c3        1 I09      0.088400
     21 C37         1.5300    2.1720    1.5590 c1        1 I09      0.211700
     22 N37         1.8170    3.2480    1.2260 n1        1 I09     -0.328800
     23 C31         1.0650    0.6760    3.4470 ca        1 I09     -0.106300
     24 C32         1.1650    1.7880    4.2910 ca        1 I09     -0.110500
     25 C33         1.0390    1.6480    5.6730 ca        1 I09     -0.117500
     26 C36         0.8320   -0.5850    4.0180 ca        1 I09     -0.110500
     27 C35         0.7050   -0.7350    5.3950 ca        1 I09     -0.117500
     28 C34         0.8080    0.3860    6.2270 ca        1 I09      0.032400
     29 CL3         0.6530    0.2090    7.9040 cl        1 I09     -0.053400
     30 C4          2.2920   -0.1680    1.3800 c3        1 I09      0.184500
     31 C41         3.6860    0.4630    1.3820 c3        1 I09     -0.070400
     32 C42         4.8400   -0.5370    1.4730 c3        1 I09     -0.056000
     33 C45         4.7240   -1.6350    0.4280 c3        1 I09     -0.091100
     34 C44         6.1340    0.2370    1.2280 c3        1 I09     -0.091100
     35 C43         4.9050   -1.1610    2.8600 c3        1 I09     -0.091100
     36 H1          0.2190    0.3080   -0.9760 h1        1 I09      0.108700
     37 H2         -2.2040   -0.6350    0.0810 hn        1 I09      0.462300
     38 H3         -2.3550   -3.3990   -1.0800 hx        1 I09      0.123700
     39 H4         -2.5620   -2.9780    0.6880 hx        1 I09      0.123700
     40 H5         -4.6510   -1.7460    0.2290 hc        1 I09      0.072200
     41 H6         -4.3550   -1.7750   -1.5690 hc        1 I09      0.072200
     42 H7         -4.7780   -4.2850    0.2250 h1        1 I09      0.063700
     43 H8         -4.9110   -5.1280   -2.0080 ho        1 I09      0.451000
     44 H9         -6.8840   -2.9470   -0.0560 h1        1 I09      0.043700
     45 H10        -6.5960   -2.8420   -1.8660 h1        1 I09      0.043700
     46 H11        -7.9140   -4.6440   -1.3020 ho        1 I09      0.430000
     47 H12         2.1730   -1.4150   -0.2820 hn        1 I09      0.416800
     48 H14        -0.5510   -0.4600    1.9050 hc        1 I09      0.069700
     49 H15        -0.0650    2.4090   -0.6070 ha        1 I09      0.157000
     50 H16        -1.8480    4.0900   -0.9750 ha        1 I09      0.164000
     51 H17        -2.4480    0.5850    2.5320 ha        1 I09      0.152000
     52 H18        -3.9490    4.0280    0.3720 ha        1 I09      0.171000
     53 H19         1.3460    2.7960    3.8860 ha        1 I09      0.139000
     54 H20         1.1240    2.5350    6.3220 ha        1 I09      0.162000
     55 H21         0.7550   -1.4820    3.3840 ha        1 I09      0.139000
     56 H22         0.5310   -1.7330    5.8280 ha        1 I09      0.162000
     57 H23         2.3200   -1.0830    2.0460 h1        1 I09      0.061700
     58 H24         3.8240    1.0950    0.4640 hc        1 I09      0.070200
     59 H25         3.7480    1.1420    2.2750 hc        1 I09      0.070200
     60 H26         5.6740   -2.2230    0.3890 hc        1 I09      0.040144
     61 H27         4.5410   -1.1980   -0.5820 hc        1 I09      0.040144
     62 H28         3.8970   -2.3410    0.6830 hc        1 I09      0.040144
     63 H29         6.2240    1.0800    1.9540 hc        1 I09      0.040144
     64 H30         6.1490    0.6520    0.1920 hc        1 I09      0.040144
     65 H31         7.0140   -0.4380    1.3540 hc        1 I09      0.040144
     66 H32         5.7890   -1.8400    2.9300 hc        1 I09      0.040144
     67 H33         5.0060   -0.3680    3.6390 hc        1 I09      0.040144
     68 H34         3.9890   -1.7600    3.0760 hc        1 I09      0.040144
     69 H112       -1.9890   -1.0550   -1.5150 hn        1 I09      0.462300
@<TRIPOS>BOND
     1    1    2 1   
     2    1   11 1   
     3    1   12 1   
     4    1   36 1   
     5    2    3 1   
     6    2   10 2   
     7    3    4 1   
     8    3   37 1   
     9    3   69 1   
    10    4    5 1   
    11    4   38 1   
    12    4   39 1   
    13    5    6 1   
    14    5   40 1   
    15    5   41 1   
    16    6    7 1   
    17    6    8 1   
    18    6   42 1   
    19    7   43 1   
    20    8    9 1   
    21    8   44 1   
    22    8   45 1   
    23    9   46 1   
    24   11   30 1   
    25   11   47 1   
    26   12   13 1   
    27   12   20 1   
    28   12   48 1   
    29   13   14 ar  
    30   13   16 ar  
    31   14   15 ar  
    32   14   49 1   
    33   15   19 ar  
    34   15   50 1   
    35   16   17 ar  
    36   16   51 1   
    37   17   18 1   
    38   17   19 ar  
    39   19   52 1   
    40   20   21 1   
    41   20   23 1   
    42   20   30 1   
    43   21   22 3   
    44   23   24 ar  
    45   23   26 ar  
    46   24   25 ar  
    47   24   53 1   
    48   25   28 ar  
    49   25   54 1   
    50   26   27 ar  
    51   26   55 1   
    52   27   28 ar  
    53   27   56 1   
    54   28   29 1   
    55   30   31 1   
    56   30   57 1   
    57   31   32 1   
    58   31   58 1   
    59   31   59 1   
    60   32   33 1   
    61   32   34 1   
    62   32   35 1   
    63   33   60 1   
    64   33   61 1   
    65   33   62 1   
    66   34   63 1   
    67   34   64 1   
    68   34   65 1   
    69   35   66 1   
    70   35   67 1   
    71   35   68 1   
@<TRIPOS>SUBSTRUCTURE
     1 I09         1 TEMP              0 ****  ****    0 ROOT
