@<TRIPOS>MOLECULE
I0G
   39    37     1     0     0
SMALL
bcc


@<TRIPOS>ATOM
      1 C4         -0.3570    0.1600    1.9260 c3        1 I0G     -0.062000
      2 C6          1.1540    0.1600    1.9260 c2        1 I0G     -0.085000
      3 C7          1.8700    0.1600    3.1320 c2        1 I0G     -0.132000
      4 C8          3.2600    0.1720    3.1140 c1        1 I0G      0.054000
      5 C10         3.9420    0.1840    1.8990 c2        1 I0G     -0.189000
      6 C17        -2.1650    1.2520   -2.1610 c1        1 I0G     -0.125000
      7 C21        -0.8200   -0.1480   -4.1380 c1        1 I0G     -0.217000
      8 C22        -0.2790   -0.0540   -2.8660 c1        1 I0G     -0.062000
      9 C24        -1.1880   -2.0400    1.5700 c3        1 I0G     -0.156000
     10 C1         -1.2060   -1.2600    0.1650 c3        1 I0G     -0.152000
     11 C2         -1.1350    0.0710    0.4890 c3        1 I0G     -0.124000
     12 O9          3.9780    0.2050    4.3240 o         1 I0G     -0.254000
     13 C11         3.2330    0.1840    0.7040 c1        1 I0G     -0.111000
     14 C12         1.8310    0.1720    0.7200 c1        1 I0G      0.043000
     15 O13         1.0450    0.3090   -0.5880 os        1 I0G     -0.209000
     16 C14        -0.3330    0.8290   -0.5620 c3        1 I0G      0.082000
     17 C16        -0.9520    0.6460   -1.8770 c1        1 I0G     -0.114000
     18 C18        -2.7060    1.1580   -3.4330 c1        1 I0G     -0.125000
     19 C19        -2.0330    0.4580   -4.4220 c1        1 I0G      0.082000
     20 O20        -2.5540    0.4110   -5.7280 oh        1 I0G     -0.251000
     21 C23        -0.7950   -0.9620    2.6570 c3        1 I0G     -0.151000
     22 H4         -0.6610    0.9650    2.3880 hc        1 I0G      0.100000
     23 H7          1.3930    0.1510    3.9830 ha        1 I0G      0.152000
     24 H10         4.9180    0.1920    1.8880 ha        1 I0G      0.136000
     25 H17        -2.6390    1.7450   -1.4640 ha        1 I0G      0.142500
     26 H21        -0.3460   -0.6410   -4.8350 ha        1 I0G      0.135000
     27 H22         0.5760   -0.4810   -2.6660 ha        1 I0G      0.152000
     28 H241       -0.5240   -2.7550    1.5500 hc        1 I0G      0.082000
     29 H242       -2.0720   -2.4060    1.7630 hc        1 I0G      0.082000
     30 H11A       -0.4350   -1.5190   -0.3750 hc        1 I0G      0.091500
     31 H12        -2.0340   -1.4470   -0.3150 hc        1 I0G      0.091500
     32 H2         -2.0320    0.4480    0.5660 hc        1 I0G      0.099000
     33 HO9         4.1390    1.0490    4.5490 ho        1 I0G      0.216000
     34 H11         3.7110    0.1920   -0.1470 ha        1 I0G      0.150000
     35 H14        -0.3190    1.7790   -0.3380 h1        1 I0G      0.094000
     36 H18        -3.5610    1.5850   -3.6330 ha        1 I0G      0.142500
     37 HO20       -2.2560    1.1070   -6.1910 ho        1 I0G      0.219000
     38 H231       -0.0740   -1.2990    3.2230 hc        1 I0G      0.087000
     39 H232       -1.5720   -0.7300    3.2000 hc        1 I0G      0.087000
@<TRIPOS>BOND
     1    1    2 1   
     2    1   11 1   
     3    1   21 1   
     4    1   22 1   
     5    2    3 1   
     6    2   14 1   
     7    3    4 1   
     8    3   23 1   
     9    4    5 1   
    10    5   13 1   
    11    5   24 1   
    12    6   18 1   
    13    6   25 1   
    14    7   19 1   
    15    7   26 1   
    16    8   17 1   
    17    8   27 1   
    18    9   10 1   
    19    9   21 1   
    20    9   28 1   
    21    9   29 1   
    22   10   11 1   
    23   10   30 1   
    24   10   31 1   
    25   11   16 1   
    26   11   32 1   
    27   12   33 1   
    28   13   34 1   
    29   14   15 1   
    30   15   16 1   
    31   16   17 1   
    32   16   35 1   
    33   18   36 1   
    34   19   20 1   
    35   20   37 1   
    36   21   38 1   
    37   21   39 1   
@<TRIPOS>SUBSTRUCTURE
     1 I0G         1 TEMP              0 ****  ****    0 ROOT
