@<TRIPOS>MOLECULE
I0G
   39    42     1     0     0
SMALL
bcc


@<TRIPOS>ATOM
      1 C4         -0.9590   -5.2160   -1.0040 c3        1 I0G     -0.015400
      2 C6         -0.6360   -3.7710   -0.8170 ca        1 I0G     -0.092300
      3 C7         -1.4810   -2.7960   -1.3530 ca        1 I0G     -0.132000
      4 C8         -1.1890   -1.4390   -1.1570 ca        1 I0G      0.098100
      5 C10        -0.0570   -1.0370   -0.4330 ca        1 I0G     -0.189000
      6 C17         3.0390   -7.4340   -0.2160 ca        1 I0G     -0.077000
      7 C21         3.6570   -7.0030    2.4830 ca        1 I0G     -0.187500
      8 C22         2.7400   -6.1820    1.8340 ca        1 I0G     -0.077000
      9 C24        -2.0450   -6.3530    0.8990 c3        1 I0G     -0.077400
     10 C1         -0.5400   -6.5540    1.0080 c3        1 I0G     -0.073400
     11 C2          0.0590   -6.1550   -0.3390 c3        1 I0G     -0.084700
     12 O9         -2.0730   -0.5390   -1.7130 oh        1 I0G     -0.500100
     13 C11         0.7990   -2.0010    0.0860 ca        1 I0G     -0.111000
     14 C12         0.5080   -3.3600   -0.1110 ca        1 I0G      0.088100
     15 O13         1.3930   -4.2580    0.4630 os        1 I0G     -0.324900
     16 C14         1.4430   -5.5190   -0.2350 c3        1 I0G      0.200400
     17 C16         2.4240   -6.3910    0.4860 ca        1 I0G     -0.120300
     18 C18         3.9550   -8.2690    0.4170 ca        1 I0G     -0.187500
     19 C19         4.2620   -8.0500    1.7680 ca        1 I0G      0.127100
     20 O20         5.1570   -8.8310    2.4620 oh        1 I0G     -0.497100
     21 C23        -2.3150   -5.5800   -0.3840 c3        1 I0G     -0.072400
     22 H4         -0.9850   -5.4190   -2.1110 hc        1 I0G      0.059700
     23 H7         -2.3780   -3.0830   -1.9220 ha        1 I0G      0.151000
     24 H10         0.1550    0.0300   -0.2820 ha        1 I0G      0.136000
     25 H21         3.9140   -6.8460    3.5390 ha        1 I0G      0.143000
     26 H22         2.2610   -5.3540    2.3800 ha        1 I0G      0.143000
     27 H241       -2.4290   -5.7910    1.7870 hc        1 I0G      0.043200
     28 H242       -2.5720   -7.3400    0.8770 hc        1 I0G      0.043200
     29 H11A       -0.1130   -5.9080    1.8170 hc        1 I0G      0.052700
     30 H12        -0.2890   -7.6140    1.2530 hc        1 I0G      0.052700
     31 H2          0.1660   -7.0750   -0.9770 hc        1 I0G      0.058700
     32 HO9        -1.7560    0.3520   -1.5050 ho        1 I0G      0.417000
     33 H11         1.6970   -1.7160    0.6520 ha        1 I0G      0.150000
     34 H14         1.8210   -5.3120   -1.2800 h1        1 I0G      0.053700
     35 H18         4.4340   -9.0880   -0.1350 ha        1 I0G      0.143000
     36 HO20        5.5010   -9.5020    1.8540 ho        1 I0G      0.419000
     37 H231       -2.8960   -6.2110   -1.1030 hc        1 I0G      0.047700
     38 H232       -2.9200   -4.6620   -0.1780 hc        1 I0G      0.047700
     39 H17         2.7980   -7.5970   -1.2780 ha        1 I0G      0.143000
@<TRIPOS>BOND
     1    1    2 1   
     2    1   11 1   
     3    1   21 1   
     4    1   22 1   
     5    2    3 ar  
     6    2   14 ar  
     7    3    4 ar  
     8    3   23 1   
     9    4    5 ar  
    10    4   12 1   
    11    5   13 ar  
    12    5   24 1   
    13    6   17 ar  
    14    6   18 ar  
    15    6   39 1   
    16    7    8 ar  
    17    7   19 ar  
    18    7   25 1   
    19    8   17 ar  
    20    8   26 1   
    21    9   10 1   
    22    9   21 1   
    23    9   27 1   
    24    9   28 1   
    25   10   11 1   
    26   10   29 1   
    27   10   30 1   
    28   11   16 1   
    29   11   31 1   
    30   12   32 1   
    31   13   14 ar  
    32   13   33 1   
    33   14   15 1   
    34   15   16 1   
    35   16   17 1   
    36   16   34 1   
    37   18   19 ar  
    38   18   35 1   
    39   19   20 1   
    40   20   36 1   
    41   21   37 1   
    42   21   38 1   
@<TRIPOS>SUBSTRUCTURE
     1 I0G         1 TEMP              0 ****  ****    0 ROOT
