@<TRIPOS>MOLECULE
I0G
   39    42     1     0     0
SMALL
bcc


@<TRIPOS>ATOM
      1 C4          0.0770   -0.0320    0.0280 c3        1 I0G     -0.015400
      2 C6          1.5660    0.0540   -0.0080 ca        1 I0G     -0.090300
      3 C7          2.2870    0.1440    1.1880 ca        1 I0G     -0.188000
      4 C8          3.6830    0.2020    1.1580 ca        1 I0G      0.099100
      5 C10         4.3870    0.1740   -0.0600 ca        1 I0G     -0.133000
      6 C17        -1.2750    1.1870   -4.2410 ca        1 I0G     -0.077000
      7 C21        -0.3080   -0.7980   -5.9660 ca        1 I0G     -0.187500
      8 C22         0.2280   -0.6560   -4.6910 ca        1 I0G     -0.077000
      9 C24        -0.9100   -2.2810   -0.2340 c3        1 I0G     -0.077400
     10 C1         -0.8270   -1.6240   -1.6040 c3        1 I0G     -0.073400
     11 C2         -0.5560   -0.1400   -1.3690 c3        1 I0G     -0.084700
     12 O9          4.4480    0.2890    2.3010 oh        1 I0G     -0.499100
     13 C11         3.6780    0.1050   -1.2500 ca        1 I0G     -0.115000
     14 C12         2.2740    0.0490   -1.2190 ca        1 I0G      0.088100
     15 O13         1.6460   -0.0480   -2.4500 os        1 I0G     -0.323900
     16 C14         0.3140    0.5060   -2.4440 c3        1 I0G      0.200400
     17 C16        -0.2500    0.3310   -3.8210 ca        1 I0G     -0.121300
     18 C18        -1.8280    1.0570   -5.5110 ca        1 I0G     -0.187500
     19 C19        -1.3410    0.0620   -6.3720 ca        1 I0G      0.127100
     20 O20        -1.8360   -0.1270   -7.6420 oh        1 I0G     -0.497100
     21 C23        -0.4030   -1.2740    0.7900 c3        1 I0G     -0.071400
     22 H4         -0.3070    0.8940    0.5390 hc        1 I0G      0.057700
     23 H7          1.7500    0.1620    2.1480 ha        1 I0G      0.135000
     24 H10         5.4860    0.2140   -0.0530 ha        1 I0G      0.153000
     25 H21         0.0620   -1.5680   -6.6570 ha        1 I0G      0.143000
     26 H22         1.0430   -1.3210   -4.3590 ha        1 I0G      0.143000
     27 H241       -1.9640   -2.5750   -0.0010 hc        1 I0G      0.043200
     28 H242       -0.2930   -3.2140   -0.2100 hc        1 I0G      0.043200
     29 H11A        0.0070   -2.0700   -2.2060 hc        1 I0G      0.053200
     30 H12        -1.7740   -1.7670   -2.1800 hc        1 I0G      0.053200
     31 H2         -1.5360    0.4120   -1.3610 hc        1 I0G      0.058700
     32 HO9         3.8470    0.2910    3.0600 ho        1 I0G      0.416000
     33 H11         4.1970    0.0880   -2.2180 ha        1 I0G      0.152000
     34 H14         0.4080    1.6080   -2.2140 h1        1 I0G      0.053700
     35 H18        -2.6340    1.7280   -5.8380 ha        1 I0G      0.143000
     36 HO20       -2.5270    0.5330   -7.7940 ho        1 I0G      0.419000
     37 H231        0.4240   -1.7110    1.4040 hc        1 I0G      0.045700
     38 H232       -1.2270   -0.9870    1.4920 hc        1 I0G      0.045700
     39 H17        -1.6490    1.9690   -3.5630 ha        1 I0G      0.143000
@<TRIPOS>BOND
     1    1    2 1   
     2    1   11 1   
     3    1   21 1   
     4    1   22 1   
     5    2    3 ar  
     6    2   14 ar  
     7    3    4 ar  
     8    3   23 1   
     9    4    5 ar  
    10    4   12 1   
    11    5   13 ar  
    12    5   24 1   
    13    6   17 ar  
    14    6   18 ar  
    15    6   39 1   
    16    7    8 ar  
    17    7   19 ar  
    18    7   25 1   
    19    8   17 ar  
    20    8   26 1   
    21    9   10 1   
    22    9   21 1   
    23    9   27 1   
    24    9   28 1   
    25   10   11 1   
    26   10   29 1   
    27   10   30 1   
    28   11   16 1   
    29   11   31 1   
    30   12   32 1   
    31   13   14 ar  
    32   13   33 1   
    33   14   15 1   
    34   15   16 1   
    35   16   17 1   
    36   16   34 1   
    37   18   19 ar  
    38   18   35 1   
    39   19   20 1   
    40   20   36 1   
    41   21   37 1   
    42   21   38 1   
@<TRIPOS>SUBSTRUCTURE
     1 I0G         1 TEMP              0 ****  ****    0 ROOT
