@<TRIPOS>MOLECULE
I0G
   39    42     1     0     0
SMALL
bcc


@<TRIPOS>ATOM
      1 C4          0.0770   -0.0420    0.0240 c3        1 I0G     -0.015400
      2 C6          1.5660    0.0410   -0.0000 ca        1 I0G     -0.089300
      3 C7          2.2800    0.0890    1.2030 ca        1 I0G     -0.188000
      4 C8          3.6770    0.1440    1.1820 ca        1 I0G      0.099100
      5 C10         4.3880    0.1570   -0.0310 ca        1 I0G     -0.133000
      6 C17        -1.2580    1.3160   -4.2030 ca        1 I0G     -0.077000
      7 C21        -0.2720   -0.5900   -5.9990 ca        1 I0G     -0.187500
      8 C22         0.2620   -0.4970   -4.7160 ca        1 I0G     -0.077000
      9 C24        -0.9130   -2.2790   -0.3190 c3        1 I0G     -0.077400
     10 C1         -0.8210   -1.5760   -1.6660 c3        1 I0G     -0.073400
     11 C2         -0.5480   -0.1020   -1.3800 c3        1 I0G     -0.084700
     12 O9          4.4350    0.1910    2.3330 oh        1 I0G     -0.499100
     13 C11         3.6860    0.1290   -1.2270 ca        1 I0G     -0.115000
     14 C12         2.2810    0.0750   -1.2060 ca        1 I0G      0.088100
     15 O13         1.6610    0.0210   -2.4440 os        1 I0G     -0.324900
     16 C14         0.3300    0.5780   -2.4270 c3        1 I0G      0.200400
     17 C16        -0.2260    0.4510   -3.8120 ca        1 I0G     -0.121300
     18 C18        -1.8060    1.2360   -5.4770 ca        1 I0G     -0.187500
     19 C19        -1.3070    0.2770   -6.3760 ca        1 I0G      0.127100
     20 O20        -1.8880    0.2450   -7.6220 oh        1 I0G     -0.497100
     21 C23        -0.4110   -1.3080    0.7410 c3        1 I0G     -0.071400
     22 H4         -0.3080    0.8680    0.5630 hc        1 I0G      0.058700
     23 H7          1.7380    0.0760    2.1590 ha        1 I0G      0.135000
     24 H10         5.4870    0.1940   -0.0160 ha        1 I0G      0.153000
     25 H21         0.1150   -1.3330   -6.7090 ha        1 I0G      0.143000
     26 H22         1.0790   -1.1700   -4.4100 ha        1 I0G      0.143000
     27 H241       -1.9700   -2.5780   -0.1030 hc        1 I0G      0.043200
     28 H242       -0.2980   -3.2130   -0.3230 hc        1 I0G      0.043200
     29 H11A       -1.7650   -1.6960   -2.2520 hc        1 I0G      0.053200
     30 H12         0.0150   -2.0030   -2.2780 hc        1 I0G      0.053200
     31 H2         -1.5260    0.4530   -1.3590 hc        1 I0G      0.059700
     32 HO9         3.8290    0.1710    3.0880 ho        1 I0G      0.417000
     33 H11         4.2110    0.1450   -2.1920 ha        1 I0G      0.152000
     34 H14         0.4260    1.6720   -2.1600 h1        1 I0G      0.054700
     35 H18        -2.6170    1.9070   -5.7940 ha        1 I0G      0.143000
     36 HO20       -1.4470   -0.4450   -8.1390 ho        1 I0G      0.420000
     37 H231       -1.2380   -1.0420    1.4470 hc        1 I0G      0.045700
     38 H232        0.4110   -1.7670    1.3450 hc        1 I0G      0.045700
     39 H17        -1.6380    2.0680   -3.4950 ha        1 I0G      0.143000
@<TRIPOS>BOND
     1    1    2 1   
     2    1   11 1   
     3    1   21 1   
     4    1   22 1   
     5    2    3 ar  
     6    2   14 ar  
     7    3    4 ar  
     8    3   23 1   
     9    4    5 ar  
    10    4   12 1   
    11    5   13 ar  
    12    5   24 1   
    13    6   17 ar  
    14    6   18 ar  
    15    6   39 1   
    16    7    8 ar  
    17    7   19 ar  
    18    7   25 1   
    19    8   17 ar  
    20    8   26 1   
    21    9   10 1   
    22    9   21 1   
    23    9   27 1   
    24    9   28 1   
    25   10   11 1   
    26   10   29 1   
    27   10   30 1   
    28   11   16 1   
    29   11   31 1   
    30   12   32 1   
    31   13   14 ar  
    32   13   33 1   
    33   14   15 1   
    34   15   16 1   
    35   16   17 1   
    36   16   34 1   
    37   18   19 ar  
    38   18   35 1   
    39   19   20 1   
    40   20   36 1   
    41   21   37 1   
    42   21   38 1   
@<TRIPOS>SUBSTRUCTURE
     1 I0G         1 TEMP              0 ****  ****    0 ROOT
