@<TRIPOS>MOLECULE
I0P
   36    36     1     0     0
SMALL
bcc


@<TRIPOS>ATOM
      1 O21         5.0270   -2.4480    0.3060 o         1 I0P     -0.981167
      2 P1          4.0420   -1.7540    1.2450 p5        1 I0P      1.377900
      3 O41         3.3330   -2.7840    2.1100 o         1 I0P     -0.981167
      4 O31         4.7890   -0.7560    2.1150 o         1 I0P     -0.981167
      5 O11         2.9030   -0.9820    0.2220 os        1 I0P     -0.603700
      6 C1          1.5340   -0.8300    0.4580 c3        1 I0P      0.203100
      7 C6          0.7100    0.2960   -0.3510 c3        1 I0P      0.215100
      8 O16         1.3630    1.5000   -0.5200 os        1 I0P     -0.559200
      9 P6          1.9330    2.0340   -2.0570 p5        1 I0P      1.367400
     10 O46         1.0490    3.1420   -2.6150 o         1 I0P     -0.978500
     11 O26         3.3100    2.6480   -1.8180 o         1 I0P     -0.978500
     12 O36         1.9710    0.8650   -3.0230 o         1 I0P     -0.978500
     13 C5         -0.7340    0.3180    0.4260 c3        1 I0P      0.215100
     14 O15        -1.4350    1.5050    0.4140 os        1 I0P     -0.559200
     15 P5         -1.9620    2.3040    1.8510 p5        1 I0P      1.367400
     16 O45        -1.8640    1.3730    3.0450 o         1 I0P     -0.978500
     17 O35        -1.1380    3.5610    2.1030 o         1 I0P     -0.978500
     18 O25        -3.3930    2.7640    1.5920 o         1 I0P     -0.978500
     19 C2          0.8110   -2.1600    0.0680 c3        1 I0P      0.096100
     20 O12         1.0440   -2.5110   -1.2940 oh        1 I0P     -0.689800
     21 C3         -0.6940   -2.1550    0.3880 c3        1 I0P      0.096100
     22 O13        -1.1850   -3.4550    0.0650 oh        1 I0P     -0.689800
     23 C4         -1.5050   -0.9570   -0.2180 c3        1 I0P      0.203100
     24 O14        -2.8650   -1.1250    0.0560 os        1 I0P     -0.603700
     25 P4         -4.1030   -1.8350   -0.8840 p5        1 I0P      1.377900
     26 O24        -3.4970   -3.0390   -1.5970 o         1 I0P     -0.981167
     27 O44        -5.1390   -2.3210    0.1250 o         1 I0P     -0.981167
     28 O34        -4.7480   -0.9030   -1.8910 o         1 I0P     -0.981167
     29 H1          1.3870   -0.6570    1.5600 h1        1 I0P      0.005200
     30 H6          0.5150   -0.1160   -1.3870 h1        1 I0P      0.005200
     31 H2          1.2670   -3.0070    0.6630 h1        1 I0P      0.022200
     32 H5         -0.5420    0.0600    1.5100 h1        1 I0P      0.005200
     33 H4         -1.3650   -0.9440   -1.3330 h1        1 I0P      0.005200
     34 H12         1.5280   -1.7690   -1.6890 ho        1 I0P      0.440500
     35 H3         -0.7930   -2.0810    1.5120 h1        1 I0P      0.022200
     36 H13        -1.9070   -3.3250   -0.5790 ho        1 I0P      0.440500
@<TRIPOS>BOND
     1    1    2 1   
     2    2    3 1   
     3    2    4 1   
     4    2    5 1   
     5    5    6 1   
     6    6    7 1   
     7    6   19 1   
     8    6   29 1   
     9    7    8 1   
    10    7   13 1   
    11    7   30 1   
    12    8    9 1   
    13    9   10 1   
    14    9   11 1   
    15    9   12 1   
    16   13   14 1   
    17   13   23 1   
    18   13   32 1   
    19   14   15 1   
    20   15   16 1   
    21   15   17 1   
    22   15   18 1   
    23   19   20 1   
    24   19   21 1   
    25   19   31 1   
    26   20   34 1   
    27   21   22 1   
    28   21   23 1   
    29   21   35 1   
    30   22   36 1   
    31   23   24 1   
    32   23   33 1   
    33   24   25 1   
    34   25   26 1   
    35   25   27 1   
    36   25   28 1   
@<TRIPOS>SUBSTRUCTURE
     1 I0P         1 TEMP              0 ****  ****    0 ROOT
