@<TRIPOS>MOLECULE
I0P
   36    36     1     0     0
SMALL
bcc


@<TRIPOS>ATOM
      1 O21         0.7570    0.4620    1.2790 o         1 I0P     -0.981167
      2 P1          2.0590   -0.0910    0.7020 p5        1 I0P      1.377900
      3 O41         3.2050    0.1630    1.6670 o         1 I0P     -0.981167
      4 O31         1.9060   -1.5810    0.4420 o         1 I0P     -0.981167
      5 O11         2.3240    0.7860   -0.7480 os        1 I0P     -0.603700
      6 C1          3.5560    1.1960   -1.2640 c3        1 I0P      0.203100
      7 C6          3.6710    1.5870   -2.8240 c3        1 I0P      0.215100
      8 O16         2.9690    0.7750   -3.6910 os        1 I0P     -0.559200
      9 P6          1.5700    1.3200   -4.5390 p5        1 I0P      1.367400
     10 O46         1.8820    1.5710   -6.0090 o         1 I0P     -0.978500
     11 O26         0.5620    0.1750   -4.4930 o         1 I0P     -0.978500
     12 O36         1.0450    2.5910   -3.8960 o         1 I0P     -0.978500
     13 C5          5.2910    1.7160   -3.0480 c3        1 I0P      0.215100
     14 O15         5.7730    1.4490   -4.3120 os        1 I0P     -0.559200
     15 P5          6.9920    0.2690   -4.6280 p5        1 I0P      1.367400
     16 O45         7.6760   -0.1480   -3.3400 o         1 I0P     -0.978500
     17 O35         6.3960   -0.9510   -5.3190 o         1 I0P     -0.978500
     18 O25         7.9630    0.9030   -5.6200 o         1 I0P     -0.978500
     19 C2          3.9940    2.5030   -0.5270 c3        1 I0P      0.096100
     20 O12         3.0260    3.5420   -0.6690 oh        1 I0P     -0.689800
     21 C3          5.3950    2.9950   -0.9340 c3        1 I0P      0.096100
     22 O13         5.6830    4.1280   -0.1170 oh        1 I0P     -0.689800
     23 C4          5.6140    3.1980   -2.4740 c3        1 I0P      0.203100
     24 O14         6.8820    3.7420   -2.6980 os        1 I0P     -0.603700
     25 P4          7.3700    5.3690   -2.8830 p5        1 I0P      1.377900
     26 O24         6.5390    6.2050   -1.9160 o         1 I0P     -0.981167
     27 O44         8.8310    5.3970   -2.4410 o         1 I0P     -0.981167
     28 O34         7.2370    5.9150   -4.2910 o         1 I0P     -0.981167
     29 H1          4.3130    0.3940   -1.0410 h1        1 I0P      0.005200
     30 H6          3.2450    2.6290   -2.9370 h1        1 I0P      0.005200
     31 H2          4.0320    2.2970    0.5840 h1        1 I0P      0.022200
     32 H5          5.7920    0.9850   -2.3450 h1        1 I0P      0.005200
     33 H4          4.8430    3.9180   -2.8630 h1        1 I0P      0.005200
     34 H12         2.3560    3.2080   -1.2870 ho        1 I0P      0.440500
     35 H3          6.1320    2.2050   -0.6010 h1        1 I0P      0.022200
     36 H13         5.8770    4.8660   -0.7260 ho        1 I0P      0.440500
@<TRIPOS>BOND
     1    1    2 1   
     2    2    3 1   
     3    2    4 1   
     4    2    5 1   
     5    5    6 1   
     6    6    7 1   
     7    6   19 1   
     8    6   29 1   
     9    7    8 1   
    10    7   13 1   
    11    7   30 1   
    12    8    9 1   
    13    9   10 1   
    14    9   11 1   
    15    9   12 1   
    16   13   14 1   
    17   13   23 1   
    18   13   32 1   
    19   14   15 1   
    20   15   16 1   
    21   15   17 1   
    22   15   18 1   
    23   19   20 1   
    24   19   21 1   
    25   19   31 1   
    26   20   34 1   
    27   21   22 1   
    28   21   23 1   
    29   21   35 1   
    30   22   36 1   
    31   23   24 1   
    32   23   33 1   
    33   24   25 1   
    34   25   26 1   
    35   25   27 1   
    36   25   28 1   
@<TRIPOS>SUBSTRUCTURE
     1 I0P         1 TEMP              0 ****  ****    0 ROOT
