@<TRIPOS>MOLECULE
I0P
   36    36     1     0     0
SMALL
bcc


@<TRIPOS>ATOM
      1 O21         0.7020    0.4880    1.2320 o         1 I0P     -0.981167
      2 P1          2.0090   -0.0710    0.6750 p5        1 I0P      1.377900
      3 O41         3.1430    0.1800    1.6550 o         1 I0P     -0.981167
      4 O31         1.8530   -1.5620    0.4170 o         1 I0P     -0.981167
      5 O11         2.2980    0.8000   -0.7740 os        1 I0P     -0.603700
      6 C1          3.5390    1.2030   -1.2750 c3        1 I0P      0.203100
      7 C6          3.6760    1.5900   -2.8340 c3        1 I0P      0.215100
      8 O16         2.9820    0.7790   -3.7080 os        1 I0P     -0.559200
      9 P6          1.5970    1.3270   -4.5760 p5        1 I0P      1.367400
     10 O46         1.9300    1.5730   -6.0420 o         1 I0P     -0.978500
     11 O26         0.5830    0.1870   -4.5410 o         1 I0P     -0.978500
     12 O36         1.0690    2.6020   -3.9430 o         1 I0P     -0.978500
     13 C5          5.3000    1.7100   -3.0360 c3        1 I0P      0.215100
     14 O15         5.7970    1.4380   -4.2930 os        1 I0P     -0.559200
     15 P5          7.0150    0.2510   -4.5900 p5        1 I0P      1.367400
     16 O45         7.6800   -0.1660   -3.2910 o         1 I0P     -0.978500
     17 O35         6.4230   -0.9680   -5.2850 o         1 I0P     -0.978500
     18 O25         8.0020    0.8780   -5.5700 o         1 I0P     -0.978500
     19 C2          3.9720    2.5100   -0.5350 c3        1 I0P      0.096100
     20 O12         3.0110    3.5530   -0.6930 oh        1 I0P     -0.689800
     21 C3          5.3810    2.9940   -0.9240 c3        1 I0P      0.096100
     22 O13         5.6640    4.1290   -0.1070 oh        1 I0P     -0.689800
     23 C4          5.6210    3.1920   -2.4620 c3        1 I0P      0.203100
     24 O14         6.8950    3.7300   -2.6710 os        1 I0P     -0.603700
     25 P4          7.3930    5.3540   -2.8530 p5        1 I0P      1.377900
     26 O24         6.5530    6.1960   -1.8990 o         1 I0P     -0.981167
     27 O44         8.8480    5.3770   -2.3920 o         1 I0P     -0.981167
     28 O34         7.2820    5.8970   -4.2640 o         1 I0P     -0.981167
     29 H1          4.2890    0.3980   -1.0390 h1        1 I0P      0.005200
     30 H6          3.2560    2.6330   -2.9550 h1        1 I0P      0.005200
     31 H2          3.9940    2.3070    0.5770 h1        1 I0P      0.022200
     32 H5          5.7870    0.9790   -2.3250 h1        1 I0P      0.005200
     33 H4          4.8590    3.9150   -2.8630 h1        1 I0P      0.005200
     34 H12         2.3480    3.2210   -1.3190 ho        1 I0P      0.440500
     35 H3          6.1100    2.2020   -0.5790 h1        1 I0P      0.022200
     36 H13         5.8690    4.8640   -0.7160 ho        1 I0P      0.440500
@<TRIPOS>BOND
     1    1    2 1   
     2    2    3 1   
     3    2    4 1   
     4    2    5 1   
     5    5    6 1   
     6    6    7 1   
     7    6   19 1   
     8    6   29 1   
     9    7    8 1   
    10    7   13 1   
    11    7   30 1   
    12    8    9 1   
    13    9   10 1   
    14    9   11 1   
    15    9   12 1   
    16   13   14 1   
    17   13   23 1   
    18   13   32 1   
    19   14   15 1   
    20   15   16 1   
    21   15   17 1   
    22   15   18 1   
    23   19   20 1   
    24   19   21 1   
    25   19   31 1   
    26   20   34 1   
    27   21   22 1   
    28   21   23 1   
    29   21   35 1   
    30   22   36 1   
    31   23   24 1   
    32   23   33 1   
    33   24   25 1   
    34   25   26 1   
    35   25   27 1   
    36   25   28 1   
@<TRIPOS>SUBSTRUCTURE
     1 I0P         1 TEMP              0 ****  ****    0 ROOT
