@<TRIPOS>MOLECULE
I0P
   36    36     1     0     0
SMALL
bcc


@<TRIPOS>ATOM
      1 O21        -1.7790    4.4210   -0.0460 o         1 I0P     -0.980833
      2 P1         -1.3210    3.3980    0.9660 p5        1 I0P      1.372900
      3 O41        -2.4890    2.9830    1.8270 o         1 I0P     -0.980833
      4 O31        -0.2420    3.9990    1.8350 o         1 I0P     -0.980833
      5 O11        -0.7460    2.1330    0.2120 os        1 I0P     -0.619200
      6 C1          0.0260    1.2030    0.9480 c3        1 I0P      0.191600
      7 C6         -0.6510   -0.1580    0.8820 c3        1 I0P      0.256100
      8 O16        -0.0090   -1.0320    1.7920 os        1 I0P     -0.685700
      9 P6         -0.8420   -1.5940    3.0120 p5        1 I0P      1.420400
     10 O46        -1.3480   -0.4440    3.8490 o         1 I0P     -0.981500
     11 O26         0.0400   -2.4820    3.8570 o         1 I0P     -0.981500
     12 O36        -2.0140   -2.3940    2.4950 o         1 I0P     -0.981500
     13 C5         -0.5940   -0.7700   -0.5110 c3        1 I0P      0.256100
     14 O15        -1.4210   -0.0150   -1.3760 os        1 I0P     -0.685700
     15 P5         -2.6130   -0.7490   -2.1100 p5        1 I0P      1.420400
     16 O45        -2.0630   -1.8470   -2.9890 o         1 I0P     -0.981500
     17 O35        -3.5450   -1.3460   -1.0820 o         1 I0P     -0.981500
     18 O25        -3.3690    0.2440   -2.9590 o         1 I0P     -0.981500
     19 C2          1.4390    1.1790    0.3800 c3        1 I0P      0.102600
     20 O12         1.9300    2.5050    0.3180 oh        1 I0P     -0.689300
     21 C3          1.4960    0.5680   -1.0130 c3        1 I0P      0.102600
     22 O13         0.8540    1.4420   -1.9220 oh        1 I0P     -0.689300
     23 C4          0.8180   -0.7950   -1.0780 c3        1 I0P      0.191600
     24 O14         1.5900   -1.7250   -0.3430 os        1 I0P     -0.619200
     25 P4          2.3040   -2.8970   -1.1260 p5        1 I0P      1.372900
     26 O24         3.1800   -3.6770   -0.1750 o         1 I0P     -0.980833
     27 O44         1.2620   -3.8150   -1.7180 o         1 I0P     -0.980833
     28 O34         3.1540   -2.3190   -2.2330 o         1 I0P     -0.980833
     29 H1          0.0650    1.4920    1.8810 h1        1 I0P      0.018700
     30 H6         -1.5870   -0.0590    1.1460 h1        1 I0P      0.025700
     31 H2          2.0110    0.6580    0.9770 h1        1 I0P      0.048200
     32 H5         -0.9330   -1.6860   -0.4680 h1        1 I0P      0.025700
     33 H4          0.7790   -1.0840   -2.0110 h1        1 I0P      0.018700
     34 H12         2.7640    2.5280    0.6250 ho        1 I0P      0.446000
     35 H3          2.4320    0.4680   -1.2760 h1        1 I0P      0.048200
     36 H13         1.4230    1.6690   -2.5670 ho        1 I0P      0.446000
@<TRIPOS>BOND
     1    1    2 1   
     2    2    3 1   
     3    2    4 1   
     4    2    5 1   
     5    5    6 1   
     6    6    7 1   
     7    6   19 1   
     8    6   29 1   
     9    7    8 1   
    10    7   13 1   
    11    7   30 1   
    12    8    9 1   
    13    9   10 1   
    14    9   11 1   
    15    9   12 1   
    16   13   14 1   
    17   13   23 1   
    18   13   32 1   
    19   14   15 1   
    20   15   16 1   
    21   15   17 1   
    22   15   18 1   
    23   19   20 1   
    24   19   21 1   
    25   19   31 1   
    26   20   34 1   
    27   21   22 1   
    28   21   23 1   
    29   21   35 1   
    30   22   36 1   
    31   23   24 1   
    32   23   33 1   
    33   24   25 1   
    34   25   26 1   
    35   25   27 1   
    36   25   28 1   
@<TRIPOS>SUBSTRUCTURE
     1 I0P         1 TEMP              0 ****  ****    0 ROOT
