@<TRIPOS>MOLECULE
I0X
   74    68     1     0     0
SMALL
bcc


@<TRIPOS>ATOM
      1 C10        -0.2300   -1.4430    4.0970 c1        1 I0X      0.387000
      2 O2          0.7630   -0.7370    4.1610 o         1 I0X     -0.398000
      3 O3         -1.2550   -1.3090    5.0610 os        1 I0X     -0.274000
      4 C11        -1.0480   -0.2180    5.9970 c3        1 I0X      0.039000
      5 C12        -2.3180    0.0140    6.7860 c2        1 I0X     -0.090000
      6 C13        -3.2640    0.9140    6.3250 c1        1 I0X     -0.103000
      7 C14        -4.4100    1.1610    7.0730 c2        1 I0X     -0.132000
      8 C15        -4.6050    0.5070    8.2790 c1        1 I0X     -0.124000
      9 C16        -3.6520   -0.3980    8.7430 c2        1 I0X     -0.131000
     10 C17        -2.5150   -0.6440    8.0010 c2        1 I0X     -0.119000
     11 N1         -0.3950   -2.3880    2.9670 n2        1 I0X     -0.316000
     12 C1          0.4600   -2.2850    1.8130 c3        1 I0X      0.017000
     13 C2         -0.0720   -1.1950    0.8820 c2        1 I0X      0.271000
     14 O1         -1.0390   -0.5300    1.2150 o         1 I0X     -0.381000
     15 C3          0.4890   -3.6150    1.0810 c3        1 I0X     -0.122000
     16 C4          1.5260   -4.5470    1.7480 c2        1 I0X     -0.080000
     17 C9          1.0990   -5.6800    2.4410 c2        1 I0X     -0.109000
     18 C5          2.8700   -4.3370    1.5370 c1        1 I0X     -0.124000
     19 C6          2.0230   -6.5900    2.9140 c1        1 I0X     -0.128000
     20 C7          3.8040   -5.2560    2.0150 c1        1 I0X     -0.127000
     21 C8          3.3820   -6.3770    2.7000 c2        1 I0X     -0.124000
     22 N2          0.5580   -0.9580   -0.3890 n         1 I0X     -0.365000
     23 C18         0.5280    1.1750   -3.2240 c1        1 I0X     -0.094000
     24 O4          0.4130    4.9840   -5.0140 os        1 I0X     -0.235000
     25 C19         0.5060    3.6620   -4.4580 c2        1 I0X      0.058000
     26 C20         0.6840   -0.2470   -2.6970 c2        1 I0X     -0.130000
     27 C23         2.6770    4.9700   -5.8090 c3        1 I0X     -0.227333
     28 C22         1.0230    6.6320   -6.7140 c3        1 I0X     -0.227333
     29 C21         0.8160    4.1630   -7.2590 c3        1 I0X     -0.227333
     30 C24         1.2230    5.1790   -6.1730 c3        1 I0X      0.085000
     31 C26        -1.3140   -1.4130   -1.8320 c1        1 I0X      0.280000
     32 C25        -0.2150   -0.4410   -1.4890 c2        1 I0X      0.001000
     33 C27        -0.3650    1.4320   -4.2610 c2        1 I0X     -0.110000
     34 C28         1.4040    2.1600   -2.8110 c1        1 I0X     -0.116000
     35 C29        -0.3750    2.6720   -4.8750 c2        1 I0X     -0.145000
     36 C30         1.3930    3.4090   -3.4310 c1        1 I0X     -0.145000
     37 O5         -1.0660   -2.5810   -1.9480 o         1 I0X     -0.331000
     38 C31        -2.7210   -0.9010   -2.1190 c2        1 I0X     -0.407000
     39 N3         -3.6090   -1.6910   -2.7220 n2        1 I0X      0.194000
     40 N4         -3.2850   -2.8670   -3.0570 n1        1 I0X      0.012000
     41 H10        -0.8170    0.6000    5.5020 h1        1 I0X      0.104000
     42 H11        -0.3170   -0.4470    6.6130 h1        1 I0X      0.104000
     43 H13        -3.1260    1.3730    5.4770 DU        1 I0X      0.136333
     44 H14        -5.0870    1.8060    6.7430 ha        1 I0X      0.134000
     45 H15        -5.4150    0.6820    8.8080 DU        1 I0X      0.136333
     46 H16        -3.7920   -0.8660    9.6050 ha        1 I0X      0.133000
     47 H17        -1.8430   -1.2830    8.3280 ha        1 I0X      0.134000
     48 H1         -1.0900   -2.9920    2.9710 hn        1 I0X      0.246000
     49 H2          1.3770   -2.0500    2.1030 h1        1 I0X      0.143000
     50 H3         -0.3980   -4.0300    1.1230 hc        1 I0X      0.105500
     51 H4          0.7350   -3.4700    0.1550 hc        1 I0X      0.105500
     52 H9          0.1630   -5.8260    2.5890 ha        1 I0X      0.134000
     53 H5          3.1670   -3.5510    1.0560 ha        1 I0X      0.128000
     54 H6          1.7250   -7.3800    3.3970 DU        1 I0X      0.136333
     55 H7          4.7450   -5.1080    1.8660 ha        1 I0X      0.133000
     56 H8          4.0320   -7.0170    3.0330 ha        1 I0X      0.133000
     57 H12         1.4330   -1.0740   -0.4780 hn        1 I0X      0.237000
     58 H18         0.4260   -0.8980   -3.4120 ha        1 I0X      0.107000
     59 H19         1.6110   -0.3970   -2.4380 ha        1 I0X      0.107000
     60 H26         3.1550    5.7980   -5.9090 hc        1 I0X      0.085556
     61 H27         3.0650    4.2970   -6.3970 hc        1 I0X      0.085556
     62 H28         2.7410    4.6620   -4.8700 hc        1 I0X      0.085556
     63 H23         0.0790    6.7520   -7.0010 hc        1 I0X      0.085556
     64 H24         1.6190    6.7820   -7.4800 hc        1 I0X      0.085556
     65 H25         1.2320    7.2740   -6.0100 hc        1 I0X      0.085556
     66 H20         0.0910    3.5970   -6.9230 hc        1 I0X      0.085556
     67 H21         0.5080    4.6500   -8.0690 hc        1 I0X      0.085556
     68 H22         1.5880    3.6030   -7.4880 hc        1 I0X      0.085556
     69 H29        -0.6070    0.4170   -1.2360 h4        1 I0X      0.141000
     70 H30        -0.9930    0.7290   -4.5590 ha        1 I0X      0.152000
     71 H31         2.0480    1.9770   -2.0640 ha        1 I0X      0.134000
     72 H32        -1.0010    2.8520   -5.6030 ha        1 I0X      0.145000
     73 H33         2.0320    4.1270   -3.1300 ha        1 I0X      0.144000
     74 H34        -2.9760    0.0220   -1.8570 h4        1 I0X      0.215000
@<TRIPOS>BOND
     1    1    2 1   
     2    1    3 1   
     3    3    4 1   
     4    4    5 1   
     5    4   41 1   
     6    4   42 1   
     7    5    6 1   
     8    5   10 1   
     9    6    7 1   
    10    7    8 1   
    11    7   44 1   
    12    8    9 1   
    13    9   10 1   
    14    9   46 1   
    15   10   47 1   
    16   11   12 1   
    17   11   48 1   
    18   12   13 1   
    19   12   15 1   
    20   12   49 1   
    21   13   14 1   
    22   13   22 1   
    23   15   16 1   
    24   15   50 1   
    25   15   51 1   
    26   16   17 1   
    27   16   18 1   
    28   17   19 1   
    29   17   52 1   
    30   18   53 1   
    31   19   21 1   
    32   20   21 1   
    33   20   55 1   
    34   21   56 1   
    35   22   32 1   
    36   22   57 1   
    37   23   33 1   
    38   23   34 1   
    39   24   25 1   
    40   24   30 1   
    41   25   35 1   
    42   25   36 1   
    43   26   32 1   
    44   26   58 1   
    45   26   59 1   
    46   27   30 1   
    47   27   60 1   
    48   27   61 1   
    49   27   62 1   
    50   28   30 1   
    51   28   63 1   
    52   28   64 1   
    53   28   65 1   
    54   29   30 1   
    55   29   66 1   
    56   29   67 1   
    57   29   68 1   
    58   31   37 1   
    59   31   38 1   
    60   32   69 1   
    61   33   35 1   
    62   33   70 1   
    63   34   71 1   
    64   35   72 1   
    65   36   73 1   
    66   38   39 1   
    67   38   74 1   
    68   39   40 1   
@<TRIPOS>SUBSTRUCTURE
     1 I0X         1 TEMP              0 ****  ****    0 ROOT
