@<TRIPOS>MOLECULE
I0X
   74    76     1     0     0
SMALL
bcc


@<TRIPOS>ATOM
      1 C10        -1.5260    0.5240    0.5810 c         1 I0X      0.732100
      2 O2         -1.1340    0.9960    1.6620 o         1 I0X     -0.587000
      3 O3         -2.0840    1.3700   -0.3550 os        1 I0X     -0.435900
      4 C11        -2.2060    2.7410    0.0740 c3        1 I0X      0.193700
      5 C12        -2.9170    3.4890   -1.0030 ca        1 I0X     -0.095300
      6 C13        -3.9180    2.8850   -1.7700 ca        1 I0X     -0.113000
      7 C14        -4.5910    3.6220   -2.7440 ca        1 I0X     -0.131000
      8 C15        -4.2730    4.9630   -2.9520 ca        1 I0X     -0.125000
      9 C16        -3.2740    5.5680   -2.1880 ca        1 I0X     -0.131000
     10 C17        -2.5940    4.8340   -1.2190 ca        1 I0X     -0.113000
     11 N1         -1.5460   -0.8030    0.1810 n         1 I0X     -0.500900
     12 C1         -0.7260   -1.7570    0.8890 c3        1 I0X      0.039700
     13 C2          0.6230   -2.0030    0.1590 c         1 I0X      0.630100
     14 O1          0.6800   -2.0290   -1.0870 o         1 I0X     -0.613100
     15 C3         -1.4000   -3.1380    1.0120 c3        1 I0X     -0.038100
     16 C4         -2.6210   -3.0930    1.8590 ca        1 I0X     -0.081300
     17 C9         -3.8900   -3.2050    1.2800 ca        1 I0X     -0.118500
     18 C5         -2.5100   -2.9580    3.2480 ca        1 I0X     -0.118500
     19 C6         -5.0320   -3.1810    2.0800 ca        1 I0X     -0.127000
     20 C7         -3.6530   -2.9330    4.0450 ca        1 I0X     -0.127000
     21 C8         -4.9150   -3.0450    3.4630 ca        1 I0X     -0.126000
     22 N2          1.7340   -2.1840    0.9500 n         1 I0X     -0.543900
     23 C18         3.9920   -0.1920    0.5020 ca        1 I0X     -0.093300
     24 C19         3.7180    2.4680   -0.3050 ca        1 I0X      0.103100
     25 C20         4.1570   -1.6050    0.9330 c3        1 I0X     -0.040100
     26 C23         1.9680    3.5790   -2.3680 c3        1 I0X     -0.110433
     27 C22         2.7630    5.7800   -1.4810 c3        1 I0X     -0.110433
     28 C21         1.4100    4.2600   -0.0240 c3        1 I0X     -0.110433
     29 C24         2.4460    4.3290   -1.1350 c3        1 I0X      0.156800
     30 C26         3.4380   -3.9590    0.7420 c2        1 I0X      0.588300
     31 C25         3.0270   -2.5150    0.4080 c3        1 I0X      0.027700
     32 C27         4.2010    0.1650   -0.8360 ca        1 I0X     -0.111500
     33 C28         3.6480    0.7960    1.4320 ca        1 I0X     -0.111500
     34 C29         4.0640    1.4870   -1.2470 ca        1 I0X     -0.139000
     35 C30         3.5080    2.1230    1.0370 ca        1 I0X     -0.139000
     36 O5          3.0830   -4.5270    1.7840 o         1 I0X     -0.595300
     37 C31         4.2890   -4.5600   -0.2700 ce        1 I0X      0.079700
     38 N3          4.7670   -5.7900   -0.1700 n1        1 I0X     -0.295700
     39 N4          5.1750   -6.8380   -0.0780 n1        1 I0X      0.025000
     40 H10        -2.7880    2.7690    1.0350 h1        1 I0X      0.065200
     41 H11        -1.1730    3.1470    0.2530 h1        1 I0X      0.065200
     42 H13        -4.1620    1.8240   -1.6050 ha        1 I0X      0.138000
     43 H14        -5.3750    3.1420   -3.3480 ha        1 I0X      0.132500
     44 H15        -4.8070    5.5440   -3.7180 ha        1 I0X      0.132000
     45 H16        -3.0210    6.6260   -2.3520 ha        1 I0X      0.132500
     46 H17        -1.8020    5.3110   -0.6220 ha        1 I0X      0.138000
     47 H1         -1.6830   -0.9790   -0.7930 hn        1 I0X      0.332500
     48 H2         -0.5440   -1.3490    1.9300 h1        1 I0X      0.104700
     49 H3         -1.6440   -3.5310   -0.0110 hc        1 I0X      0.067200
     50 H4         -0.6510   -3.8370    1.4750 hc        1 I0X      0.067200
     51 H9         -3.9880   -3.3100    0.1890 ha        1 I0X      0.130500
     52 H5         -1.5160   -2.8700    3.7110 ha        1 I0X      0.130500
     53 H6         -6.0260   -3.2690    1.6170 ha        1 I0X      0.132500
     54 H7         -3.5580   -2.8240    5.1360 ha        1 I0X      0.132500
     55 H8         -5.8160   -3.0250    4.0930 ha        1 I0X      0.132000
     56 H12         1.6310   -2.2610    1.9350 hn        1 I0X      0.324500
     57 H18         5.1250   -2.0090    0.5280 hc        1 I0X      0.061700
     58 H19         4.2040   -1.6710    2.0520 hc        1 I0X      0.061700
     59 H26         1.7620    2.5100   -2.1170 hc        1 I0X      0.046811
     60 H27         1.0320    4.0470   -2.7560 hc        1 I0X      0.046811
     61 H28         2.7500    3.6130   -3.1640 hc        1 I0X      0.046811
     62 H23         3.5460    5.8230   -2.2750 hc        1 I0X      0.046811
     63 H24         1.8360    6.2800   -1.8490 hc        1 I0X      0.046811
     64 H25         3.1400    6.3160   -0.5790 hc        1 I0X      0.046811
     65 H20         1.7840    4.7950    0.8820 hc        1 I0X      0.046811
     66 H21         0.4600    4.7370   -0.3640 hc        1 I0X      0.046811
     67 H22         1.2040    3.1970    0.2510 hc        1 I0X      0.046811
     68 H29         2.9680   -2.4030   -0.7190 h1        1 I0X      0.106700
     69 H30         4.4720   -0.6080   -1.5710 ha        1 I0X      0.131500
     70 H31         3.4850    0.5240    2.4860 ha        1 I0X      0.131500
     71 H32         4.2280    1.7730   -2.2960 ha        1 I0X      0.145000
     72 H33         3.2380    2.9030    1.7640 ha        1 I0X      0.145000
     73 H34         4.5590   -4.0090   -1.1840 h4        1 I0X      0.192000
     74 O4          3.7180    3.8030   -0.6780 os        1 I0X     -0.351900
@<TRIPOS>BOND
     1    1    2 2   
     2    1    3 1   
     3    1   11 1   
     4    3    4 1   
     5    4    5 1   
     6    4   40 1   
     7    4   41 1   
     8    5    6 ar  
     9    5   10 ar  
    10    6    7 ar  
    11    6   42 1   
    12    7    8 ar  
    13    7   43 1   
    14    8    9 ar  
    15    8   44 1   
    16    9   10 ar  
    17    9   45 1   
    18   10   46 1   
    19   11   12 1   
    20   11   47 1   
    21   12   13 1   
    22   12   15 1   
    23   12   48 1   
    24   13   14 2   
    25   13   22 1   
    26   15   16 1   
    27   15   49 1   
    28   15   50 1   
    29   16   17 ar  
    30   16   18 ar  
    31   17   19 ar  
    32   17   51 1   
    33   18   20 ar  
    34   18   52 1   
    35   19   21 ar  
    36   19   53 1   
    37   20   21 ar  
    38   20   54 1   
    39   21   55 1   
    40   22   31 1   
    41   22   56 1   
    42   23   25 1   
    43   23   32 ar  
    44   23   33 ar  
    45   24   34 ar  
    46   24   35 ar  
    47   24   74 1   
    48   25   31 1   
    49   25   57 1   
    50   25   58 1   
    51   26   29 1   
    52   26   59 1   
    53   26   60 1   
    54   26   61 1   
    55   27   29 1   
    56   27   62 1   
    57   27   63 1   
    58   27   64 1   
    59   28   29 1   
    60   28   65 1   
    61   28   66 1   
    62   28   67 1   
    63   29   74 1   
    64   30   31 1   
    65   30   36 1   
    66   30   37 2   
    67   31   68 1   
    68   32   34 ar  
    69   32   69 1   
    70   33   35 ar  
    71   33   70 1   
    72   34   71 1   
    73   35   72 1   
    74   37   38 1   
    75   37   73 1   
    76   38   39 3   
@<TRIPOS>SUBSTRUCTURE
     1 I0X         1 TEMP              0 ****  ****    0 ROOT
