@<TRIPOS>MOLECULE
I0Y
   75    70     1     0     0
SMALL
bcc


@<TRIPOS>ATOM
      1 C1         -0.6060   -1.8310    3.5240 c1        1 I0Y      0.386000
      2 O1          0.6430   -1.8250    3.4200 o         1 I0Y     -0.399000
      3 O2         -1.2300   -1.3550    4.7330 o         1 I0Y     -0.273000
      4 C2         -0.3150   -0.6140    5.6290 c3        1 I0Y      0.035000
      5 C3         -1.1390    0.0420    6.8080 c2        1 I0Y     -0.091000
      6 C8         -2.0570    1.0150    6.5460 c1        1 I0Y     -0.103000
      7 C7         -2.8660    1.5240    7.5920 c1        1 I0Y     -0.128000
      8 C6         -2.7220    1.0280    8.8840 c1        1 I0Y     -0.128000
      9 C5         -1.7930    0.0460    9.1420 c1        1 I0Y     -0.131000
     10 C4         -0.9960   -0.4530    8.1080 c2        1 I0Y     -0.121000
     11 N1         -1.4310   -2.3330    2.4230 n3        1 I0Y     -0.306000
     12 C9         -0.9000   -2.4730    1.1880 c3        1 I0Y      0.012000
     13 C10        -1.0920   -1.1510    0.3840 c1        1 I0Y      0.274000
     14 O3         -1.6930   -0.1610    0.9170 o         1 I0Y     -0.377000
     15 C11        -1.6140   -3.6180    0.4570 c3        1 I0Y     -0.122000
     16 C12        -0.9170   -4.9610    0.7760 c2        1 I0Y     -0.080000
     17 C13        -1.6270   -5.9710    1.4310 c2        1 I0Y     -0.108000
     18 C14         0.3580   -5.2210    0.2740 c1        1 I0Y     -0.124000
     19 C15        -1.0590   -7.2410    1.5840 c1        1 I0Y     -0.129000
     20 C16         0.9260   -6.4970    0.4290 c2        1 I0Y     -0.128000
     21 C17         0.2160   -7.5010    1.0830 c1        1 I0Y     -0.124000
     22 N2         -0.5610   -1.0340   -0.8820 n2        1 I0Y     -0.358000
     23 O4         -3.1840   -1.0330   -1.6060 o         1 I0Y     -0.284000
     24 O5          2.2970    4.4220   -4.9760 os        1 I0Y     -0.236000
     25 O6         -4.7350    1.1490   -1.7450 oh        1 I0Y     -0.313000
     26 C18        -0.5250   -0.2630   -3.1590 c3        1 I0Y     -0.130000
     27 C19        -1.0270    0.0030   -1.7600 c3        1 I0Y     -0.012000
     28 C20        -2.5480    0.0240   -1.7580 c2        1 I0Y      0.177000
     29 C21        -3.3000    1.3720   -1.8750 c3        1 I0Y     -0.068000
     30 C23         0.4560    0.9210   -3.6130 c2        1 I0Y     -0.094000
     31 C24         2.0650    2.9910   -4.6050 c2        1 I0Y      0.064000
     32 C25         4.4980    4.0070   -5.7790 c3        1 I0Y     -0.230333
     33 C26         3.6060    4.8300   -4.8370 c3        1 I0Y      0.085000
     34 C28         0.0370    2.2510   -3.5050 c2        1 I0Y     -0.113000
     35 C27         1.6950    0.6200   -4.2240 c1        1 I0Y     -0.114000
     36 C30         0.8420    3.2840   -4.0010 c2        1 I0Y     -0.140000
     37 C29         2.4960    1.6570   -4.7180 c2        1 I0Y     -0.134000
     38 C32         3.7260    6.3870   -5.2100 c3        1 I0Y     -0.230333
     39 C33         4.0630    4.6170   -3.3730 c3        1 I0Y     -0.230333
     40 H2          0.1600    0.1080    5.1040 h1        1 I0Y      0.104500
     41 H2A         0.3390   -1.2290    5.9980 h1        1 I0Y      0.104500
     42 H8         -2.1560    1.3660    5.6220 ha        1 I0Y      0.145000
     43 H7         -3.5120    2.2070    7.4100 ha        1 I0Y      0.133500
     44 H6         -3.2940    1.3860    9.6270 ha        1 I0Y      0.133500
     45 H5         -1.6910   -0.3010   10.0400 ha        1 I0Y      0.133000
     46 H4         -0.3560   -1.1310    8.2880 ha        1 I0Y      0.133000
     47 HN1        -2.2580   -2.5400    2.5630 hn        1 I0Y      0.243000
     48 H9          0.0320   -2.6700    1.2610 h1        1 I0Y      0.145000
     49 H11        -2.5310   -3.6590    0.7500 hc        1 I0Y      0.106000
     50 H11A       -1.5870   -3.4580   -0.5010 hc        1 I0Y      0.106000
     51 H13        -2.5040   -5.7930    1.7740 ha        1 I0Y      0.134000
     52 H14         0.8610   -4.5110   -0.1900 DU        1 I0Y      0.130000
     53 H15        -1.5910   -7.9940    2.0730 ha        1 I0Y      0.133000
     54 H16         1.7860   -6.6750    0.0900 ha        1 I0Y      0.133000
     55 H17         0.6230   -8.4130    1.1930 ha        1 I0Y      0.133000
     56 HN2         0.1720   -1.5480   -1.1220 hn        1 I0Y      0.239000
     57 HO6        -5.1920    1.9440   -1.9330 ho        1 I0Y      0.219000
     58 H18        -0.0550   -1.0900   -3.1740 hc        1 I0Y      0.103500
     59 H18A       -1.2730   -0.3070   -3.7630 hc        1 I0Y      0.103500
     60 H19        -0.7080    0.8180   -1.4700 h1        1 I0Y      0.143000
     61 H21        -3.1170    1.7620   -2.7230 h1        1 I0Y      0.114500
     62 H21A       -3.0030    1.9690   -1.1740 h1        1 I0Y      0.114500
     63 H25         4.7710    3.2070   -5.3380 hc        1 I0Y      0.087222
     64 H25A        4.0000    3.7820   -6.5820 hc        1 I0Y      0.087222
     65 H25B        5.2920    4.5350   -6.0230 hc        1 I0Y      0.087222
     66 H28        -0.8430    2.4650   -3.0760 ha        1 I0Y      0.131000
     67 H27         1.9930   -0.3100   -4.3000 DU        1 I0Y      0.130000
     68 H30         0.5580    4.1790   -3.9230 ha        1 I0Y      0.145000
     69 H29         3.3780    1.4490   -5.1560 ha        1 I0Y      0.148000
     70 H32         4.6560    6.6450   -5.2040 hc        1 I0Y      0.087222
     71 H32A        3.3410    6.5420   -6.1160 hc        1 I0Y      0.087222
     72 H32B        3.2280    6.9240   -4.5400 hc        1 I0Y      0.087222
     73 H33         4.8780    5.1420   -3.2070 hc        1 I0Y      0.087222
     74 H33A        3.3580    4.9100   -2.7650 hc        1 I0Y      0.087222
     75 H33B        4.2560    3.6390   -3.2190 hc        1 I0Y      0.087222
@<TRIPOS>BOND
     1    1    2 1   
     2    1   11 1   
     3    3    4 1   
     4    4    5 1   
     5    4   40 1   
     6    4   41 1   
     7    5    6 1   
     8    5   10 1   
     9    6   42 1   
    10    7    8 1   
    11    7   43 1   
    12    8   44 1   
    13    9   10 1   
    14    9   45 1   
    15   10   46 1   
    16   11   12 1   
    17   11   47 1   
    18   12   13 1   
    19   12   15 1   
    20   12   48 1   
    21   13   14 1   
    22   15   16 1   
    23   15   49 1   
    24   15   50 1   
    25   16   17 1   
    26   16   18 1   
    27   17   19 1   
    28   17   51 1   
    29   18   20 1   
    30   19   53 1   
    31   20   21 1   
    32   20   54 1   
    33   21   55 1   
    34   22   27 1   
    35   22   56 1   
    36   23   28 1   
    37   24   31 1   
    38   24   33 1   
    39   25   29 1   
    40   25   57 1   
    41   26   27 1   
    42   26   30 1   
    43   26   58 1   
    44   26   59 1   
    45   27   28 1   
    46   27   60 1   
    47   28   29 1   
    48   29   61 1   
    49   29   62 1   
    50   30   34 1   
    51   30   35 1   
    52   31   36 1   
    53   31   37 1   
    54   32   33 1   
    55   32   63 1   
    56   32   64 1   
    57   32   65 1   
    58   33   38 1   
    59   33   39 1   
    60   34   36 1   
    61   34   66 1   
    62   35   37 1   
    63   36   68 1   
    64   37   69 1   
    65   38   70 1   
    66   38   71 1   
    67   38   72 1   
    68   39   73 1   
    69   39   74 1   
    70   39   75 1   
@<TRIPOS>SUBSTRUCTURE
     1 I0Y         1 TEMP              0 ****  ****    0 ROOT
