@<TRIPOS>MOLECULE
I0Y
   75    77     1     0     0
SMALL
bcc


@<TRIPOS>ATOM
      1 C1         -0.8770   -0.3280    1.2760 c         1 I0Y      0.742100
      2 O1          0.0980   -0.2480    2.0500 o         1 I0Y     -0.617000
      3 O2         -1.6320    0.7930    1.0190 os        1 I0Y     -0.426900
      4 C2         -1.1010    2.0240    1.5610 c3        1 I0Y      0.196700
      5 C3         -1.8100    3.1380    0.8680 ca        1 I0Y     -0.108300
      6 C8         -3.0780    3.5380    1.3020 ca        1 I0Y     -0.103000
      7 C7         -3.7280    4.6010    0.6770 ca        1 I0Y     -0.137500
      8 C6         -3.1160    5.2660   -0.3860 ca        1 I0Y     -0.118000
      9 C5         -1.8540    4.8640   -0.8240 ca        1 I0Y     -0.137500
     10 C4         -1.2000    3.8010   -0.2030 ca        1 I0Y     -0.103000
     11 N1         -1.3020   -1.4350    0.5740 n         1 I0Y     -0.531900
     12 C9         -0.8190   -2.7480    0.9270 c3        1 I0Y      0.052700
     13 C10         0.4940   -3.0790    0.1660 c         1 I0Y      0.648100
     14 O3          0.5360   -3.9960   -0.6790 o         1 I0Y     -0.625100
     15 C11        -1.8370   -3.8590    0.6180 c3        1 I0Y     -0.045100
     16 C12        -3.1240   -3.6460    1.3300 ca        1 I0Y     -0.096300
     17 C13        -3.2590   -4.0180    2.6730 ca        1 I0Y     -0.126000
     18 C14        -4.2170   -3.0830    0.6610 ca        1 I0Y     -0.126000
     19 C15        -4.4690   -3.8270    3.3370 ca        1 I0Y     -0.125000
     20 C16        -5.4270   -2.8930    1.3270 ca        1 I0Y     -0.125000
     21 C17        -5.5550   -3.2640    2.6650 ca        1 I0Y     -0.125000
     22 N2          1.6040   -2.3430    0.4980 n         1 I0Y     -0.551900
     23 O5          1.8370    3.5220   -1.9270 os        1 I0Y     -0.357900
     24 O6          4.4910   -5.9890   -0.2990 oh        1 I0Y     -0.590800
     25 C18         3.8560   -1.3840    0.0460 c3        1 I0Y     -0.044100
     26 C19         2.8690   -2.5460   -0.1640 c3        1 I0Y      0.023700
     27 C20         3.5620   -3.8280    0.3210 c         1 I0Y      0.517100
     28 C21         3.6320   -4.9400   -0.6910 c3        1 I0Y      0.027400
     29 C23         3.3400   -0.0900   -0.4720 ca        1 I0Y     -0.097300
     30 C24         2.4250    2.3660   -1.4370 ca        1 I0Y      0.100100
     31 C25         3.8570    4.4020   -2.9850 c3        1 I0Y     -0.109767
     32 C26         2.7060    4.6780   -2.0310 c3        1 I0Y      0.156800
     33 C28         2.7740    0.8440    0.4040 ca        1 I0Y     -0.110500
     34 C27         3.4380    0.2140   -1.8350 ca        1 I0Y     -0.110500
     35 C30         2.3280    2.0750   -0.0690 ca        1 I0Y     -0.146000
     36 C29         2.9820    1.4350   -2.3250 ca        1 I0Y     -0.146000
     37 C32         1.7910    5.7610   -2.5950 c3        1 I0Y     -0.109767
     38 C33         3.2240    5.0790   -0.6590 c3        1 I0Y     -0.109767
     39 H2         -1.3020    2.0210    2.6640 h1        1 I0Y      0.062200
     40 H2A         0.0080    2.0590    1.3810 h1        1 I0Y      0.062200
     41 H8         -3.5620    3.0080    2.1370 ha        1 I0Y      0.145000
     42 H7         -4.7250    4.9130    1.0210 ha        1 I0Y      0.133500
     43 H6         -3.6300    6.1040   -0.8790 ha        1 I0Y      0.131000
     44 H5         -1.3700    5.3830   -1.6660 ha        1 I0Y      0.133500
     45 H4         -0.2050    3.4850   -0.5610 ha        1 I0Y      0.145000
     46 HN1        -2.1620   -1.3750    0.0750 hn        1 I0Y      0.339500
     47 H9         -0.5830   -2.7730    2.0360 h1        1 I0Y      0.084700
     48 H11        -2.0000   -3.9210   -0.4920 hc        1 I0Y      0.080200
     49 H11A       -1.3720   -4.8320    0.9330 hc        1 I0Y      0.080200
     50 H13        -2.4050   -4.4650    3.2040 ha        1 I0Y      0.133000
     51 H14        -4.1240   -2.7990   -0.3990 ha        1 I0Y      0.133000
     52 H15        -4.5680   -4.1220    4.3920 ha        1 I0Y      0.135000
     53 H16        -6.2820   -2.4520    0.7940 ha        1 I0Y      0.135000
     54 H17        -6.5100   -3.1140    3.1900 ha        1 I0Y      0.134000
     55 HN2         1.5400   -1.6040    1.1670 hn        1 I0Y      0.351500
     56 HO6         4.3540   -6.1430    0.6460 ho        1 I0Y      0.416000
     57 H18         4.0990   -1.3000    1.1400 hc        1 I0Y      0.070200
     58 H18A        4.8060   -1.6540   -0.4880 hc        1 I0Y      0.070200
     59 H19         2.6670   -2.6600   -1.2730 h1        1 I0Y      0.078700
     60 H21         4.0500   -4.5670   -1.6650 h1        1 I0Y      0.085200
     61 H21A        2.5850   -5.3270   -0.8560 h1        1 I0Y      0.085200
     62 H25         4.4590    5.3290   -3.1270 hc        1 I0Y      0.046811
     63 H25A        4.5160    3.5990   -2.5750 hc        1 I0Y      0.046811
     64 H25B        3.4630    4.0680   -3.9750 hc        1 I0Y      0.046811
     65 H28         2.6640    0.6010    1.4740 ha        1 I0Y      0.140500
     66 H27         3.8780   -0.5200   -2.5270 ha        1 I0Y      0.140500
     67 H30         1.8970    2.8210    0.6150 ha        1 I0Y      0.143500
     68 H29         3.0460    1.6740   -3.3960 ha        1 I0Y      0.143500
     69 H32         0.9030    5.8950   -1.9320 hc        1 I0Y      0.046811
     70 H32A        2.3540    6.7210   -2.6590 hc        1 I0Y      0.046811
     71 H32B        1.4350    5.4720   -3.6120 hc        1 I0Y      0.046811
     72 H33         3.8570    4.2650   -0.2310 hc        1 I0Y      0.046811
     73 H33A        3.8350    6.0080   -0.7430 hc        1 I0Y      0.046811
     74 H33B        2.3690    5.2660    0.0340 hc        1 I0Y      0.046811
     75 O4          4.0050   -3.9520    1.4660 o         1 I0Y     -0.522100
@<TRIPOS>BOND
     1    1    2 2   
     2    1    3 1   
     3    1   11 1   
     4    3    4 1   
     5    4    5 1   
     6    4   39 1   
     7    4   40 1   
     8    5    6 ar  
     9    5   10 ar  
    10    6    7 ar  
    11    6   41 1   
    12    7    8 ar  
    13    7   42 1   
    14    8    9 ar  
    15    8   43 1   
    16    9   10 ar  
    17    9   44 1   
    18   10   45 1   
    19   11   12 1   
    20   11   46 1   
    21   12   13 1   
    22   12   15 1   
    23   12   47 1   
    24   13   14 2   
    25   13   22 1   
    26   15   16 1   
    27   15   48 1   
    28   15   49 1   
    29   16   17 ar  
    30   16   18 ar  
    31   17   19 ar  
    32   17   50 1   
    33   18   20 ar  
    34   18   51 1   
    35   19   21 ar  
    36   19   52 1   
    37   20   21 ar  
    38   20   53 1   
    39   21   54 1   
    40   22   26 1   
    41   22   55 1   
    42   23   30 1   
    43   23   32 1   
    44   24   28 1   
    45   24   56 1   
    46   25   26 1   
    47   25   29 1   
    48   25   57 1   
    49   25   58 1   
    50   26   27 1   
    51   26   59 1   
    52   27   28 1   
    53   27   75 2   
    54   28   60 1   
    55   28   61 1   
    56   29   33 ar  
    57   29   34 ar  
    58   30   35 ar  
    59   30   36 ar  
    60   31   32 1   
    61   31   62 1   
    62   31   63 1   
    63   31   64 1   
    64   32   37 1   
    65   32   38 1   
    66   33   35 ar  
    67   33   65 1   
    68   34   36 ar  
    69   34   66 1   
    70   35   67 1   
    71   36   68 1   
    72   37   69 1   
    73   37   70 1   
    74   37   71 1   
    75   38   72 1   
    76   38   73 1   
    77   38   74 1   
@<TRIPOS>SUBSTRUCTURE
     1 I0Y         1 TEMP              0 ****  ****    0 ROOT
