@<TRIPOS>MOLECULE
I10
   67    68     1     0     0
SMALL
bcc


@<TRIPOS>ATOM
      1 C1          0.1590   -0.0410    1.7090 ca        1 I10     -0.121500
      2 C2          1.5330    0.1150    1.5390 ca        1 I10     -0.110000
      3 C3          2.4290   -0.5390    2.3980 cp        1 I10     -0.085000
      4 C7          3.8690   -0.3830    2.2140 cp        1 I10      0.010000
      5 C8          4.7290   -1.4800    2.3850 ca        1 I10     -0.114000
      6 C9          6.1060   -1.3420    2.1900 ca        1 I10     -0.168300
      7 C10         6.6340   -0.0980    1.8160 ca        1 I10     -0.174000
      8 C11         5.7860    0.9940    1.6470 ca        1 I10     -0.112000
      9 C12         4.4120    0.8570    1.8460 ca        1 I10     -0.099000
     10 C13         6.9870   -2.5410    2.3150 c3        1 I10     -0.064400
     11 C14         8.0120   -2.3980    3.4200 c         1 I10      0.556100
     12 C16         7.7110   -2.8820    1.0090 c3        1 I10     -0.075400
     13 C20         7.3440   -3.3720   -1.3960 c3        1 I10     -0.097100
     14 C24         6.4890   -4.9620    0.3100 c3        1 I10     -0.097100
     15 N29         7.6950   -1.3250    4.4700 n4        1 I10     -0.682800
     16 C30         8.6780   -1.2740    5.5790 c3        1 I10      0.097800
     17 C31         8.2720   -0.3070    6.7100 c3        1 I10      0.101100
     18 C35         9.2160   -0.5650    7.9040 c3        1 I10      0.089800
     19 C4          1.9250   -1.3480    3.4280 ca        1 I10     -0.110000
     20 C5          0.5510   -1.4970    3.5960 ca        1 I10     -0.121500
     21 C6         -0.3350   -0.8450    2.7360 ca        1 I10     -0.096000
     22 O15         9.0340   -3.0300    3.6110 o         1 I10     -0.409100
     23 C17         6.7570   -3.5050   -0.0040 c3        1 I10     -0.065700
     24 O34         6.9370   -0.6240    7.0670 oh        1 I10     -0.605800
     25 N36         8.9020    0.1620    9.1240 n3        1 I10     -0.995800
     26 S39        10.5170   -0.3050   10.7170 s4        1 I10      1.549200
     27 O40         9.9670   -1.4800   11.1110 o         1 I10     -0.416900
     28 O41        11.5230   -0.2340    9.8170 o         1 I10     -0.416900
     29 C42        10.1890    0.9550   11.6550 ca        1 I10     -0.056100
     30 N43        10.3320    2.2130   11.0980 nb        1 I10     -0.594000
     31 C44        10.1570    3.2710   11.8740 ca        1 I10      0.405200
     32 C45         9.8160    3.1850   13.2580 ca        1 I10     -0.087300
     33 C46         9.6340    1.9270   13.8150 ca        1 I10     -0.116000
     34 C47         9.8160    0.7940   13.0080 ca        1 I10     -0.050300
     35 H1         -0.5380    0.4700    1.0260 ha        1 I10      0.149500
     36 H2          1.9150    0.7410    0.7180 ha        1 I10      0.128500
     37 H8          4.2980   -2.4630    2.6390 ha        1 I10      0.153000
     38 H10         7.7080    0.0080    1.5970 ha        1 I10      0.134000
     39 H11         6.1990    1.9660    1.3330 ha        1 I10      0.158000
     40 H12         3.7470    1.7240    1.7020 ha        1 I10      0.166000
     41 H13         6.3660   -3.4440    2.6150 hc        1 I10      0.126700
     42 H161        8.1560   -1.9480    0.5780 hc        1 I10      0.070200
     43 H162        8.5470   -3.6010    1.2210 hc        1 I10      0.070200
     44 H201        8.3360   -3.8810   -1.4560 hc        1 I10      0.047033
     45 H202        7.4760   -2.2970   -1.6670 hc        1 I10      0.047033
     46 H203        6.6590   -3.8430   -2.1430 hc        1 I10      0.047033
     47 H241        5.7840   -5.3890   -0.4440 hc        1 I10      0.047033
     48 H242        6.0290   -5.0780    1.3210 hc        1 I10      0.047033
     49 H243        7.4350   -5.5550    0.2790 hc        1 I10      0.047033
     50 HN2         7.6470   -0.4190    3.9840 hn        1 I10      0.470800
     51 H301        8.7750   -2.3210    5.9930 hx        1 I10      0.124700
     52 H302        9.6790   -0.9630    5.1620 hx        1 I10      0.124700
     53 H31         8.3580    0.7610    6.3640 h1        1 I10      0.073700
     54 H351       10.2680   -0.2950    7.5900 h1        1 I10      0.108700
     55 H352        9.1840   -1.6680    8.1490 h1        1 I10      0.108700
     56 H4          2.6160   -1.8650    4.1090 ha        1 I10      0.128500
     57 H5          0.1620   -2.1330    4.4060 ha        1 I10      0.149500
     58 H6         -1.4220   -0.9670    2.8680 ha        1 I10      0.154000
     59 H17         5.7820   -2.9410    0.0280 hc        1 I10      0.060700
     60 HO3         6.4960    0.1870    7.3520 ho        1 I10      0.439000
     61 HN3         8.8990    1.1560    8.9590 hn        1 I10      0.412800
     62 H44        10.2950    4.2620   11.3900 h4        1 I10      0.075100
     63 H45         9.7010    4.1080   13.8540 ha        1 I10      0.198000
     64 H46         9.3570    1.8080   14.8780 ha        1 I10      0.198000
     65 H47         9.6730   -0.2170   13.4360 ha        1 I10      0.188000
     66 H292        6.7590   -1.5180    4.8550 hn        1 I10      0.470800
     67 H362        7.9950   -0.1160    9.4690 hn        1 I10      0.412800
@<TRIPOS>BOND
     1    1    2 ar  
     2    1   21 ar  
     3    1   35 1   
     4    2    3 ar  
     5    2   36 1   
     6    3    4 1   
     7    3   19 ar  
     8    4    5 ar  
     9    4    9 ar  
    10    5    6 ar  
    11    5   37 1   
    12    6    7 ar  
    13    6   10 1   
    14    7    8 ar  
    15    7   38 1   
    16    8    9 ar  
    17    8   39 1   
    18    9   40 1   
    19   10   11 1   
    20   10   12 1   
    21   10   41 1   
    22   11   15 1   
    23   11   22 2   
    24   12   23 1   
    25   12   42 1   
    26   12   43 1   
    27   13   23 1   
    28   13   44 1   
    29   13   45 1   
    30   13   46 1   
    31   14   23 1   
    32   14   47 1   
    33   14   48 1   
    34   14   49 1   
    35   15   16 1   
    36   15   50 1   
    37   15   66 1   
    38   16   17 1   
    39   16   51 1   
    40   16   52 1   
    41   17   18 1   
    42   17   24 1   
    43   17   53 1   
    44   18   25 1   
    45   18   54 1   
    46   18   55 1   
    47   19   20 ar  
    48   19   56 1   
    49   20   21 ar  
    50   20   57 1   
    51   21   58 1   
    52   23   59 1   
    53   24   60 1   
    54   25   61 1   
    55   25   67 1   
    56   26   27 1   
    57   26   28 1   
    58   26   29 1   
    59   29   30 ar  
    60   29   34 ar  
    61   30   31 ar  
    62   31   32 ar  
    63   31   62 1   
    64   32   33 ar  
    65   32   63 1   
    66   33   34 ar  
    67   33   64 1   
    68   34   65 1   
@<TRIPOS>SUBSTRUCTURE
     1 I10         1 TEMP              0 ****  ****    0 ROOT
