@<TRIPOS>MOLECULE
I10
   67    68     1     0     0
SMALL
bcc


@<TRIPOS>ATOM
      1 C1          0.1710   -0.0070    1.6960 ca        1 I10     -0.121500
      2 C2          1.5470    0.1290    1.5230 ca        1 I10     -0.110000
      3 C3          2.4350   -0.5210    2.3920 cp        1 I10     -0.085000
      4 C7          3.8770   -0.3850    2.2040 cp        1 I10      0.010000
      5 C8          4.7230   -1.4900    2.3930 ca        1 I10     -0.114000
      6 C9          6.1020   -1.3710    2.1940 ca        1 I10     -0.168300
      7 C10         6.6450   -0.1400    1.7980 ca        1 I10     -0.174000
      8 C11         5.8100    0.9590    1.6130 ca        1 I10     -0.112000
      9 C12         4.4350    0.8420    1.8150 ca        1 I10     -0.099000
     10 C13         6.9690   -2.5790    2.3380 c3        1 I10     -0.064400
     11 C14         7.9990   -2.4290    3.4380 c         1 I10      0.556100
     12 C16         7.6850   -2.9520    1.0370 c3        1 I10     -0.075400
     13 C20         7.3050   -3.4800   -1.3590 c3        1 I10     -0.097100
     14 C24         6.4370   -5.0290    0.3780 c3        1 I10     -0.097100
     15 N29         7.6940   -1.3380    4.4720 ny        1 I10     -0.682800
     16 C30         8.6820   -1.2760    5.5760 c3        1 I10      0.097800
     17 C31         8.2880   -0.2900    6.6950 c3        1 I10      0.101100
     18 C35         9.2370   -0.5360    7.8870 c3        1 I10      0.089800
     19 C4          1.9230   -1.3070    3.4350 ca        1 I10     -0.110000
     20 C5          0.5470   -1.4360    3.6070 ca        1 I10     -0.121500
     21 C6         -0.3320   -0.7870    2.7380 ca        1 I10     -0.096000
     22 O15         9.0160   -3.0680    3.6360 o         1 I10     -0.409100
     23 C17         6.7210   -3.5820    0.0360 c3        1 I10     -0.065700
     24 O34         6.9530   -0.5940    7.0630 oh        1 I10     -0.605800
     25 N36         8.9300    0.2080    9.0990 n8        1 I10     -0.995800
     26 S39        10.5530   -0.2400   10.6890 s4        1 I10      1.549200
     27 O40        10.0200   -1.4230   11.0830 o         1 I10     -0.416900
     28 O41        11.5570   -0.1550    9.7870 o         1 I10     -0.416900
     29 C42        10.2090    1.0140   11.6290 ca        1 I10     -0.056100
     30 N43        10.3330    2.2740   11.0720 nb        1 I10     -0.594000
     31 C44        10.1440    3.3290   11.8500 ca        1 I10      0.405200
     32 C45         9.8080    3.2370   13.2350 ca        1 I10     -0.087300
     33 C46         9.6470    1.9760   13.7910 ca        1 I10     -0.116000
     34 C47         9.8420    0.8460   12.9830 ca        1 I10     -0.050300
     35 H1         -0.5210    0.5010    1.0050 ha        1 I10      0.149500
     36 H2          1.9350    0.7370    0.6910 ha        1 I10      0.128500
     37 H8          4.2820   -2.4630    2.6630 ha        1 I10      0.153000
     38 H10         7.7200   -0.0510    1.5770 ha        1 I10      0.134000
     39 H11         6.2340    1.9210    1.2820 ha        1 I10      0.158000
     40 H12         3.7800    1.7140    1.6570 ha        1 I10      0.166000
     41 H13         6.3380   -3.4690    2.6550 hc        1 I10      0.126700
     42 H161        8.1400   -2.0300    0.5880 hc        1 I10      0.070200
     43 H162        8.5140   -3.6760    1.2580 hc        1 I10      0.070200
     44 H201        6.6130   -3.9550   -2.0960 hc        1 I10      0.047033
     45 H202        7.4490   -2.4110   -1.6490 hc        1 I10      0.047033
     46 H203        8.2910   -4.0010   -1.4130 hc        1 I10      0.047033
     47 H241        5.9790   -5.1220    1.3910 hc        1 I10      0.047033
     48 H242        7.3760   -5.6340    0.3540 hc        1 I10      0.047033
     49 H243        5.7250   -5.4620   -0.3670 hc        1 I10      0.047033
     50 HN2         6.7580   -1.5170    4.8640 hn        1 I10      0.470800
     51 H301        8.7740   -2.3180    6.0060 hx        1 I10      0.124700
     52 H302        9.6840   -0.9790    5.1510 hx        1 I10      0.124700
     53 H31         8.3790    0.7710    6.3320 h1        1 I10      0.073700
     54 H351        9.2020   -1.6360    8.1480 h1        1 I10      0.108700
     55 H352       10.2880   -0.2730    7.5650 h1        1 I10      0.108700
     56 H4          2.6080   -1.8210    4.1240 ha        1 I10      0.128500
     57 H5          0.1520   -2.0540    4.4280 ha        1 I10      0.149500
     58 H6         -1.4200   -0.8950    2.8720 ha        1 I10      0.154000
     59 H17         5.7520   -3.0050    0.0610 hc        1 I10      0.060700
     60 HO3         6.5180    0.2250    7.3360 ho        1 I10      0.439000
     61 HN3         8.0240   -0.0620    9.4520 hn        1 I10      0.412800
     62 H44        10.2670    4.3220   11.3670 h4        1 I10      0.075100
     63 H45         9.6810    4.1570   13.8320 ha        1 I10      0.198000
     64 H46         9.3740    1.8520   14.8550 ha        1 I10      0.198000
     65 H47         9.7160   -0.1660   13.4110 ha        1 I10      0.188000
     66 H292        7.6520   -0.4390    3.9720 hn        1 I10      0.470800
     67 H362        8.9300    1.2000    8.9210 hn        1 I10      0.412800
@<TRIPOS>BOND
     1    1    2 ar  
     2    1   21 ar  
     3    1   35 1   
     4    2    3 ar  
     5    2   36 1   
     6    3    4 1   
     7    3   19 ar  
     8    4    5 ar  
     9    4    9 ar  
    10    5    6 ar  
    11    5   37 1   
    12    6    7 ar  
    13    6   10 1   
    14    7    8 ar  
    15    7   38 1   
    16    8    9 ar  
    17    8   39 1   
    18    9   40 1   
    19   10   11 1   
    20   10   12 1   
    21   10   41 1   
    22   11   15 1   
    23   11   22 2   
    24   12   23 1   
    25   12   42 1   
    26   12   43 1   
    27   13   23 1   
    28   13   44 1   
    29   13   45 1   
    30   13   46 1   
    31   14   23 1   
    32   14   47 1   
    33   14   48 1   
    34   14   49 1   
    35   15   16 1   
    36   15   50 1   
    37   15   66 1   
    38   16   17 1   
    39   16   51 1   
    40   16   52 1   
    41   17   18 1   
    42   17   24 1   
    43   17   53 1   
    44   18   25 1   
    45   18   54 1   
    46   18   55 1   
    47   19   20 ar  
    48   19   56 1   
    49   20   21 ar  
    50   20   57 1   
    51   21   58 1   
    52   23   59 1   
    53   24   60 1   
    54   25   61 1   
    55   25   67 1   
    56   26   27 1   
    57   26   28 1   
    58   26   29 1   
    59   29   30 ar  
    60   29   34 ar  
    61   30   31 ar  
    62   31   32 ar  
    63   31   62 1   
    64   32   33 ar  
    65   32   63 1   
    66   33   34 ar  
    67   33   64 1   
    68   34   65 1   
@<TRIPOS>SUBSTRUCTURE
     1 I10         1 TEMP              0 ****  ****    0 ROOT
