@<TRIPOS>MOLECULE
I10
   65    57     1     0     0
SMALL
bcc


@<TRIPOS>ATOM
      1 C1         -7.1590    2.9540   -2.0730 c1        1 I10     -0.123500
      2 C2         -5.7830    2.7900   -2.1810 c1        1 I10     -0.116500
      3 C3         -5.2620    1.8930   -3.0990 c1        1 I10     -0.038000
      4 C7         -3.8820    1.7340   -3.2130 c1        1 I10     -0.038000
      5 C8         -3.2130    0.8480   -2.3790 c1        1 I10     -0.113000
      6 C9         -1.8350    0.7080   -2.4780 c1        1 I10     -0.082000
      7 C10        -1.1290    1.4520   -3.4080 c1        1 I10     -0.123500
      8 C11        -1.7970    2.3360   -4.2400 c1        1 I10     -0.123500
      9 C12        -3.1760    2.4770   -4.1420 c1        1 I10     -0.116500
     10 C13        -1.0970   -0.1700   -1.5010 c3        1 I10     -0.081000
     11 C14        -0.2020    0.6920   -0.6200 c2        1 I10      0.299000
     12 C16        -0.2450   -1.1700   -2.2630 c3        1 I10     -0.143000
     13 C20        -0.7660   -2.7340   -4.1570 c3        1 I10     -0.207000
     14 C24        -0.8930   -3.5550   -1.8090 c3        1 I10     -0.207000
     15 N29         0.1330    0.2590    0.7030 n         1 I10     -0.356000
     16 C30         1.0200    1.0640    1.5260 c3        1 I10     -0.028000
     17 C31         1.5400    0.2320    2.6680 c3        1 I10     -0.025000
     18 C35         2.5730    1.0510    3.4740 c3        1 I10     -0.053000
     19 C4         -6.1120    1.1590   -3.9080 c1        1 I10     -0.123500
     20 C5         -7.4860    1.3220   -3.8000 c1        1 I10     -0.123500
     21 C6         -8.0070    2.2220   -2.8800 c1        1 I10     -0.123500
     22 O15         0.2630    1.7200   -1.0550 o         1 I10     -0.376000
     23 C17        -1.1290   -2.3570   -2.7260 c3        1 I10     -0.111000
     24 O34         2.1450   -0.9150    2.1690 oh        1 I10     -0.341000
     25 N36         3.5260    0.1490    4.1000 n3        1 I10     -0.895000
     26 S39         5.1550    0.4950    4.0500 s4        1 I10      2.079800
     27 O40         5.6480    0.4930    2.7000 o         1 I10     -0.542900
     28 O41         5.4110    1.8530    4.4380 o         1 I10     -0.542900
     29 C42         6.0620   -0.6520    5.0710 c1        1 I10     -0.710000
     30 N43         5.7120   -1.9690    5.0940 n2        1 I10     -0.080000
     31 C44         6.4240   -2.8550    5.8570 c1        1 I10     -0.083000
     32 C45         7.5040   -2.4120    6.6090 c1        1 I10     -0.123500
     33 C46         7.8550   -1.0910    6.5870 c1        1 I10     -0.123500
     34 C47         7.1420   -0.2060    5.8230 c1        1 I10     -0.071000
     35 H1         -7.5250    3.5870   -1.4260 ha        1 I10      0.139875
     36 H2         -5.1860    3.3050   -1.6130 ha        1 I10      0.136000
     37 H8         -3.7100    0.3260   -1.7270 ha        1 I10      0.136000
     38 H10        -0.1600    1.3530   -3.4780 ha        1 I10      0.139875
     39 H11        -1.2980    2.8610   -4.8970 ha        1 I10      0.139875
     40 H12        -3.6450    3.0990   -4.7270 ha        1 I10      0.136000
     41 H13        -1.7400   -0.6480   -0.9430 hc        1 I10      0.111000
     42 H161        0.4670   -1.5010   -1.6810 hc        1 I10      0.099500
     43 H162        0.1530   -0.7290   -3.0510 hc        1 I10      0.099500
     44 H201        0.1600   -3.0660   -4.1830 hc        1 I10      0.073167
     45 H202       -0.8460   -1.9460   -4.7320 hc        1 I10      0.073167
     46 H203       -1.3730   -3.4330   -4.4740 hc        1 I10      0.073167
     47 H241       -0.9870   -4.3900   -2.3270 hc        1 I10      0.073167
     48 H242        0.0120   -3.5040   -1.4320 hc        1 I10      0.073167
     49 H243       -1.5470   -3.5450   -1.0860 hc        1 I10      0.073167
     50 HN2        -0.2600   -0.5010    1.0540 hn        1 I10      0.233000
     51 H301        1.7710    1.3780    0.9850 h1        1 I10      0.111500
     52 H302        0.5320    1.8280    1.8770 h1        1 I10      0.111500
     53 H31         0.7940   -0.0200    3.2530 h1        1 I10      0.091000
     54 H351        2.1130    1.5680    4.1640 h1        1 I10      0.109500
     55 H352        3.0500    1.6650    2.8680 h1        1 I10      0.109500
     56 H4         -5.7470    0.5290   -4.5520 ha        1 I10      0.139875
     57 H5         -8.0860    0.8050   -4.3710 ha        1 I10      0.139875
     58 H6         -8.9710    2.3370   -2.8040 ha        1 I10      0.139875
     59 H17        -2.0710   -2.0960   -2.6870 hc        1 I10      0.093000
     60 HO3         1.7430   -1.6350    2.5090 ho        1 I10      0.230000
     61 HN3         3.2250   -0.5590    4.5970 hn        1 I10      0.256000
     62 H44         6.1700   -3.8060    5.8730 ha        1 I10      0.169000
     63 H45         8.0130   -3.0430    7.1530 ha        1 I10      0.139875
     64 H46         8.6180   -0.7770    7.1180 ha        1 I10      0.139875
     65 H47         7.3930    0.7420    5.8060 ha        1 I10      0.177000
@<TRIPOS>BOND
     1    1   21 1   
     2    1   35 1   
     3    2    3 1   
     4    2   36 1   
     5    4    9 1   
     6    5    6 1   
     7    5   37 1   
     8    6   10 1   
     9    7    8 1   
    10    7   38 1   
    11    8   39 1   
    12    9   40 1   
    13   10   11 1   
    14   10   12 1   
    15   10   41 1   
    16   11   15 1   
    17   11   22 1   
    18   12   23 1   
    19   12   42 1   
    20   12   43 1   
    21   13   23 1   
    22   13   44 1   
    23   13   45 1   
    24   13   46 1   
    25   14   23 1   
    26   14   47 1   
    27   14   48 1   
    28   14   49 1   
    29   15   16 1   
    30   15   50 1   
    31   16   17 1   
    32   16   51 1   
    33   16   52 1   
    34   17   18 1   
    35   17   24 1   
    36   17   53 1   
    37   18   25 1   
    38   18   54 1   
    39   18   55 1   
    40   19   20 1   
    41   19   56 1   
    42   20   57 1   
    43   21   58 1   
    44   23   59 1   
    45   24   60 1   
    46   25   26 1   
    47   25   61 1   
    48   26   27 1   
    49   26   28 1   
    50   29   30 1   
    51   29   34 1   
    52   30   31 1   
    53   31   62 1   
    54   32   33 1   
    55   32   63 1   
    56   33   64 1   
    57   34   65 1   
@<TRIPOS>SUBSTRUCTURE
     1 I10         1 TEMP              0 ****  ****    0 ROOT
