@<TRIPOS>MOLECULE
I10
   67    68     1     0     0
SMALL
bcc


@<TRIPOS>ATOM
      1 C1          0.1680   -0.0930    1.6680 ca        1 I10     -0.121500
      2 C2          1.5440    0.0590    1.5000 ca        1 I10     -0.110000
      3 C3          2.4360   -0.5790    2.3740 cp        1 I10     -0.085000
      4 C7          3.8770   -0.4280    2.1910 cp        1 I10      0.010000
      5 C8          4.7350   -1.5220    2.3860 ca        1 I10     -0.114000
      6 C9          6.1130   -1.3880    2.1920 ca        1 I10     -0.168300
      7 C10         6.6430   -0.1520    1.7950 ca        1 I10     -0.174000
      8 C11         5.7970    0.9370    1.6040 ca        1 I10     -0.112000
      9 C12         4.4230    0.8050    1.8010 ca        1 I10     -0.099000
     10 C13         6.9930   -2.5850    2.3430 c3        1 I10     -0.064400
     11 C14         8.0160   -2.4210    3.4470 c         1 I10      0.556100
     12 C16         7.7190   -2.9540    1.0460 c3        1 I10     -0.075400
     13 C20         7.3560   -3.4900   -1.3510 c3        1 I10     -0.097100
     14 C24         6.4950   -5.0450    0.3850 c3        1 I10     -0.097100
     15 N29         7.6960   -1.3310    4.4760 n4        1 I10     -0.682800
     16 C30         8.6790   -1.2550    5.5840 c3        1 I10      0.097800
     17 C31         8.2690   -0.2690    6.6980 c3        1 I10      0.101100
     18 C35         9.2170   -0.5010    7.8940 c3        1 I10      0.089800
     19 C4          1.9290   -1.3680    3.4160 ca        1 I10     -0.110000
     20 C5          0.5530   -1.5120    3.5830 ca        1 I10     -0.121500
     21 C6         -0.3290   -0.8760    2.7090 ca        1 I10     -0.096000
     22 O15         9.0390   -3.0490    3.6510 o         1 I10     -0.409100
     23 C17         6.7660   -3.5950    0.0420 c3        1 I10     -0.065700
     24 O34         6.9370   -0.5870    7.0620 oh        1 I10     -0.605800
     25 N36         8.8980    0.2440    9.1020 n3        1 I10     -0.995800
     26 S39        10.5200   -0.1800   10.7000 s4        1 I10      1.549200
     27 O40         9.9980   -1.3660   11.0970 o         1 I10     -0.416900
     28 O41        11.5260   -0.0890    9.8000 o         1 I10     -0.416900
     29 C42        10.1610    1.0750   11.6330 ca        1 I10     -0.056100
     30 N43        10.2740    2.3340   11.0700 nb        1 I10     -0.594000
     31 C44        10.0720    3.3910   11.8420 ca        1 I10      0.405200
     32 C45         9.7330    3.3020   13.2270 ca        1 I10     -0.087300
     33 C46         9.5830    2.0420   13.7880 ca        1 I10     -0.116000
     34 C47         9.7920    0.9100   12.9860 ca        1 I10     -0.050300
     35 H1         -0.5260    0.4050    0.9730 ha        1 I10      0.149500
     36 H2          1.9280    0.6680    0.6670 ha        1 I10      0.128500
     37 H8          4.3030   -2.4990    2.6570 ha        1 I10      0.153000
     38 H10         7.7180   -0.0520    1.5770 ha        1 I10      0.134000
     39 H11         6.2110    1.9030    1.2720 ha        1 I10      0.158000
     40 H12         3.7580    1.6700    1.6380 ha        1 I10      0.166000
     41 H13         6.3710   -3.4820    2.6590 hc        1 I10      0.126700
     42 H161        8.1660   -2.0280    0.5970 hc        1 I10      0.070200
     43 H162        8.5540   -3.6680    1.2730 hc        1 I10      0.070200
     44 H201        8.3480   -4.0020   -1.3980 hc        1 I10      0.047033
     45 H202        6.6730   -3.9750   -2.0900 hc        1 I10      0.047033
     46 H203        7.4910   -2.4210   -1.6420 hc        1 I10      0.047033
     47 H241        7.4410   -5.6400    0.3680 hc        1 I10      0.047033
     48 H242        6.0330   -5.1410    1.3970 hc        1 I10      0.047033
     49 H243        5.7920   -5.4870   -0.3630 hc        1 I10      0.047033
     50 HN2         7.6450   -0.4340    3.9740 hn        1 I10      0.470300
     51 H301        9.6780   -0.9470    5.1610 hx        1 I10      0.124700
     52 H302        8.7800   -2.2930    6.0170 hx        1 I10      0.124700
     53 H31         8.3490    0.7920    6.3320 h1        1 I10      0.073700
     54 H351       10.2660   -0.2270    7.5750 h1        1 I10      0.108700
     55 H352        9.1930   -1.5990    8.1590 h1        1 I10      0.108700
     56 H4          2.6170   -1.8730    4.1100 ha        1 I10      0.128500
     57 H5          0.1620   -2.1330    4.4040 ha        1 I10      0.149500
     58 H6         -1.4170   -0.9960    2.8390 ha        1 I10      0.154000
     59 H17         5.7920   -3.0290    0.0610 hc        1 I10      0.060700
     60 HO3         6.4910    0.2270    7.3320 ho        1 I10      0.439000
     61 HN3         8.8870    1.2360    8.9200 hn        1 I10      0.412800
     62 H44        10.1860    4.3830   11.3540 h4        1 I10      0.075100
     63 H45         9.5950    4.2240   13.8190 ha        1 I10      0.198000
     64 H46         9.3080    1.9200   14.8520 ha        1 I10      0.198000
     65 H47         9.6740   -0.1010   13.4180 ha        1 I10      0.188000
     66 H292        6.7610   -1.5190    4.8650 hn        1 I10      0.470300
     67 H362        7.9940   -0.0340    9.4530 hn        1 I10      0.412800
@<TRIPOS>BOND
     1    1    2 ar  
     2    1   21 ar  
     3    1   35 1   
     4    2    3 ar  
     5    2   36 1   
     6    3    4 1   
     7    3   19 ar  
     8    4    5 ar  
     9    4    9 ar  
    10    5    6 ar  
    11    5   37 1   
    12    6    7 ar  
    13    6   10 1   
    14    7    8 ar  
    15    7   38 1   
    16    8    9 ar  
    17    8   39 1   
    18    9   40 1   
    19   10   11 1   
    20   10   12 1   
    21   10   41 1   
    22   11   15 1   
    23   11   22 2   
    24   12   23 1   
    25   12   42 1   
    26   12   43 1   
    27   13   23 1   
    28   13   44 1   
    29   13   45 1   
    30   13   46 1   
    31   14   23 1   
    32   14   47 1   
    33   14   48 1   
    34   14   49 1   
    35   15   16 1   
    36   15   50 1   
    37   15   66 1   
    38   16   17 1   
    39   16   51 1   
    40   16   52 1   
    41   17   18 1   
    42   17   24 1   
    43   17   53 1   
    44   18   25 1   
    45   18   54 1   
    46   18   55 1   
    47   19   20 ar  
    48   19   56 1   
    49   20   21 ar  
    50   20   57 1   
    51   21   58 1   
    52   23   59 1   
    53   24   60 1   
    54   25   61 1   
    55   25   67 1   
    56   26   27 1   
    57   26   28 1   
    58   26   29 1   
    59   29   30 ar  
    60   29   34 ar  
    61   30   31 ar  
    62   31   32 ar  
    63   31   62 1   
    64   32   33 ar  
    65   32   63 1   
    66   33   34 ar  
    67   33   64 1   
    68   34   65 1   
@<TRIPOS>SUBSTRUCTURE
     1 I10         1 TEMP              0 ****  ****    0 ROOT
