@<TRIPOS>MOLECULE
I10
   65    67     1     0     0
SMALL
bcc


@<TRIPOS>ATOM
      1 C1         -4.0320   -1.6770   -5.4050 ca        1 I10     -0.131000
      2 C2         -2.9630   -0.8430   -5.0860 ca        1 I10     -0.117000
      3 C3         -2.1670   -1.1110   -3.9630 cp        1 I10     -0.045000
      4 C7         -1.0440   -0.2370   -3.6270 cp        1 I10     -0.029000
      5 C8          0.1700   -0.7840   -3.1910 ca        1 I10     -0.107000
      6 C9          1.2520    0.0420   -2.8600 ca        1 I10     -0.090300
      7 C10         1.1090    1.4300   -2.9690 ca        1 I10     -0.135000
      8 C11        -0.0960    1.9790   -3.4060 ca        1 I10     -0.131000
      9 C12        -1.1690    1.1550   -3.7360 ca        1 I10     -0.116000
     10 C13         2.5230   -0.5950   -2.3970 c3        1 I10     -0.086400
     11 C14         2.5570   -0.7450   -0.8740 c         1 I10      0.661100
     12 C16         3.7930    0.1220   -2.8370 c3        1 I10     -0.068400
     13 C20         4.9670    1.2120   -4.7390 c3        1 I10     -0.090600
     14 C24         4.4120   -1.2050   -4.8750 c3        1 I10     -0.090600
     15 N29         2.1810    0.3410   -0.0990 n         1 I10     -0.545900
     16 C30         2.1050    0.2300    1.3300 c3        1 I10      0.050000
     17 C31         0.8230   -0.4320    1.8750 c3        1 I10      0.092100
     18 C35         0.9790   -0.5840    3.4040 c3        1 I10      0.201800
     19 C4         -2.4610   -2.2260   -3.1660 ca        1 I10     -0.117000
     20 C5         -3.5330   -3.0560   -3.4870 ca        1 I10     -0.131000
     21 C6         -4.3200   -2.7840   -4.6070 ca        1 I10     -0.125000
     22 O15         2.9810   -1.7960   -0.3500 o         1 I10     -0.620100
     23 C17         3.9650    0.1430   -4.3490 c3        1 I10     -0.069700
     24 O34         0.5600   -1.6850    1.2760 oh        1 I10     -0.604800
     25 N36        -0.1640   -1.1680    4.0410 n3        1 I10     -0.907100
     26 S39        -0.9150   -0.5440    5.3080 sy        1 I10      1.439800
     27 O40        -1.5860   -1.5640    6.0150 o         1 I10     -0.646800
     28 O41        -0.0630    0.2880    6.0530 o         1 I10     -0.646800
     29 C42        -2.1620    0.4420    4.6060 ca        1 I10      0.136200
     30 N43        -1.7910    1.3820    3.7000 nb        1 I10     -0.605000
     31 C44        -2.7430    2.1750    3.1920 ca        1 I10      0.377200
     32 C45        -4.1060    2.0820    3.5470 ca        1 I10     -0.192300
     33 C46        -4.4820    1.1120    4.4710 ca        1 I10     -0.112000
     34 C47        -3.4970    0.2760    5.0100 ca        1 I10     -0.141300
     35 H1         -4.6490   -1.4620   -6.2900 ha        1 I10      0.134000
     36 H2         -2.7360    0.0260   -5.7210 ha        1 I10      0.137500
     37 H8          0.2730   -1.8780   -3.1110 ha        1 I10      0.144000
     38 H10         1.9490    2.0960   -2.7220 ha        1 I10      0.136000
     39 H11        -0.1980    3.0710   -3.4930 ha        1 I10      0.134000
     40 H12        -2.1190    1.5940   -4.0760 ha        1 I10      0.138000
     41 H13         2.5630   -1.6490   -2.8070 hc        1 I10      0.094700
     42 H161        4.6720   -0.4000   -2.3720 hc        1 I10      0.052700
     43 H162        3.7890    1.1740   -2.4470 hc        1 I10      0.052700
     44 H201        5.1090    1.2220   -5.8460 hc        1 I10      0.035367
     45 H202        4.6080    2.2200   -4.4190 hc        1 I10      0.035367
     46 H203        5.9550    1.0170   -4.2570 hc        1 I10      0.035367
     47 H241        5.3940   -1.4950   -4.4290 hc        1 I10      0.035367
     48 H242        3.6640   -1.9950   -4.6260 hc        1 I10      0.035367
     49 H243        4.5260   -1.1650   -5.9860 hc        1 I10      0.035367
     50 HN2         1.6080    1.0340   -0.5260 hn        1 I10      0.313500
     51 H301        2.9940   -0.3710    1.6800 h1        1 I10      0.069700
     52 H302        2.1760    1.2670    1.7640 h1        1 I10      0.069700
     53 H31        -0.0840    0.1900    1.6310 h1        1 I10      0.085700
     54 H351        1.8800   -1.2370    3.6020 h1        1 I10      0.061700
     55 H352        1.1750    0.4330    3.8510 h1        1 I10      0.061700
     56 H4         -1.8460   -2.4410   -2.2780 ha        1 I10      0.137500
     57 H5         -3.7580   -3.9270   -2.8550 ha        1 I10      0.134000
     58 H6         -5.1640   -3.4420   -4.8600 ha        1 I10      0.133000
     59 H17         2.9700    0.4000   -4.8150 hc        1 I10      0.056700
     60 HO3         1.3950   -2.1740    1.2280 ho        1 I10      0.425000
     61 HN3        -0.5020   -1.9720    3.5590 hn        1 I10      0.465800
     62 H44        -2.4020    2.9310    2.4610 h4        1 I10      0.026100
     63 H45        -4.8430    2.7620    3.0990 ha        1 I10      0.147000
     64 H46        -5.5330    0.9990    4.7760 ha        1 I10      0.147000
     65 H47        -3.7570   -0.5070    5.7420 ha        1 I10      0.174000
@<TRIPOS>BOND
     1    1    2 ar  
     2    1   21 ar  
     3    1   35 1   
     4    2    3 ar  
     5    2   36 1   
     6    3    4 1   
     7    3   19 ar  
     8    4    5 ar  
     9    4    9 ar  
    10    5    6 ar  
    11    5   37 1   
    12    6    7 ar  
    13    6   10 1   
    14    7    8 ar  
    15    7   38 1   
    16    8    9 ar  
    17    8   39 1   
    18    9   40 1   
    19   10   11 1   
    20   10   12 1   
    21   10   41 1   
    22   11   15 1   
    23   11   22 2   
    24   12   23 1   
    25   12   42 1   
    26   12   43 1   
    27   13   23 1   
    28   13   44 1   
    29   13   45 1   
    30   13   46 1   
    31   14   23 1   
    32   14   47 1   
    33   14   48 1   
    34   14   49 1   
    35   15   16 1   
    36   15   50 1   
    37   16   17 1   
    38   16   51 1   
    39   16   52 1   
    40   17   18 1   
    41   17   24 1   
    42   17   53 1   
    43   18   25 1   
    44   18   54 1   
    45   18   55 1   
    46   19   20 ar  
    47   19   56 1   
    48   20   21 ar  
    49   20   57 1   
    50   21   58 1   
    51   23   59 1   
    52   24   60 1   
    53   25   26 1   
    54   25   61 1   
    55   26   27 2   
    56   26   28 2   
    57   26   29 1   
    58   29   30 ar  
    59   29   34 ar  
    60   30   31 ar  
    61   31   32 ar  
    62   31   62 1   
    63   32   33 ar  
    64   32   63 1   
    65   33   34 ar  
    66   33   64 1   
    67   34   65 1   
@<TRIPOS>SUBSTRUCTURE
     1 I10         1 TEMP              0 ****  ****    0 ROOT
