@<TRIPOS>MOLECULE
I11
   70    71     1     0     0
SMALL
bcc


@<TRIPOS>ATOM
      1 C1          2.8590   -1.0260   -2.5250 c3        1 I11     -0.076400
      2 C2          3.5720   -0.3720   -1.3580 c3        1 I11     -0.047900
      3 C3          2.7230   -0.4850   -0.0680 c3        1 I11     -0.468400
      4 C4          2.4590   -1.9730    0.2110 c3        1 I11     -0.047900
      5 C5          1.7520   -2.6280   -0.9580 c3        1 I11     -0.076400
      6 C6          2.5450   -2.4780   -2.2380 c3        1 I11     -0.092400
      7 S19         3.4550    0.2830    1.1490 s4        1 I11      1.598500
      8 O43         4.4470   -0.3280    1.8280 o         1 I11     -0.394900
      9 O44         3.0960    1.5620    1.4010 o         1 I11     -0.394900
     10 N20         2.0600   -0.1800    3.3880 n3        1 I11     -0.971800
     11 C21         2.1460    0.9660    4.2550 c3        1 I11      0.077800
     12 C22         1.3560    0.8480    5.5580 c         1 I11      0.513100
     13 O42         0.6220   -0.0660    5.8980 o         1 I11     -0.405100
     14 N23         1.4980    2.0010    6.5290 n4        1 I11     -0.672800
     15 C24         2.1750    1.5910    7.8200 c3        1 I11      0.053500
     16 C25         2.0430    2.6760    8.8910 c3        1 I11     -0.134400
     17 C26         0.7230    2.5600    9.6640 c3        1 I11      0.032300
     18 N27         0.5780    3.5930   10.6580 nh        1 I11     -0.385100
     19 C28        -0.3530    3.5680   11.6540 cc        1 I11      0.445900
     20 C29        -0.3970    4.6280   12.6200 cc        1 I11     -0.324600
     21 C30        -1.3410    4.6120   13.6330 cd        1 I11      0.144000
     22 N31        -2.2530    3.5950   13.7420 na        1 I11     -0.498800
     23 C32        -2.2420    2.5710   12.8370 cd        1 I11      0.144000
     24 C33        -1.3220    2.5280   11.7980 cc        1 I11     -0.324600
     25 C34         3.6920    1.3410    7.5280 c         1 I11      0.635100
     26 O41         4.1310    1.8200    6.4510 o         1 I11     -0.656100
     27 N35         4.4350    0.5790    8.3660 n         1 I11     -0.396800
     28 C36         5.8780    0.4470    8.1380 c3        1 I11      0.069500
     29 C37         6.7200    0.9710    9.3000 c3        1 I11     -0.099400
     30 C38         6.2730    0.3800   10.6200 c3        1 I11     -0.090400
     31 C39         4.7880    0.5860   10.8350 c3        1 I11     -0.099400
     32 C40         3.9820    0.0590    9.6460 c3        1 I11      0.069500
     33 H11         1.9150   -0.4660   -2.7550 hc        1 I11      0.080450
     34 H12         3.5230   -0.9540   -3.4300 hc        1 I11      0.080450
     35 H21         4.5570   -0.8870   -1.1960 hc        1 I11      0.069450
     36 H22         3.7440    0.7110   -1.5940 hc        1 I11      0.069450
     37 H3          1.7130   -0.0420   -0.3570 h1        1 I11      0.201700
     38 H41         1.8220   -2.0630    1.1300 hc        1 I11      0.069450
     39 H42         3.4380   -2.4940    0.3920 hc        1 I11      0.069450
     40 H51         1.6140   -3.7190   -0.7270 hc        1 I11      0.080450
     41 H52         0.7330   -2.1780   -1.0850 hc        1 I11      0.080450
     42 H61         1.9540   -2.9050   -3.0930 hc        1 I11      0.081700
     43 H62         3.4980   -3.0680   -2.1680 hc        1 I11      0.081700
     44 H20         1.1030   -0.4280    3.1980 hn        1 I11      0.408300
     45 H211        1.7610    1.8730    3.6930 h1        1 I11      0.148200
     46 H212        3.2360    1.1540    4.5270 h1        1 I11      0.148200
     47 H23         0.5720    2.3840    6.7500 hn        1 I11      0.476300
     48 H24         1.6730    0.6310    8.1490 hx        1 I11      0.133700
     49 H251        2.1550    3.7000    8.4400 hc        1 I11      0.107700
     50 H252        2.9040    2.5540    9.6110 hc        1 I11      0.107700
     51 H261        0.6830    1.5480   10.1670 h1        1 I11      0.060200
     52 H262       -0.1460    2.6210    8.9450 h1        1 I11      0.060200
     53 H27         1.2150    4.3610   10.6300 hn        1 I11      0.313700
     54 H29         0.3160    5.4700   12.5770 ha        1 I11      0.189500
     55 H30        -1.3940    5.4220   14.3950 h4        1 I11      0.222500
     56 H31        -2.9300    3.6040   14.4880 hn        1 I11      0.512800
     57 H32        -3.0050    1.7720   12.9700 h4        1 I11      0.222500
     58 H33        -1.3650    1.6810   11.0960 ha        1 I11      0.189500
     59 H361        6.1610    0.9920    7.1930 h1        1 I11      0.072950
     60 H362        6.0780   -0.6540    7.9950 h1        1 I11      0.072950
     61 H371        6.6660    2.0900    9.3410 hc        1 I11      0.068700
     62 H372        7.7890    0.6920    9.0990 hc        1 I11      0.068700
     63 H381        6.8440    0.8590   11.4590 hc        1 I11      0.077200
     64 H382        6.5070   -0.7180   10.6420 hc        1 I11      0.077200
     65 H391        4.5740    1.6750   10.9950 hc        1 I11      0.068700
     66 H392        4.4550    0.0310   11.7520 hc        1 I11      0.068700
     67 H401        2.8930    0.2870    9.8070 h1        1 I11      0.072950
     68 H402        4.1000   -1.0650    9.5990 h1        1 I11      0.072950
     69 H202        2.5290   -0.9770    3.7900 hn        1 I11      0.408300
     70 H232        2.0840    2.7320    6.0900 hn        1 I11      0.476300
@<TRIPOS>BOND
     1    1    2 1   
     2    1    6 1   
     3    1   33 1   
     4    1   34 1   
     5    2    3 1   
     6    2   35 1   
     7    2   36 1   
     8    3    4 1   
     9    3    7 1   
    10    3   37 1   
    11    4    5 1   
    12    4   38 1   
    13    4   39 1   
    14    5    6 1   
    15    5   40 1   
    16    5   41 1   
    17    6   42 1   
    18    6   43 1   
    19    7    8 1   
    20    7    9 1   
    21   10   11 1   
    22   10   44 1   
    23   10   69 1   
    24   11   12 1   
    25   11   45 1   
    26   11   46 1   
    27   12   13 2   
    28   12   14 1   
    29   14   15 1   
    30   14   47 1   
    31   14   70 1   
    32   15   16 1   
    33   15   25 1   
    34   15   48 1   
    35   16   17 1   
    36   16   49 1   
    37   16   50 1   
    38   17   18 1   
    39   17   51 1   
    40   17   52 1   
    41   18   19 2   
    42   18   53 1   
    43   19   20 1   
    44   19   24 1   
    45   20   21 2   
    46   20   54 1   
    47   21   22 1   
    48   21   55 1   
    49   22   23 1   
    50   22   56 1   
    51   23   24 2   
    52   23   57 1   
    53   24   58 1   
    54   25   26 2   
    55   25   27 1   
    56   27   28 1   
    57   27   32 1   
    58   28   29 1   
    59   28   59 1   
    60   28   60 1   
    61   29   30 1   
    62   29   61 1   
    63   29   62 1   
    64   30   31 1   
    65   30   63 1   
    66   30   64 1   
    67   31   32 1   
    68   31   65 1   
    69   31   66 1   
    70   32   67 1   
    71   32   68 1   
@<TRIPOS>SUBSTRUCTURE
     1 I11         1 TEMP              0 ****  ****    0 ROOT
