@<TRIPOS>MOLECULE
I11
   70    71     1     0     0
SMALL
bcc


@<TRIPOS>ATOM
      1 C1          3.1290   -1.0410   -2.5030 c3        1 I11     -0.076400
      2 C2          3.8060   -0.3850   -1.3170 c3        1 I11     -0.047900
      3 C3          2.9190   -0.4950   -0.0530 c3        1 I11     -0.468400
      4 C4          2.6470   -1.9830    0.2210 c3        1 I11     -0.047900
      5 C5          1.9760   -2.6400   -0.9690 c3        1 I11     -0.076400
      6 C6          2.8070   -2.4920   -2.2240 c3        1 I11     -0.092400
      7 S19         3.6140    0.2750    1.1850 s4        1 I11      1.598500
      8 O43         4.5840   -0.3340    1.8940 o         1 I11     -0.394900
      9 O44         3.2470    1.5540    1.4230 o         1 I11     -0.394900
     10 N20         2.1510   -0.1850    3.3800 n8        1 I11     -0.971800
     11 C21         2.2100    0.9640    4.2480 c3        1 I11      0.077800
     12 C22         1.3800    0.8470    5.5260 c         1 I11      0.513100
     13 O42         0.6360   -0.0660    5.8450 o         1 I11     -0.405100
     14 N23         1.4920    2.0010    6.4990 ny        1 I11     -0.672800
     15 C24         2.1280    1.5930    7.8110 c3        1 I11      0.053500
     16 C25         1.9640    2.6800    8.8760 c3        1 I11     -0.134400
     17 C26         0.6200    2.5650    9.6080 c3        1 I11      0.032300
     18 N27         0.4440    3.5990   10.5950 nu        1 I11     -0.385100
     19 C28        -0.5180    3.5760   11.5610 cc        1 I11      0.445900
     20 C29        -0.5920    4.6370   12.5240 cc        1 I11     -0.324600
     21 C30        -1.5680    4.6220   13.5060 cd        1 I11      0.144000
     22 N31        -2.4830    3.6060   13.5880 na        1 I11     -0.498800
     23 C32        -2.4440    2.5800   12.6850 cd        1 I11      0.144000
     24 C33        -1.4920    2.5360   11.6760 cc        1 I11     -0.324600
     25 C34         3.6540    1.3430    7.5670 c         1 I11      0.635100
     26 O41         4.1260    1.8200    6.5030 o         1 I11     -0.656100
     27 N35         4.3710    0.5820    8.4290 n         1 I11     -0.396800
     28 C36         5.8200    0.4500    8.2460 c3        1 I11      0.069500
     29 C37         6.6250    0.9750    9.4330 c3        1 I11     -0.099400
     30 C38         6.1370    0.3870   10.7390 c3        1 I11     -0.090400
     31 C39         4.6470    0.5930   10.9080 c3        1 I11     -0.099400
     32 C40         3.8780    0.0640    9.6950 c3        1 I11      0.069500
     33 H11         3.8200   -0.9700   -3.3880 hc        1 I11      0.080450
     34 H12         2.1920   -0.4810   -2.7630 hc        1 I11      0.080450
     35 H21         3.9860    0.6990   -1.5500 hc        1 I11      0.069450
     36 H22         4.7860   -0.8980   -1.1250 hc        1 I11      0.069450
     37 H3          1.9180   -0.0530   -0.3720 h1        1 I11      0.201700
     38 H41         3.6200   -2.5040    0.4320 hc        1 I11      0.069450
     39 H42         1.9830   -2.0720    1.1200 hc        1 I11      0.069450
     40 H51         0.9600   -2.1910   -1.1270 hc        1 I11      0.080450
     41 H52         1.8310   -3.7310   -0.7390 hc        1 I11      0.080450
     42 H61         3.7570   -3.0820   -2.1240 hc        1 I11      0.081700
     43 H62         2.2420   -2.9200   -3.0960 hc        1 I11      0.081700
     44 H20         1.2000   -0.4330    3.1620 hn        1 I11      0.408300
     45 H211        3.2910    1.1520    4.5530 h1        1 I11      0.148200
     46 H212        1.8420    1.8690    3.6730 h1        1 I11      0.148200
     47 H23         2.0920    2.7320    6.0770 hn        1 I11      0.476300
     48 H24         1.6160    0.6340    8.1260 hx        1 I11      0.133700
     49 H251        2.8010    2.5580    9.6230 hc        1 I11      0.107700
     50 H252        2.0900    3.7030    8.4270 hc        1 I11      0.107700
     51 H261        0.5640    1.5540   10.1100 h1        1 I11      0.060200
     52 H262       -0.2260    2.6250    8.8620 h1        1 I11      0.060200
     53 H27         1.0820    4.3670   10.5850 hn        1 I11      0.313700
     54 H29         0.1210    5.4790   12.5020 ha        1 I11      0.189500
     55 H30        -1.6450    5.4340   14.2650 h4        1 I11      0.222500
     56 H31        -3.1840    3.6160   14.3130 hn        1 I11      0.512800
     57 H32        -3.2110    1.7820   12.7960 h4        1 I11      0.222500
     58 H33        -1.5120    1.6880   10.9750 ha        1 I11      0.189500
     59 H361        6.0240   -0.6520    8.1110 h1        1 I11      0.072950
     60 H362        6.1320    0.9930    7.3090 h1        1 I11      0.072950
     61 H371        7.7000    0.6960    9.2660 hc        1 I11      0.068700
     62 H372        6.5710    2.0940    9.4710 hc        1 I11      0.068700
     63 H381        6.6820    0.8660   11.5950 hc        1 I11      0.077200
     64 H382        6.3710   -0.7110   10.7700 hc        1 I11      0.077200
     65 H391        4.4280    1.6810   11.0590 hc        1 I11      0.068700
     66 H392        4.2850    0.0400   11.8150 hc        1 I11      0.068700
     67 H401        3.9980   -1.0600    9.6530 h1        1 I11      0.072950
     68 H402        2.7840    0.2920    9.8210 h1        1 I11      0.072950
     69 H202        2.6080   -0.9800    3.7980 hn        1 I11      0.408300
     70 H232        0.5600    2.3840    6.6900 hn        1 I11      0.476300
@<TRIPOS>BOND
     1    1    2 1   
     2    1    6 1   
     3    1   33 1   
     4    1   34 1   
     5    2    3 1   
     6    2   35 1   
     7    2   36 1   
     8    3    4 1   
     9    3    7 1   
    10    3   37 1   
    11    4    5 1   
    12    4   38 1   
    13    4   39 1   
    14    5    6 1   
    15    5   40 1   
    16    5   41 1   
    17    6   42 1   
    18    6   43 1   
    19    7    8 1   
    20    7    9 1   
    21   10   11 1   
    22   10   44 1   
    23   10   69 1   
    24   11   12 1   
    25   11   45 1   
    26   11   46 1   
    27   12   13 2   
    28   12   14 1   
    29   14   15 1   
    30   14   47 1   
    31   14   70 1   
    32   15   16 1   
    33   15   25 1   
    34   15   48 1   
    35   16   17 1   
    36   16   49 1   
    37   16   50 1   
    38   17   18 1   
    39   17   51 1   
    40   17   52 1   
    41   18   19 2   
    42   18   53 1   
    43   19   20 1   
    44   19   24 1   
    45   20   21 2   
    46   20   54 1   
    47   21   22 1   
    48   21   55 1   
    49   22   23 1   
    50   22   56 1   
    51   23   24 2   
    52   23   57 1   
    53   24   58 1   
    54   25   26 2   
    55   25   27 1   
    56   27   28 1   
    57   27   32 1   
    58   28   29 1   
    59   28   59 1   
    60   28   60 1   
    61   29   30 1   
    62   29   61 1   
    63   29   62 1   
    64   30   31 1   
    65   30   63 1   
    66   30   64 1   
    67   31   32 1   
    68   31   65 1   
    69   31   66 1   
    70   32   67 1   
    71   32   68 1   
@<TRIPOS>SUBSTRUCTURE
     1 I11         1 TEMP              0 ****  ****    0 ROOT
