@<TRIPOS>MOLECULE
I11
   68    70     1     0     0
SMALL
bcc


@<TRIPOS>ATOM
      1 C1          6.6700   -2.5390    0.9870 c3        1 I11     -0.071400
      2 C2          5.2670   -2.6730    0.4350 c3        1 I11     -0.054900
      3 C3          4.3750   -1.5280    0.9030 c3        1 I11     -0.272900
      4 C4          4.9960   -0.1960    0.5090 c3        1 I11     -0.054900
      5 C5          6.4030   -0.0580    1.0520 c3        1 I11     -0.071400
      6 C6          7.2840   -1.2070    0.6110 c3        1 I11     -0.081400
      7 S19         2.8030   -1.7500    0.2430 s6        1 I11      1.440900
      8 O43         2.7810   -1.5470   -1.1540 o         1 I11     -0.681800
      9 O44         2.3260   -3.0370    0.6280 o         1 I11     -0.681800
     10 N20         1.9190   -0.6160    0.9860 n3        1 I11     -0.908100
     11 C21         1.0990    0.3400    0.3110 c3        1 I11      0.155800
     12 C22        -0.4020    0.1800    0.6190 c         1 I11      0.631100
     13 O42        -0.8080   -0.4130    1.6410 o         1 I11     -0.630100
     14 N23        -1.2870    0.6980   -0.3040 n         1 I11     -0.548900
     15 C24        -2.6680    0.9600    0.0460 c3        1 I11      0.030700
     16 C25        -3.6610   -0.0180   -0.6030 c3        1 I11     -0.110400
     17 C26        -3.4890   -1.4460   -0.0790 c3        1 I11      0.015300
     18 N27        -2.8970   -2.3560   -1.0320 nh        1 I11     -0.346100
     19 C28        -1.8450   -3.1740   -0.8050 cc        1 I11      0.449900
     20 C29        -1.3300   -3.9920   -1.8760 cc        1 I11     -0.345600
     21 C30        -0.2270   -4.7950   -1.6730 cd        1 I11      0.144500
     22 N31         0.3940   -4.8660   -0.4540 na        1 I11     -0.510800
     23 C32        -0.0810   -4.1220    0.5930 cd        1 I11      0.144500
     24 C33        -1.1850   -3.2980    0.4590 cc        1 I11     -0.345600
     25 C34        -3.0820    2.3850   -0.4210 c         1 I11      0.633100
     26 O41        -2.5280    2.8650   -1.4340 o         1 I11     -0.611100
     27 N35        -3.9860    3.1200    0.3160 n         1 I11     -0.441800
     28 C36        -4.4030    4.4290   -0.1660 c3        1 I11      0.078000
     29 C37        -5.8690    4.4880   -0.5950 c3        1 I11     -0.101900
     30 C38        -6.7800    3.9440    0.4850 c3        1 I11     -0.082400
     31 C39        -6.3400    2.5640    0.9260 c3        1 I11     -0.101900
     32 C40        -4.8620    2.5600    1.3230 c3        1 I11      0.078000
     33 H11         6.6460   -2.6410    2.1040 hc        1 I11      0.052450
     34 H12         7.3030   -3.3740    0.5850 hc        1 I11      0.052450
     35 H21         4.8240   -3.6480    0.7710 hc        1 I11      0.057200
     36 H22         5.3070   -2.6710   -0.6880 hc        1 I11      0.057200
     37 H3          4.3570   -1.5680    2.0300 h1        1 I11      0.120700
     38 H41         5.0180   -0.1190   -0.6120 hc        1 I11      0.057200
     39 H42         4.3700    0.6470    0.9050 hc        1 I11      0.057200
     40 H51         6.3690   -0.0190    2.1730 hc        1 I11      0.052450
     41 H52         6.8400    0.9110    0.6940 hc        1 I11      0.052450
     42 H61         8.2930   -1.1110    1.0900 hc        1 I11      0.053200
     43 H62         7.4320   -1.1620   -0.5000 hc        1 I11      0.053200
     44 H20         1.7890   -0.6060    1.9730 hn        1 I11      0.465800
     45 H211        1.2810    0.2670   -0.8030 h1        1 I11      0.094200
     46 H212        1.3750    1.3850    0.6460 h1        1 I11      0.094200
     47 H23        -0.9330    1.2250   -1.0770 hn        1 I11      0.340500
     48 H24        -2.7530    0.8740    1.1730 h1        1 I11      0.097700
     49 H251       -4.6970    0.3260   -0.3380 hc        1 I11      0.076700
     50 H252       -3.5710    0.0390   -1.7200 hc        1 I11      0.076700
     51 H261       -2.8790   -1.4200    0.8700 h1        1 I11      0.082700
     52 H262       -4.5100   -1.8620    0.1760 h1        1 I11      0.082700
     53 H27        -3.2600   -2.3120   -1.9620 hn        1 I11      0.299700
     54 H29        -1.8000   -3.9750   -2.8720 ha        1 I11      0.191000
     55 H30         0.2010   -5.4140   -2.4890 h4        1 I11      0.206500
     56 H31         1.2660   -5.3530   -0.3500 hn        1 I11      0.497800
     57 H32         0.4900   -4.1910    1.5450 h4        1 I11      0.206500
     58 H33        -1.5040   -2.7140    1.3400 ha        1 I11      0.191000
     59 H361       -4.2390    5.1550    0.6810 h1        1 I11      0.063950
     60 H362       -3.7490    4.7380   -1.0300 h1        1 I11      0.063950
     61 H371       -6.1270    5.5570   -0.8110 hc        1 I11      0.054700
     62 H372       -6.0130    3.9070   -1.5430 hc        1 I11      0.054700
     63 H381       -6.7700    4.6380    1.3670 hc        1 I11      0.053700
     64 H382       -7.8340    3.9000    0.1050 hc        1 I11      0.053700
     65 H391       -6.9420    2.2340    1.8110 hc        1 I11      0.054700
     66 H392       -6.5170    1.8280    0.0990 hc        1 I11      0.054700
     67 H401       -4.5620    1.5080    1.5820 h1        1 I11      0.063950
     68 H402       -4.7380    3.1890    2.2530 h1        1 I11      0.063950
@<TRIPOS>BOND
     1    1    2 1   
     2    1    6 1   
     3    1   33 1   
     4    1   34 1   
     5    2    3 1   
     6    2   35 1   
     7    2   36 1   
     8    3    4 1   
     9    3    7 1   
    10    3   37 1   
    11    4    5 1   
    12    4   38 1   
    13    4   39 1   
    14    5    6 1   
    15    5   40 1   
    16    5   41 1   
    17    6   42 1   
    18    6   43 1   
    19    7    8 2   
    20    7    9 2   
    21    7   10 1   
    22   10   11 1   
    23   10   44 1   
    24   11   12 1   
    25   11   45 1   
    26   11   46 1   
    27   12   13 2   
    28   12   14 1   
    29   14   15 1   
    30   14   47 1   
    31   15   16 1   
    32   15   25 1   
    33   15   48 1   
    34   16   17 1   
    35   16   49 1   
    36   16   50 1   
    37   17   18 1   
    38   17   51 1   
    39   17   52 1   
    40   18   19 2   
    41   18   53 1   
    42   19   20 1   
    43   19   24 1   
    44   20   21 2   
    45   20   54 1   
    46   21   22 1   
    47   21   55 1   
    48   22   23 1   
    49   22   56 1   
    50   23   24 2   
    51   23   57 1   
    52   24   58 1   
    53   25   26 2   
    54   25   27 1   
    55   27   28 1   
    56   27   32 1   
    57   28   29 1   
    58   28   59 1   
    59   28   60 1   
    60   29   30 1   
    61   29   61 1   
    62   29   62 1   
    63   30   31 1   
    64   30   63 1   
    65   30   64 1   
    66   31   32 1   
    67   31   65 1   
    68   31   66 1   
    69   32   67 1   
    70   32   68 1   
@<TRIPOS>SUBSTRUCTURE
     1 I11         1 TEMP              0 ****  ****    0 ROOT
