@<TRIPOS>MOLECULE
I11
   71    72     1     0     0
SMALL
bcc


@<TRIPOS>ATOM
      1 C1        362.8650 -718.3900-1953.4180 c3        1 I11     -0.074400
      2 C2        363.7450 -719.3170-1954.2300 c3        1 I11     -0.051400
      3 C3        362.9390 -719.9960-1955.3530 c3        1 I11     -0.474400
      4 C4        362.3150 -718.9040-1956.2430 c3        1 I11     -0.051400
      5 C5        361.4370 -717.9780-1955.4260 c3        1 I11     -0.074400
      6 C6        362.2100 -717.3420-1954.2910 c3        1 I11     -0.090400
      7 S19       363.8460 -721.0230-1956.2080 s4        1 I11      1.582500
      8 O43       363.4850 -722.3180-1956.2170 o         1 I11     -0.357400
      9 O44       364.9160 -720.5540-1956.8730 o         1 I11     -0.357400
     10 N20      -139.2560  286.0090  780.1660 n3        1 I11     -0.981800
     11 C21      -138.2600  285.0100  780.3390 c3        1 I11      0.129800
     12 C22      -137.9700  284.1990  779.0650 c         1 I11      0.531100
     13 O42      -137.1490  283.3090  778.9380 o         1 I11     -0.425100
     14 N23      -138.7910  284.5300  777.8120 n4        1 I11     -0.679800
     15 C24      -138.5570  283.6180  776.6450 c3        1 I11      0.046500
     16 C25      -137.1910  283.8990  775.9840 c3        1 I11     -0.111400
     17 C26      -136.8710  282.9130  774.8580 c3        1 I11      0.138800
     18 N27      -136.7570  283.5850  773.5120 n4        1 I11     -0.665400
     19 C28      -136.3650  282.6690  772.4370 ca        1 I11      0.086600
     20 C29      -135.0260  282.2540  772.3010 ca        1 I11     -0.129000
     21 C30      -134.6730  281.4220  771.2240 ca        1 I11      0.033200
     22 N31      -135.6070  281.0150  770.3180 na        1 I11     -0.051100
     23 C32      -136.9080  281.4020  770.4400 ca        1 I11      0.033200
     24 C33      -137.3210  282.2330  771.4970 ca        1 I11     -0.129000
     25 C34      -139.6910  283.7590  775.5860 c         1 I11      0.637100
     26 O41      -139.3290  284.1350  774.4400 o         1 I11     -0.700100
     27 N35      -140.9880  283.5460  775.9180 n         1 I11     -0.403800
     28 C36      -142.0490  283.8460  774.9470 c3        1 I11      0.064500
     29 C37      -142.9290  282.6480  774.6060 c3        1 I11     -0.095400
     30 C38      -143.4550  281.9820  775.8580 c3        1 I11     -0.093400
     31 C39      -142.3190  281.6100  776.7840 c3        1 I11     -0.095400
     32 C40      -141.4310  282.8170  777.0980 c3        1 I11      0.064500
     33 H11       363.5000 -717.8900-1952.6370 hc        1 I11      0.076700
     34 H12       362.0800 -718.9870-1952.8820 hc        1 I11      0.076700
     35 H21       364.5840 -718.7250-1954.6870 hc        1 I11      0.071700
     36 H22       364.1720 -720.1030-1953.5530 hc        1 I11      0.071700
     37 H3        362.0560 -720.4940-1954.8280 h1        1 I11      0.203700
     38 H41       363.1370 -718.3080-1956.7240 hc        1 I11      0.071700
     39 H42       361.6920 -719.3880-1957.0420 hc        1 I11      0.071700
     40 H51       361.0350 -717.1780-1956.1050 hc        1 I11      0.076700
     41 H52       360.5610 -718.5480-1955.0200 hc        1 I11      0.076700
     42 H61       362.9900 -716.6490-1954.7040 hc        1 I11      0.074200
     43 H62       361.5110 -716.7240-1953.6670 hc        1 I11      0.074200
     44 H20      -140.0670  285.8660  780.7340 hn        1 I11      0.424800
     45 H211     -138.5440  284.2230  781.1060 h1        1 I11      0.135200
     46 H212     -137.2470  285.4300  780.6320 h1        1 I11      0.135200
     47 H23      -138.5840  285.5010  777.5450 hn        1 I11      0.479300
     48 H24      -138.5470  282.5560  777.0430 hx        1 I11      0.139700
     49 H251     -137.1720  284.9630  775.6190 hc        1 I11      0.109200
     50 H252     -136.3850  283.7880  776.7660 hc        1 I11      0.109200
     51 H261     -135.8820  282.4060  775.0650 hx        1 I11      0.121200
     52 H262     -137.6760  282.1270  774.7720 hx        1 I11      0.121200
     53 H27      -137.6830  284.0160  773.2870 hn        1 I11      0.498800
     54 H29      -134.2250  282.5630  773.0010 ha        1 I11      0.226500
     55 H30      -133.6190  281.0770  771.0770 h4        1 I11      0.261500
     56 H31      -135.3280  280.4200  769.5390 hn        1 I11      0.390700
     57 H32      -137.6340  281.0430  769.6670 h4        1 I11      0.261500
     58 H33      -138.3890  282.5260  771.5450 ha        1 I11      0.226500
     59 H361     -142.6840  284.6510  775.4210 h1        1 I11      0.071450
     60 H362     -141.5900  284.2610  774.0060 h1        1 I11      0.071450
     61 H371     -143.7850  283.0210  773.9810 hc        1 I11      0.074700
     62 H372     -142.3560  281.9080  773.9890 hc        1 I11      0.074700
     63 H381     -144.1680  282.6710  776.3850 hc        1 I11      0.083700
     64 H382     -144.0320  281.0580  775.5830 hc        1 I11      0.083700
     65 H391     -141.7040  280.7930  776.3260 hc        1 I11      0.074700
     66 H392     -142.7270  281.2250  777.7570 hc        1 I11      0.074700
     67 H401     -142.0220  283.5430  777.7310 h1        1 I11      0.071450
     68 H402     -140.5490  282.4480  777.6920 h1        1 I11      0.071450
     69 H202     -138.9080  286.9420  780.2640 hn        1 I11      0.424800
     70 H232     -139.7860  284.4940  778.0830 hn        1 I11      0.479300
     71 H272     -136.0590  284.3430  773.5700 hn        1 I11      0.498800
@<TRIPOS>BOND
     1    1    2 1   
     2    1    6 1   
     3    1   33 1   
     4    1   34 1   
     5    2    3 1   
     6    2   35 1   
     7    2   36 1   
     8    3    4 1   
     9    3    7 1   
    10    3   37 1   
    11    4    5 1   
    12    4   38 1   
    13    4   39 1   
    14    5    6 1   
    15    5   40 1   
    16    5   41 1   
    17    6   42 1   
    18    6   43 1   
    19    7    8 1   
    20    7    9 1   
    21   10   11 1   
    22   10   44 1   
    23   10   69 1   
    24   11   12 1   
    25   11   45 1   
    26   11   46 1   
    27   12   13 2   
    28   12   14 1   
    29   14   15 1   
    30   14   47 1   
    31   14   70 1   
    32   15   16 1   
    33   15   25 1   
    34   15   48 1   
    35   16   17 1   
    36   16   49 1   
    37   16   50 1   
    38   17   18 1   
    39   17   51 1   
    40   17   52 1   
    41   18   19 1   
    42   18   53 1   
    43   18   71 1   
    44   19   20 ar  
    45   19   24 ar  
    46   20   21 ar  
    47   20   54 1   
    48   21   22 1   
    49   21   55 1   
    50   22   23 2   
    51   22   56 1   
    52   23   24 ar  
    53   23   57 1   
    54   24   58 1   
    55   25   26 2   
    56   25   27 1   
    57   27   28 1   
    58   27   32 1   
    59   28   29 1   
    60   28   59 1   
    61   28   60 1   
    62   29   30 1   
    63   29   61 1   
    64   29   62 1   
    65   30   31 1   
    66   30   63 1   
    67   30   64 1   
    68   31   32 1   
    69   31   65 1   
    70   31   66 1   
    71   32   67 1   
    72   32   68 1   
@<TRIPOS>SUBSTRUCTURE
     1 I11         1 TEMP              0 ****  ****    0 ROOT
