@<TRIPOS>MOLECULE
I13
   56    57     1     0     0
SMALL
bcc


@<TRIPOS>ATOM
      1 C1         -1.0440    1.3150   -0.6980 c3        1 I13      0.224500
      2 C2         -0.1190    0.9120    0.4570 c3        1 I13     -0.130600
      3 C3         -2.2320    2.0830   -0.1150 c3        1 I13     -0.130600
      4 C4          0.7750    3.0980   -1.0280 c         1 I13      0.644100
      5 C5          1.2490    5.0980    0.2930 ca        1 I13     -0.014400
      6 C6          0.7080    5.8120    1.3760 ca        1 I13     -0.086000
      7 C7          1.5300    6.6650    2.1270 ca        1 I13     -0.150200
      8 N1         -0.2900    2.2160   -1.6910 n4        1 I13     -0.681800
      9 N2          0.3700    4.2860   -0.4810 n         1 I13     -0.409100
     10 N3          0.8760    7.4070    3.2530 no        1 I13      0.316200
     11 C9          3.4210    6.0620    0.7470 ca        1 I13     -0.109000
     12 C8          2.9010    6.7880    1.8330 ca        1 I13      0.080400
     13 O1          0.0430    6.8120    3.8820 o         1 I13     -0.167000
     14 O2          1.1630    8.5480    3.4570 o         1 I13     -0.167000
     15 CL          3.9460    7.7380    2.7410 cl        1 I13      0.030600
     16 C10         2.6170    5.2310   -0.0210 ca        1 I13     -0.077000
     17 O           1.9200    2.6500   -1.1510 o         1 I13     -0.488100
     18 C12        -1.4720    0.0770   -1.4590 ca        1 I13     -0.166300
     19 C17        -2.8190   -0.2260   -1.6830 ca        1 I13     -0.076000
     20 C16        -3.1740   -1.4170   -2.3320 ca        1 I13     -0.135900
     21 C15        -2.1810   -2.2880   -2.7910 ca        1 I13     -0.062000
     22 C14        -0.8360   -1.9790   -2.5790 ca        1 I13     -0.109000
     23 C13        -0.4820   -0.8100   -1.9130 ca        1 I13     -0.107000
     24 C18        -4.6070   -1.7590   -2.4990 ce        1 I13      0.460900
     25 C19        -5.4040   -1.7990   -1.2340 c3        1 I13     -0.177400
     26 N4         -5.0430   -2.0400   -3.7040 n2        1 I13     -0.473200
     27 O3         -6.3270   -2.4000   -3.7750 os        1 I13     -0.208300
     28 C47        -6.9490   -2.1270   -5.0450 c3        1 I13      0.117400
     29 C48        -6.6700   -3.2680   -6.0250 c3        1 I13      0.069800
     30 N5         -7.0680   -4.5950   -5.4740 n4        1 I13     -0.834600
     31 H1         -0.6340    0.1220    1.0590 hc        1 I13      0.080867
     32 H2          0.0890    1.7840    1.1250 hc        1 I13      0.080867
     33 H3          0.8540    0.4990    0.0930 hc        1 I13      0.080867
     34 H4         -2.9130    2.4780   -0.9070 hc        1 I13      0.080867
     35 H5         -1.8890    2.9300    0.5280 hc        1 I13      0.080867
     36 H6         -2.8130    1.3850    0.5410 hc        1 I13      0.080867
     37 H7         -0.3580    5.7170    1.6540 ha        1 I13      0.171000
     38 H8          0.2200    1.6090   -2.3490 hn        1 I13      0.461800
     39 H9         -0.6040    4.4950   -0.3910 hn        1 I13      0.346500
     40 H10         4.4940    6.1560    0.5000 ha        1 I13      0.187000
     41 H11         3.0640    4.6750   -0.8620 ha        1 I13      0.175000
     42 H12        -3.6190    0.4540   -1.3490 ha        1 I13      0.151000
     43 H13        -2.4530   -3.2200   -3.3110 ha        1 I13      0.157000
     44 H14        -0.0510   -2.6700   -2.9320 ha        1 I13      0.171000
     45 H15         0.5860   -0.6040   -1.7290 ha        1 I13      0.152000
     46 H16        -5.0450   -1.0240   -0.5140 hc        1 I13      0.075033
     47 H17        -6.4920   -1.6290   -1.4300 hc        1 I13      0.075033
     48 H18        -5.2830   -2.8040   -0.7550 hc        1 I13      0.075033
     49 H19        -6.5950   -1.1680   -5.5070 h1        1 I13      0.109700
     50 H20        -8.0390   -2.0470   -4.7810 h1        1 I13      0.109700
     51 H21        -5.5650   -3.3100   -6.2550 hx        1 I13      0.125700
     52 H22        -7.2400   -3.0910   -6.9830 hx        1 I13      0.125700
     53 H23        -6.7570   -5.3480   -6.0970 hn        1 I13      0.467467
     54 H24        -6.6380   -4.7170   -4.5480 hn        1 I13      0.467467
     55 H121       -0.9670    2.7730   -2.2160 hn        1 I13      0.461800
     56 H53        -8.0870   -4.6470   -5.3680 hn        1 I13      0.467467
@<TRIPOS>BOND
     1    1    2 1   
     2    1    3 1   
     3    1    8 1   
     4    1   18 1   
     5    2   31 1   
     6    2   32 1   
     7    2   33 1   
     8    3   34 1   
     9    3   35 1   
    10    3   36 1   
    11    4    8 1   
    12    4    9 1   
    13    4   17 2   
    14    5    6 ar  
    15    5    9 1   
    16    5   16 ar  
    17    6    7 ar  
    18    6   37 1   
    19    7   10 1   
    20    7   12 ar  
    21    8   38 1   
    22    8   55 1   
    23    9   39 1   
    24   10   13 1   
    25   10   14 1   
    26   11   12 ar  
    27   11   16 ar  
    28   11   40 1   
    29   12   15 1   
    30   16   41 1   
    31   18   19 ar  
    32   18   23 ar  
    33   19   20 ar  
    34   19   42 1   
    35   20   21 ar  
    36   20   24 1   
    37   21   22 ar  
    38   21   43 1   
    39   22   23 ar  
    40   22   44 1   
    41   23   45 1   
    42   24   25 1   
    43   24   26 2   
    44   25   46 1   
    45   25   47 1   
    46   25   48 1   
    47   26   27 1   
    48   27   28 1   
    49   28   29 1   
    50   28   49 1   
    51   28   50 1   
    52   29   30 1   
    53   29   51 1   
    54   29   52 1   
    55   30   53 1   
    56   30   54 1   
    57   30   56 1   
@<TRIPOS>SUBSTRUCTURE
     1 I13         1 TEMP              0 ****  ****    0 ROOT
