@<TRIPOS>MOLECULE
I13
   56    57     1     0     0
SMALL
bcc


@<TRIPOS>ATOM
      1 C1         -1.0250    1.3140   -0.7270 c3        1 I13      0.224500
      2 C2         -0.0520    0.9000    0.3850 c3        1 I13     -0.130600
      3 C3         -2.1990    2.0550   -0.0840 c3        1 I13     -0.130600
      4 C4          0.7610    3.1250   -1.0860 c         1 I13      0.644100
      5 C5          1.2630    5.1000    0.2620 ca        1 I13     -0.014400
      6 C6          0.7560    5.7830    1.3810 ca        1 I13     -0.086000
      7 C7          1.5970    6.6280    2.1190 ca        1 I13     -0.150200
      8 N1         -0.3190    2.2450   -1.7270 ny        1 I13     -0.681800
      9 N2          0.3640    4.2960   -0.4970 ns        1 I13     -0.409100
     10 N3          0.9780    7.3370    3.2870 no        1 I13      0.316200
     11 C9          3.4400    6.0800    0.6550 ca        1 I13     -0.109000
     12 C8          2.9540    6.7740    1.7770 ca        1 I13      0.080400
     13 O1          0.1760    6.7170    3.9330 o         1 I13     -0.167000
     14 O2          1.2590    8.4760    3.5060 o         1 I13     -0.167000
     15 Cl          4.0220    7.7150    2.6670 cl        1 I13      0.030600
     16 C10         2.6170    5.2580   -0.1010 ca        1 I13     -0.077000
     17 O           1.9060    2.6930   -1.2620 o         1 I13     -0.488100
     18 C12        -1.4660    0.0870   -1.4970 ca        1 I13     -0.166300
     19 C17        -2.8150   -0.2300   -1.6770 ca        1 I13     -0.076000
     20 C16        -3.1800   -1.4110   -2.3380 ca        1 I13     -0.135900
     21 C15        -2.1940   -2.2600   -2.8520 ca        1 I13     -0.062000
     22 C14        -0.8460   -1.9380   -2.6830 ca        1 I13     -0.109000
     23 C13        -0.4820   -0.7770   -2.0060 ca        1 I13     -0.107000
     24 C18        -4.6140   -1.7690   -2.4580 ce        1 I13      0.460900
     25 C19        -5.3620   -1.8450   -1.1660 c3        1 I13     -0.177400
     26 N4         -5.0910   -2.0300   -3.6530 n2        1 I13     -0.473200
     27 O3         -6.3720   -2.4060   -3.6830 os        1 I13     -0.208300
     28 C47        -7.0440   -2.1140   -4.9230 c3        1 I13      0.117400
     29 C48        -6.7870   -3.2300   -5.9380 c3        1 I13      0.069800
     30 N5         -7.1470   -4.5740   -5.4020 nz        1 I13     -0.834600
     31 H1          0.1700    1.7600    1.0630 hc        1 I13      0.080700
     32 H2         -0.5350    0.0910    0.9890 hc        1 I13      0.080700
     33 H3          0.9110    0.5070   -0.0230 hc        1 I13      0.080700
     34 H4         -2.7470    1.3370    0.5780 hc        1 I13      0.080700
     35 H5         -2.9140    2.4570   -0.8430 hc        1 I13      0.080700
     36 H6         -1.8430    2.8940    0.5630 hc        1 I13      0.080700
     37 H7         -0.2980    5.6690    1.6960 ha        1 I13      0.171000
     38 H8          0.1730    1.6580   -2.4180 hn        1 I13      0.461800
     39 H9         -0.6070    4.4920   -0.3660 hn        1 I13      0.346500
     40 H10         4.5020    6.1920    0.3700 ha        1 I13      0.187000
     41 H11         3.0370    4.7250   -0.9720 ha        1 I13      0.175000
     42 H12        -3.6110    0.4330   -1.2990 ha        1 I13      0.151000
     43 H13        -2.4730   -3.1850   -3.3810 ha        1 I13      0.157000
     44 H14        -0.0660   -2.6100   -3.0790 ha        1 I13      0.171000
     45 H15         0.5890   -0.5620   -1.8570 ha        1 I13      0.152000
     46 H16        -5.2130   -2.8590   -0.7140 hc        1 I13      0.075033
     47 H17        -6.4590   -1.6840   -1.3180 hc        1 I13      0.075033
     48 H18        -4.9860   -1.0810   -0.4430 hc        1 I13      0.075033
     49 H19        -6.7210   -1.1400   -5.3760 h1        1 I13      0.109700
     50 H20        -8.1250   -2.0560   -4.6170 h1        1 I13      0.109700
     51 H21        -5.6910   -3.2510   -6.2090 hx        1 I13      0.125700
     52 H22        -7.3950   -3.0400   -6.8690 hx        1 I13      0.125700
     53 H23        -8.1600   -4.6420   -5.2600 hn        1 I13      0.467467
     54 H24        -6.8490   -5.3080   -6.0530 hn        1 I13      0.467467
     55 H121       -1.0210    2.8060   -2.2140 hn        1 I13      0.461800
     56 H53        -6.6810   -4.7100   -4.4950 hn        1 I13      0.467467
@<TRIPOS>BOND
     1    1    2 1   
     2    1    3 1   
     3    1    8 1   
     4    1   18 1   
     5    2   31 1   
     6    2   32 1   
     7    2   33 1   
     8    3   34 1   
     9    3   35 1   
    10    3   36 1   
    11    4    8 1   
    12    4    9 1   
    13    4   17 2   
    14    5    6 ar  
    15    5    9 1   
    16    5   16 ar  
    17    6    7 ar  
    18    6   37 1   
    19    7   10 1   
    20    7   12 ar  
    21    8   38 1   
    22    8   55 1   
    23    9   39 1   
    24   10   13 1   
    25   10   14 1   
    26   11   12 ar  
    27   11   16 ar  
    28   11   40 1   
    29   12   15 1   
    30   16   41 1   
    31   18   19 ar  
    32   18   23 ar  
    33   19   20 ar  
    34   19   42 1   
    35   20   21 ar  
    36   20   24 1   
    37   21   22 ar  
    38   21   43 1   
    39   22   23 ar  
    40   22   44 1   
    41   23   45 1   
    42   24   25 1   
    43   24   26 2   
    44   25   46 1   
    45   25   47 1   
    46   25   48 1   
    47   26   27 1   
    48   27   28 1   
    49   28   29 1   
    50   28   49 1   
    51   28   50 1   
    52   29   30 1   
    53   29   51 1   
    54   29   52 1   
    55   30   53 1   
    56   30   54 1   
    57   30   56 1   
@<TRIPOS>SUBSTRUCTURE
     1 I13         1 TEMP              0 ****  ****    0 ROOT
