@<TRIPOS>MOLECULE
I15
   31    33     1     0     0
SMALL
bcc


@<TRIPOS>ATOM
      1 C1          0.1580    0.0010   -0.1130 ca        1 I15     -0.198900
      2 C2          1.5260    0.0490    0.1710 ca        1 I15      0.100100
      3 C3         -0.7850    0.0610    0.9810 ca        1 I15     -0.058200
      4 C4         -0.6810   -0.1150   -1.3050 cc        1 I15      0.364900
      5 O5          2.4660   -0.1440   -0.8390 os        1 I15     -0.232200
      6 C6          1.9440    0.1420    1.5100 ca        1 I15      0.096900
      7 N7         -2.0560    0.0140    0.3930 na        1 I15     -0.011100
      8 C8         -0.3640    0.1640    2.3170 ca        1 I15     -0.110000
      9 N9         -1.9870   -0.1170   -0.9350 nd        1 I15     -0.501100
     10 C10        -0.1930   -0.2200   -2.6930 c3        1 I15     -0.112400
     11 C11         3.0360    1.0060   -1.3790 ca        1 I15      0.112100
     12 C12         0.9930    0.2000    2.5660 ca        1 I15     -0.129000
     13 C13         2.5620    2.2990   -1.1450 ca        1 I15     -0.111000
     14 C14         4.1340    0.7660   -2.2220 ca        1 I15     -0.111000
     15 C15         3.2030    3.3770   -1.7710 ca        1 I15      0.012000
     16 C16         4.7550    1.8570   -2.8390 ca        1 I15      0.012000
     17 C17         4.2970    3.1640   -2.6190 ca        1 I15     -0.085000
     18 C18         2.7340    4.7000   -1.5420 cg        1 I15      0.227300
     19 C19         5.8660    1.6380   -3.7000 cg        1 I15      0.227300
     20 N23         6.7740    1.4590   -4.4040 n1        1 I15     -0.342800
     21 F1          3.2620    0.1790    1.8170 f         1 I15     -0.124900
     22 N1          2.3510    5.7820   -1.3540 n1        1 I15     -0.342800
     23 H7         -2.9250   -0.0860    0.8620 hn        1 I15      0.330700
     24 H8         -1.0920    0.2120    3.1390 ha        1 I15      0.151000
     25 H101        0.9160   -0.3680   -2.6880 hc        1 I15      0.060033
     26 H102       -0.4320    0.7140   -3.2610 hc        1 I15      0.060033
     27 H103       -0.6700   -1.0840   -3.2200 hc        1 I15      0.060033
     28 H12         1.3700    0.2720    3.5990 ha        1 I15      0.159000
     29 H13         1.7010    2.4690   -0.4800 ha        1 I15      0.168500
     30 H14         4.4870   -0.2630   -2.3830 ha        1 I15      0.168500
     31 H17         4.7950    4.0150   -3.1080 ha        1 I15      0.161000
@<TRIPOS>BOND
     1    1    2 ar  
     2    1    3 ar  
     3    1    4 1   
     4    2    5 1   
     5    2    6 ar  
     6    3    7 1   
     7    3    8 ar  
     8    4    9 2   
     9    4   10 1   
    10    5   11 1   
    11    6   12 ar  
    12    6   21 1   
    13    7    9 1   
    14    7   23 1   
    15    8   12 ar  
    16    8   24 1   
    17   10   25 1   
    18   10   26 1   
    19   10   27 1   
    20   11   13 ar  
    21   11   14 ar  
    22   12   28 1   
    23   13   15 ar  
    24   13   29 1   
    25   14   16 ar  
    26   14   30 1   
    27   15   17 ar  
    28   15   18 1   
    29   16   17 ar  
    30   16   19 1   
    31   17   31 1   
    32   18   22 3   
    33   19   20 3   
@<TRIPOS>SUBSTRUCTURE
     1 I15         1 TEMP              0 ****  ****    0 ROOT
