@<TRIPOS>MOLECULE
I15
   31    33     1     0     0
SMALL
bcc


@<TRIPOS>ATOM
      1 C1         -9.1610  -12.8540   15.8680 ca        1 I15     -0.198900
      2 C2         -8.4250  -12.4480   16.9860 ca        1 I15      0.100100
      3 C3         -8.4600  -13.4210   14.7390 ca        1 I15     -0.058200
      4 C4        -10.5660  -12.8640   15.4620 cc        1 I15      0.364900
      5 O5         -9.0450  -11.7720   18.0340 os        1 I15     -0.232200
      6 C6         -7.0260  -12.5920   16.9730 ca        1 I15      0.096900
      7 N7         -9.4480  -13.7460   13.8000 na        1 I15     -0.011100
      8 C8         -7.0640  -13.5740   14.7340 ca        1 I15     -0.110000
      9 N9        -10.6680  -13.3920   14.2160 nd        1 I15     -0.501100
     10 C10       -11.6980  -12.3730   16.2700 c3        1 I15     -0.112400
     11 C11        -9.3850  -12.5380   19.1460 ca        1 I15      0.112100
     12 C12        -6.3640  -13.1550   15.8480 ca        1 I15     -0.129000
     13 C13        -9.3600  -13.9350   19.1730 ca        1 I15     -0.111000
     14 C14        -9.7930  -11.7890   20.2620 ca        1 I15     -0.111000
     15 C15        -9.7540  -14.5950   20.3450 ca        1 I15      0.012000
     16 C16       -10.1870  -12.4690   21.4190 ca        1 I15      0.012000
     17 C17       -10.1690  -13.8710   21.4680 ca        1 I15     -0.085000
     18 C18        -9.7330  -16.0170   20.3890 cg        1 I15      0.227300
     19 C19       -10.6070  -11.7310   22.5590 cg        1 I15      0.227300
     20 N23       -10.9520  -11.1280   23.4920 n1        1 I15     -0.342800
     21 F1         -6.2870  -12.1970   18.0350 f         1 I15     -0.124900
     22 N1         -9.7150  -17.1790   20.4240 n1        1 I15     -0.342800
     23 H7         -9.3040  -14.0420   12.8630 hn        1 I15      0.330700
     24 H8         -6.5440  -14.0110   13.8700 ha        1 I15      0.151000
     25 H101      -11.3080  -11.8370   17.1710 hc        1 I15      0.060033
     26 H102      -12.3350  -11.6690   15.6790 hc        1 I15      0.060033
     27 H103      -12.3370  -13.2290   16.6050 hc        1 I15      0.060033
     28 H12        -5.2670  -13.2470   15.8850 ha        1 I15      0.159000
     29 H13        -9.0350  -14.5070   18.2900 ha        1 I15      0.168500
     30 H14        -9.7980  -10.6890   20.2130 ha        1 I15      0.168500
     31 H17       -10.4780  -14.3960   22.3850 ha        1 I15      0.161000
@<TRIPOS>BOND
     1    1    2 ar  
     2    1    3 ar  
     3    1    4 1   
     4    2    5 1   
     5    2    6 ar  
     6    3    7 1   
     7    3    8 ar  
     8    4    9 2   
     9    4   10 1   
    10    5   11 1   
    11    6   12 ar  
    12    6   21 1   
    13    7    9 1   
    14    7   23 1   
    15    8   12 ar  
    16    8   24 1   
    17   10   25 1   
    18   10   26 1   
    19   10   27 1   
    20   11   13 ar  
    21   11   14 ar  
    22   12   28 1   
    23   13   15 ar  
    24   13   29 1   
    25   14   16 ar  
    26   14   30 1   
    27   15   17 ar  
    28   15   18 1   
    29   16   17 ar  
    30   16   19 1   
    31   17   31 1   
    32   18   22 3   
    33   19   20 3   
@<TRIPOS>SUBSTRUCTURE
     1 I15         1 TEMP              0 ****  ****    0 ROOT
