@<TRIPOS>MOLECULE
I15
   31    24     1     0     0
SMALL
bcc


@<TRIPOS>ATOM
      1 C1         -1.8400   -0.9480    0.1050 c1        1 I15     -0.064000
      2 C2         -0.4360   -0.8860    0.1830 c1        1 I15      0.055000
      3 C3         -2.5830   -1.0010    1.2450 c1        1 I15     -0.064000
      4 C4         -2.7090   -0.9840   -0.9710 c1        1 I15     -0.082000
      5 O5          0.2750   -0.5790   -0.9900 os        1 I15     -0.142000
      6 C6          0.1900   -0.8770    1.4180 c1        1 I15      0.062000
      7 N7         -3.9020   -1.0680    0.8870 n1        1 I15     -0.186000
      8 C8         -1.9460   -0.9920    2.5010 c1        1 I15     -0.119500
      9 N9         -3.9720   -1.0570   -0.4880 n2        1 I15     -0.034000
     10 C10        -3.1500   -1.3240   -2.3780 c2        1 I15     -0.155000
     11 C11         1.2830    0.3540   -0.6950 c2        1 I15      0.067000
     12 C12        -0.5650   -0.9310    2.5770 c1        1 I15     -0.119500
     13 C13         2.5610   -0.1260   -0.9340 c2        1 I15     -0.092000
     14 C14         1.0990    1.6700   -0.3030 c1        1 I15     -0.130000
     15 C15         3.6550    0.7100   -0.7790 c1        1 I15      0.014000
     16 C16         2.1940    2.5060   -0.1480 c1        1 I15      0.018000
     17 C17         3.4720    2.0260   -0.3860 c1        1 I15     -0.085000
     18 C18         5.0540    0.1680   -0.9770 c1        1 I15     -0.103000
     19 C19         1.9950    3.9390    0.2940 c1        1 I15     -0.102000
     20 N23         1.8440    5.0190    0.6280 n1        1 I15     -0.018000
     21 F1          1.1910   -1.6900    1.7800 f         1 I15     -0.090000
     22 N1          6.1090   -0.2410   -1.1260 n1        1 I15     -0.016000
     23 H7         -4.6110   -1.1130    1.4580 DU        1 I15      0.281000
     24 H8         -2.4780   -1.0300    3.3180 ha        1 I15      0.155000
     25 H101       -3.8740   -1.9840   -2.3430 ha        1 I15      0.099333
     26 H102       -3.4700   -0.5120   -2.8250 ha        1 I15      0.099333
     27 H103       -2.3930   -1.6950   -2.8770 ha        1 I15      0.099333
     28 H12        -0.1230   -0.9250    3.4480 ha        1 I15      0.155000
     29 H13         2.6900   -1.0540   -1.2100 ha        1 I15      0.171000
     30 H14         0.1990    2.0090   -0.1350 ha        1 I15      0.166000
     31 H17         4.2420    2.6150   -0.2770 ha        1 I15      0.161000
@<TRIPOS>BOND
     1    1    3 1   
     2    2    5 1   
     3    2    6 1   
     4    4    9 1   
     5    5   11 1   
     6    6   21 1   
     7    7    9 1   
     8    8   12 1   
     9    8   24 1   
    10   10   25 1   
    11   10   26 1   
    12   10   27 1   
    13   11   13 1   
    14   11   14 1   
    15   12   28 1   
    16   13   15 1   
    17   13   29 1   
    18   14   30 1   
    19   15   18 1   
    20   16   17 1   
    21   16   19 1   
    22   17   31 1   
    23   18   22 1   
    24   19   20 1   
@<TRIPOS>SUBSTRUCTURE
     1 I15         1 TEMP              0 ****  ****    0 ROOT
