@<TRIPOS>MOLECULE
I17
   61    57     1     0     0
SMALL
bcc


@<TRIPOS>ATOM
      1 C26         2.7260   -2.0800    2.4720 c3        1 I17      0.232500
      2 N9          2.3460   -0.8710    2.0910 n3        1 I17     -0.450800
      3 C4          1.4710   -0.5810    1.0850 c1        1 I17      0.159800
      4 N3          0.7160   -1.3810    0.2610 n1        1 I17     -0.597800
      5 C2         -0.0790   -0.8200   -0.7000 c1        1 I17      0.577600
      6 C6          0.6180    1.3340   -0.0340 c1        1 I17      0.645600
      7 N1         -0.1240    0.5430   -0.8430 n1        1 I17     -0.629800
      8 C5          1.4280    0.7630    0.9450 c1        1 I17     -0.274000
      9 N7          2.2760    1.3100    1.8650 n1        1 I17     -0.435800
     10 C8          2.8390    0.2990    2.5690 c1        1 I17      0.315600
     11 N18         0.5810    2.7810    0.1930 n3        1 I17     -0.725800
     12 C19         0.8940    3.6920   -0.8900 c3        1 I17      0.231900
     13 C25         1.4920    5.9770   -0.0310 c1        1 I17     -0.059500
     14 C24         1.4610    7.3260   -0.3600 c1        1 I17     -0.067250
     15 C23         0.4300    7.8250   -1.1470 c1        1 I17     -0.067250
     16 C22        -0.5670    6.9760   -1.6050 c1        1 I17     -0.067250
     17 C21        -0.5350    5.6240   -1.2750 c1        1 I17     -0.067250
     18 C20         0.4940    5.1260   -0.4890 c1        1 I17     -0.076100
     19 N10        -0.6840   -1.8940   -1.5090 n3        1 I17     -0.676800
     20 C11        -2.1190   -1.9990   -1.6120 c3        1 I17      0.206500
     21 C14        -4.4340   -3.2550   -2.9370 c3        1 I17      0.169500
     22 C15        -4.0200   -1.8240   -3.2590 c3        1 I17     -0.073400
     23 C16        -2.5430   -1.5740   -3.0020 c3        1 I17     -0.095400
     24 C12        -2.5350   -3.4340   -1.2890 c3        1 I17     -0.095400
     25 C13        -4.0080   -3.6820   -1.5450 c3        1 I17     -0.073400
     26 N17        -5.8610   -3.3590   -3.0370 n3        1 I17     -0.913800
     27 C30         4.2720   -2.1110    2.7190 c3        1 I17     -0.094400
     28 C29         4.4130   -2.1800    4.0650 c3        1 I17     -0.080400
     29 C27         2.0590   -2.4550    3.8710 c3        1 I17     -0.094400
     30 C28         3.0670   -2.9030    4.6270 c3        1 I17     -0.080400
     31 H261        2.4810   -2.7380    1.7960 h1        1 I17      0.092700
     32 H81         3.5260    0.3940    3.2640 DU        1 I17      0.199000
     33 H181        0.4040    3.1090    1.0280 hn        1 I17      0.458800
     34 H191        0.4000    3.4290   -1.6910 h1        1 I17      0.060200
     35 H192        1.8540    3.6620   -1.0750 h1        1 I17      0.060200
     36 H251        2.2150    5.6270    0.5210 ha        1 I17      0.083500
     37 H241        2.1640    7.9250   -0.0370 ha        1 I17      0.076250
     38 H231        0.4080    8.7780   -1.3800 ha        1 I17      0.076250
     39 H221       -1.2920    7.3270   -2.1590 ha        1 I17      0.076250
     40 H211       -1.2350    5.0280   -1.5970 ha        1 I17      0.076250
     41 H101       -0.1490   -2.4710   -1.9750 hn        1 I17      0.415800
     42 H111       -2.5260   -1.4000   -0.9620 h1        1 I17      0.089700
     43 H141       -4.0260   -3.8570   -3.5910 h1        1 I17      0.005700
     44 H151       -4.5460   -1.2110   -2.7060 hc        1 I17      0.050200
     45 H152       -4.2130   -1.6430   -4.2040 hc        1 I17      0.050200
     46 H161       -2.3600   -0.6210   -3.1100 hc        1 I17      0.047700
     47 H162       -2.0170   -2.0760   -3.6610 hc        1 I17      0.047700
     48 H121       -2.3440   -3.6130   -0.3490 hc        1 I17      0.047700
     49 H122       -2.0080   -4.0500   -1.8430 hc        1 I17      0.047700
     50 H131       -4.5330   -3.1830   -0.8860 hc        1 I17      0.050200
     51 H132       -4.1920   -4.6410   -1.4380 hc        1 I17      0.050200
     52 H171       -6.1250   -4.1980   -2.7800 hn        1 I17      0.349800
     53 H172       -6.1170   -3.2110   -3.9000 hn        1 I17      0.349800
     54 H301        4.6680   -2.9000    2.2950 hc        1 I17      0.053950
     55 H302        4.6880   -1.2930    2.3750 hc        1 I17      0.053950
     56 H291        5.2020   -2.7130    4.2940 hc        1 I17      0.045950
     57 H292        4.4940   -1.2790    4.4410 hc        1 I17      0.045950
     58 H271        1.3870   -3.1570    3.7490 hc        1 I17      0.053950
     59 H272        1.6540   -1.6620    4.2780 hc        1 I17      0.053950
     60 H281        2.9190   -2.6580    5.5640 hc        1 I17      0.045950
     61 H282        3.1460   -3.8760    4.5420 hc        1 I17      0.045950
@<TRIPOS>BOND
     1    1    2 1   
     2    1   27 1   
     3    1   29 1   
     4    1   31 1   
     5    2    3 1   
     6    2   10 1   
     7    3    8 3   
     8    4    5 3   
     9    5   19 1   
    10    6    7 3   
    11    6   11 1   
    12    9   10 3   
    13   11   12 1   
    14   11   33 1   
    15   12   18 1   
    16   12   34 1   
    17   12   35 1   
    18   13   18 3   
    19   13   36 1   
    20   14   15 3   
    21   14   37 1   
    22   15   38 1   
    23   16   17 3   
    24   16   39 1   
    25   17   40 1   
    26   19   20 1   
    27   19   41 1   
    28   20   23 1   
    29   20   24 1   
    30   20   42 1   
    31   21   22 1   
    32   21   25 1   
    33   21   26 1   
    34   21   43 1   
    35   22   23 1   
    36   22   44 1   
    37   22   45 1   
    38   23   46 1   
    39   23   47 1   
    40   24   25 1   
    41   24   48 1   
    42   24   49 1   
    43   25   50 1   
    44   25   51 1   
    45   26   52 1   
    46   26   53 1   
    47   27   28 1   
    48   27   54 1   
    49   27   55 1   
    50   28   30 1   
    51   28   56 1   
    52   28   57 1   
    53   29   30 1   
    54   29   58 1   
    55   29   59 1   
    56   30   60 1   
    57   30   61 1   
@<TRIPOS>SUBSTRUCTURE
     1 I17         1 TEMP              0 ****  ****    0 ROOT
