@<TRIPOS>MOLECULE
I17
   62    66     1     0     0
SMALL
bcc


@<TRIPOS>ATOM
      1 C26        -0.0860    0.1670    0.0090 c3        1 I17      0.049000
      2 N9         -0.6220    1.3290   -0.6500 na        1 I17     -0.251000
      3 C4         -1.3160    1.3710   -1.8670 ca        1 I17      0.482800
      4 N3         -1.6870    0.3630   -2.7080 nb        1 I17     -0.772000
      5 C2         -2.3380    0.8100   -3.8380 ca        1 I17      0.887900
      6 C6         -2.3290    3.1100   -3.2910 ca        1 I17      0.780200
      7 N1         -2.6950    2.1140   -4.1540 nb        1 I17     -0.844000
      8 C5         -1.6050    2.7800   -2.0980 ca        1 I17     -0.243200
      9 N7         -1.0920    3.5550   -1.0490 nc        1 I17     -0.536100
     10 C8         -0.5190    2.6760   -0.2160 cd        1 I17      0.408700
     11 N18        -2.6920    4.4200   -3.5180 nh        1 I17     -0.851900
     12 C19        -3.2330    4.8560   -4.7820 c3        1 I17      0.268100
     13 C25        -2.7490    7.0610   -5.8780 ca        1 I17     -0.116000
     14 C24        -2.9210    8.4420   -5.9750 ca        1 I17     -0.128000
     15 C23        -3.7250    9.1140   -5.0540 ca        1 I17     -0.114000
     16 C22        -4.3600    8.4030   -4.0350 ca        1 I17     -0.128000
     17 C21        -4.1940    7.0220   -3.9380 ca        1 I17     -0.116000
     18 C20        -3.3900    6.3460   -4.8620 ca        1 I17     -0.125300
     19 N10        -2.6080   -0.1980   -4.8130 nh        1 I17     -0.808900
     20 C11        -3.7150   -0.0120   -5.7260 c3        1 I17      0.208500
     21 C14        -6.1350   -0.8070   -7.1910 c3        1 I17      0.116500
     22 C15        -4.7590   -0.8070   -7.8640 c3        1 I17     -0.096900
     23 C16        -3.6880   -1.0870   -6.8300 c3        1 I17     -0.103400
     24 C12        -5.1060   -0.0330   -5.0640 c3        1 I17     -0.103400
     25 C13        -6.1900    0.2490   -6.0830 c3        1 I17     -0.096900
     26 N17        -7.2300   -0.5810   -8.2040 n4        1 I17     -0.843600
     27 C30         1.4500    0.1870    0.1790 c3        1 I17     -0.093400
     28 C29         1.7470   -0.6370    1.4220 c3        1 I17     -0.081400
     29 C27        -0.6460   -0.0660    1.4320 c3        1 I17     -0.093400
     30 C28         0.4460   -0.7910    2.2010 c3        1 I17     -0.081400
     31 H261       -0.3570   -0.7290   -0.6260 h1        1 I17      0.089700
     32 H81        -0.0090    2.9280    0.7230 h5        1 I17      0.080800
     33 H181       -2.2840    5.1100   -2.9250 hn        1 I17      0.464800
     34 H191       -2.5770    4.4970   -5.6290 h1        1 I17      0.048700
     35 H192       -4.2470    4.3770   -4.9160 h1        1 I17      0.048700
     36 H231       -3.8550   10.2040   -5.1290 ha        1 I17      0.141000
     37 H221       -4.9900    8.9330   -3.3050 ha        1 I17      0.140000
     38 H211       -4.6960    6.4630   -3.1340 ha        1 I17      0.136500
     39 H101       -2.5540   -1.1270   -4.4420 hn        1 I17      0.415800
     40 H111       -3.5820    0.9950   -6.2270 h1        1 I17      0.093700
     41 H141       -6.3300   -1.8290   -6.7420 hx        1 I17      0.111700
     42 H151       -4.5640    0.1890   -8.3440 hc        1 I17      0.068200
     43 H152       -4.7140   -1.5950   -8.6620 hc        1 I17      0.068200
     44 H161       -2.6880   -1.0810   -7.3410 hc        1 I17      0.077200
     45 H162       -3.8390   -2.1060   -6.3880 hc        1 I17      0.077200
     46 H121       -5.2880   -1.0250   -4.5740 hc        1 I17      0.077200
     47 H122       -5.1550    0.7560   -4.2660 hc        1 I17      0.077200
     48 H131       -7.1900    0.2290   -5.5740 hc        1 I17      0.068200
     49 H132       -6.0360    1.2740   -6.5150 hc        1 I17      0.068200
     50 H171       -7.1920   -1.3060   -8.9250 hn        1 I17      0.457467
     51 H172       -8.1420   -0.6060   -7.7390 hn        1 I17      0.457467
     52 H301        1.8290    1.2330    0.3070 hc        1 I17      0.054950
     53 H302        1.9450   -0.2430   -0.7260 hc        1 I17      0.054950
     54 H291        2.1490   -1.6410    1.1370 hc        1 I17      0.051200
     55 H292        2.5270   -0.1340    2.0470 hc        1 I17      0.051200
     56 H271       -0.8940    0.9050    1.9320 hc        1 I17      0.054950
     57 H272       -1.5850   -0.6700    1.3840 hc        1 I17      0.054950
     58 H281        0.5460   -0.3660    3.2310 hc        1 I17      0.051200
     59 H282        0.1890   -1.8750    2.3140 hc        1 I17      0.051200
     60 H251       -2.1060    6.5380   -6.6010 ha        1 I17      0.136500
     61 H173       -7.1080    0.3350   -8.6460 hn        1 I17      0.457467
     62 H241       -2.4150    9.0020   -6.7760 ha        1 I17      0.140000
@<TRIPOS>BOND
     1    1    2 1   
     2    1   27 1   
     3    1   29 1   
     4    1   31 1   
     5    2    3 1   
     6    2   10 1   
     7    3    4 ar  
     8    3    8 ar  
     9    4    5 ar  
    10    5    7 ar  
    11    5   19 1   
    12    6    7 ar  
    13    6    8 ar  
    14    6   11 1   
    15    8    9 1   
    16    9   10 2   
    17   10   32 1   
    18   11   12 1   
    19   11   33 1   
    20   12   18 1   
    21   12   34 1   
    22   12   35 1   
    23   13   14 ar  
    24   13   18 ar  
    25   13   60 1   
    26   14   15 ar  
    27   14   62 1   
    28   15   16 ar  
    29   15   36 1   
    30   16   17 ar  
    31   16   37 1   
    32   17   18 ar  
    33   17   38 1   
    34   19   20 1   
    35   19   39 1   
    36   20   23 1   
    37   20   24 1   
    38   20   40 1   
    39   21   22 1   
    40   21   25 1   
    41   21   26 1   
    42   21   41 1   
    43   22   23 1   
    44   22   42 1   
    45   22   43 1   
    46   23   44 1   
    47   23   45 1   
    48   24   25 1   
    49   24   46 1   
    50   24   47 1   
    51   25   48 1   
    52   25   49 1   
    53   26   50 1   
    54   26   51 1   
    55   26   61 1   
    56   27   28 1   
    57   27   52 1   
    58   27   53 1   
    59   28   30 1   
    60   28   54 1   
    61   28   55 1   
    62   29   30 1   
    63   29   56 1   
    64   29   57 1   
    65   30   58 1   
    66   30   59 1   
@<TRIPOS>SUBSTRUCTURE
     1 I17         1 TEMP              0 ****  ****    0 ROOT
