@<TRIPOS>MOLECULE
I17
   64    68     1     0     0
SMALL
bcc


@<TRIPOS>ATOM
      1 C26        -1.3450    0.3540   -0.4390 c3        1 I17      0.023000
      2 N9         -1.4070    1.6090   -1.1770 na        1 I17     -0.202000
      3 C4         -1.6750    1.7880   -2.5400 ca        1 I17      0.444800
      4 N3         -1.9720    0.9160   -3.5310 nb        1 I17     -0.618000
      5 C2         -2.1390    1.5170   -4.7550 ca        1 I17      0.702900
      6 C6         -1.7640    3.7180   -4.0830 ca        1 I17      0.571200
      7 N1         -2.0670    2.8510   -5.0830 nb        1 I17     -0.678000
      8 C5         -1.5560    3.2610   -2.7630 ca        1 I17     -0.078200
      9 N7         -1.2330    3.8910   -1.5730 nc        1 I17     -0.552100
     10 C8         -1.1470    2.8920   -0.6570 cd        1 I17      0.542700
     11 N18        -1.6370    5.1550   -4.3720 n4        1 I17     -0.762700
     12 C19        -2.9110    5.9310   -4.0510 c3        1 I17      0.202100
     13 C25        -2.9660    7.9240   -5.5570 ca        1 I17     -0.091000
     14 C24        -2.8010    9.2900   -5.7690 ca        1 I17     -0.114500
     15 C23        -2.3470   10.1100   -4.7320 ca        1 I17     -0.048000
     16 C22        -2.0580    9.5620   -3.4800 ca        1 I17     -0.114500
     17 C21        -2.2210    8.1960   -3.2600 ca        1 I17     -0.091000
     18 C20        -2.6780    7.3720   -4.3000 ca        1 I17     -0.225300
     19 N10        -2.3810    0.5960   -5.9110 n4        1 I17     -0.738700
     20 C11        -3.6820   -0.1790   -5.8190 c3        1 I17      0.133500
     21 C14        -5.3940   -2.4440   -6.6130 c3        1 I17      0.112500
     22 C15        -5.6570   -1.0210   -7.1220 c3        1 I17     -0.102400
     23 C16        -4.3550   -0.2490   -7.2000 c3        1 I17     -0.106400
     24 C12        -3.4490   -1.6000   -5.2870 c3        1 I17     -0.106400
     25 C13        -4.7550   -2.3680   -5.2200 c3        1 I17     -0.102400
     26 N17        -6.6470   -3.2720   -6.6070 n4        1 I17     -0.837600
     27 C30         0.0560    0.0440    0.1360 c3        1 I17     -0.090900
     28 C29        -0.1870   -0.7770    1.3930 c3        1 I17     -0.086400
     29 C27        -2.3130    0.2980    0.7640 c3        1 I17     -0.090900
     30 C28        -1.6480   -0.6110    1.7880 c3        1 I17     -0.086400
     31 H261       -1.6250   -0.4610   -1.1700 h1        1 I17      0.085700
     32 H81        -0.8950    3.0460    0.4120 h5        1 I17      0.140800
     33 H181       -0.8690    5.5350   -3.7930 hn        1 I17      0.482300
     34 H191       -3.7240    5.5170   -4.7110 hx        1 I17      0.107700
     35 H192       -3.1550    5.7310   -2.9680 hx        1 I17      0.107700
     36 H231       -2.2220   11.1950   -4.9020 ha        1 I17      0.178000
     37 H221       -1.7080   10.2130   -2.6610 ha        1 I17      0.173500
     38 H211       -2.0100    7.7740   -2.2650 ha        1 I17      0.138000
     39 H101       -1.5890   -0.0650   -5.9530 hn        1 I17      0.484300
     40 H111       -4.3550    0.3850   -5.1060 hx        1 I17      0.122700
     41 H141       -4.6800   -2.9680   -7.3220 hx        1 I17      0.125700
     42 H151       -6.1120   -1.0450   -8.1520 hc        1 I17      0.095950
     43 H152       -6.3780   -0.4910   -6.4430 hc        1 I17      0.095950
     44 H161       -4.5870    0.7850   -7.5770 hc        1 I17      0.096450
     45 H162       -3.6710   -0.7410   -7.9440 hc        1 I17      0.096450
     46 H121       -2.7250   -2.1500   -5.9490 hc        1 I17      0.096450
     47 H122       -3.0080   -1.5640   -4.2530 hc        1 I17      0.096450
     48 H131       -5.4560   -1.8700   -4.4980 hc        1 I17      0.095950
     49 H132       -4.5350   -3.3990   -4.8280 hc        1 I17      0.095950
     50 H171       -6.4350   -4.2240   -6.2830 hn        1 I17      0.476133
     51 H172       -7.3510   -2.8600   -5.9830 hn        1 I17      0.476133
     52 H301        0.6670   -0.5210   -0.6100 hc        1 I17      0.063700
     53 H302        0.6110    0.9830    0.3900 hc        1 I17      0.063700
     54 H291        0.4910   -0.4370    2.2170 hc        1 I17      0.078200
     55 H292        0.0450   -1.8570    1.2040 hc        1 I17      0.078200
     56 H271       -2.4830    1.3140    1.2030 hc        1 I17      0.063700
     57 H272       -3.3060   -0.1030    0.4450 hc        1 I17      0.063700
     58 H281       -2.1610   -1.6060    1.8170 hc        1 I17      0.078200
     59 H282       -1.7370   -0.1680    2.8130 hc        1 I17      0.078200
     60 H251       -3.3430    7.2870   -6.3710 ha        1 I17      0.138000
     61 H182       -1.3980    5.3140   -5.3630 hn        1 I17      0.482300
     62 H102       -2.3830    1.1550   -6.7800 hn        1 I17      0.484300
     63 H173       -7.0370   -3.3220   -7.5570 hn        1 I17      0.476133
     64 H241       -3.0360    9.7280   -6.7540 ha        1 I17      0.173500
@<TRIPOS>BOND
     1    1    2 1   
     2    1   27 1   
     3    1   29 1   
     4    1   31 1   
     5    2    3 1   
     6    2   10 1   
     7    3    4 ar  
     8    3    8 ar  
     9    4    5 ar  
    10    5    7 ar  
    11    5   19 1   
    12    6    7 ar  
    13    6    8 ar  
    14    6   11 1   
    15    8    9 1   
    16    9   10 2   
    17   10   32 1   
    18   11   12 1   
    19   11   33 1   
    20   11   61 1   
    21   12   18 1   
    22   12   34 1   
    23   12   35 1   
    24   13   14 ar  
    25   13   18 ar  
    26   13   60 1   
    27   14   15 ar  
    28   14   64 1   
    29   15   16 ar  
    30   15   36 1   
    31   16   17 ar  
    32   16   37 1   
    33   17   18 ar  
    34   17   38 1   
    35   19   20 1   
    36   19   39 1   
    37   19   62 1   
    38   20   23 1   
    39   20   24 1   
    40   20   40 1   
    41   21   22 1   
    42   21   25 1   
    43   21   26 1   
    44   21   41 1   
    45   22   23 1   
    46   22   42 1   
    47   22   43 1   
    48   23   44 1   
    49   23   45 1   
    50   24   25 1   
    51   24   46 1   
    52   24   47 1   
    53   25   48 1   
    54   25   49 1   
    55   26   50 1   
    56   26   51 1   
    57   26   63 1   
    58   27   28 1   
    59   27   52 1   
    60   27   53 1   
    61   28   30 1   
    62   28   54 1   
    63   28   55 1   
    64   29   30 1   
    65   29   56 1   
    66   29   57 1   
    67   30   58 1   
    68   30   59 1   
@<TRIPOS>SUBSTRUCTURE
     1 I17         1 TEMP              0 ****  ****    0 ROOT
