@<TRIPOS>MOLECULE
I17
   61    65     1     0     0
SMALL
bcc


@<TRIPOS>ATOM
      1 C26         0.5090    0.1000   -4.7330 c3        1 I17      0.054000
      2 N9         -0.3290    0.1070   -3.5660 na        1 I17     -0.264000
      3 C4          0.0710   -0.0800   -2.2330 ca        1 I17      0.494800
      4 N3          1.3060   -0.3010   -1.7120 nb        1 I17     -0.795000
      5 C2          1.3000   -0.4690   -0.3350 ca        1 I17      0.912900
      6 C6         -1.0230   -0.1280   -0.0300 ca        1 I17      0.778200
      7 N1          0.2040   -0.3740    0.5160 nb        1 I17     -0.827000
      8 C5         -1.1530    0.0150   -1.4500 ca        1 I17     -0.262200
      9 N7         -2.2500    0.2500   -2.2920 nc        1 I17     -0.537100
     10 C8         -1.7350    0.2990   -3.5270 cd        1 I17      0.391700
     11 N18        -2.1360    0.0410    0.7700 nh        1 I17     -0.854900
     12 C19        -2.1160   -0.2830    2.1760 c3        1 I17      0.260100
     13 C25        -3.9870   -1.2510    3.5390 ca        1 I17     -0.116000
     14 C24        -5.2240   -1.1390    4.1730 ca        1 I17     -0.131000
     15 C23        -5.9510    0.0480    4.0840 ca        1 I17     -0.123000
     16 C22        -5.4380    1.1260    3.3620 ca        1 I17     -0.131000
     17 C21        -4.1990    1.0190    2.7320 ca        1 I17     -0.116000
     18 C20        -3.4680   -0.1700    2.8190 ca        1 I17     -0.111300
     19 N10         2.5380   -0.8550    0.2310 nh        1 I17     -0.812900
     20 C11         2.8320   -0.5600    1.6230 c3        1 I17      0.205500
     21 C14         4.5200    0.4250    3.8570 c3        1 I17      0.159500
     22 C15         4.3670   -1.0690    3.5390 c3        1 I17     -0.092400
     23 C16         4.1190   -1.2830    2.0620 c3        1 I17     -0.092400
     24 C12         2.9840    0.9400    1.9320 c3        1 I17     -0.092400
     25 C13         3.2430    1.1560    3.4050 c3        1 I17     -0.092400
     26 N17         4.8870    0.6480    5.2440 n3        1 I17     -0.901800
     27 C30         0.1510   -0.9950   -5.7650 c3        1 I17     -0.094400
     28 C29         0.5780   -0.4540   -7.1200 c3        1 I17     -0.080900
     29 C27         0.4950    1.4240   -5.5330 c3        1 I17     -0.094400
     30 C28         0.7910    1.0480   -6.9760 c3        1 I17     -0.080900
     31 H261        1.5680   -0.0850   -4.3800 h1        1 I17      0.092700
     32 H81        -2.3040    0.4680   -4.4480 h5        1 I17      0.070800
     33 H181       -3.0190    0.0450    0.3090 hn        1 I17      0.453800
     34 H191       -1.7100   -1.3270    2.3290 h1        1 I17      0.059200
     35 H192       -1.4090    0.4300    2.6920 h1        1 I17      0.059200
     36 H241       -5.6270   -1.9900    4.7410 ha        1 I17      0.133500
     37 H231       -6.9280    0.1330    4.5820 ha        1 I17      0.133000
     38 H221       -6.0100    2.0620    3.2910 ha        1 I17      0.133500
     39 H211       -3.7930    1.8730    2.1690 ha        1 I17      0.138500
     40 H101        3.3200   -0.7090   -0.3770 hn        1 I17      0.415800
     41 H111        1.9810   -0.9650    2.2490 h1        1 I17      0.085700
     42 H141        5.3790    0.8250    3.2380 h1        1 I17      0.058700
     43 H151        5.2990   -1.6160    3.8380 hc        1 I17      0.045950
     44 H152        3.5170   -1.4980    4.1310 hc        1 I17      0.045950
     45 H161        4.9940   -0.9000    1.4730 hc        1 I17      0.049450
     46 H162        4.0260   -2.3820    1.8600 hc        1 I17      0.049450
     47 H121        3.8300    1.3670    1.3330 hc        1 I17      0.049450
     48 H122        2.0480    1.4830    1.6370 hc        1 I17      0.049450
     49 H131        2.3660    0.7870    4.0000 hc        1 I17      0.045950
     50 H132        3.3460    2.2550    3.6010 hc        1 I17      0.045950
     51 H171        4.9070    1.6300    5.4390 hn        1 I17      0.345300
     52 H172        4.2290    0.2100    5.8590 hn        1 I17      0.345300
     53 H301        0.6820   -1.9460   -5.5170 hc        1 I17      0.054200
     54 H302       -0.9470   -1.2090   -5.7610 hc        1 I17      0.054200
     55 H291        1.5250   -0.9480   -7.4560 hc        1 I17      0.046200
     56 H292       -0.2010   -0.6730   -7.8910 hc        1 I17      0.046200
     57 H271       -0.5010    1.9280   -5.4590 hc        1 I17      0.054200
     58 H272        1.2610    2.1280   -5.1270 hc        1 I17      0.054200
     59 H281        1.8450    1.3170   -7.2400 hc        1 I17      0.046200
     60 H282        0.1210    1.6130   -7.6720 hc        1 I17      0.046200
     61 H251       -3.4190   -2.1910    3.6080 ha        1 I17      0.138500
@<TRIPOS>BOND
     1    1    2 1   
     2    1   27 1   
     3    1   29 1   
     4    1   31 1   
     5    2    3 1   
     6    2   10 1   
     7    3    4 ar  
     8    3    8 ar  
     9    4    5 ar  
    10    5    7 ar  
    11    5   19 1   
    12    6    7 ar  
    13    6    8 ar  
    14    6   11 1   
    15    8    9 1   
    16    9   10 2   
    17   10   32 1   
    18   11   12 1   
    19   11   33 1   
    20   12   18 1   
    21   12   34 1   
    22   12   35 1   
    23   13   14 ar  
    24   13   18 ar  
    25   13   61 1   
    26   14   15 ar  
    27   14   36 1   
    28   15   16 ar  
    29   15   37 1   
    30   16   17 ar  
    31   16   38 1   
    32   17   18 ar  
    33   17   39 1   
    34   19   20 1   
    35   19   40 1   
    36   20   23 1   
    37   20   24 1   
    38   20   41 1   
    39   21   22 1   
    40   21   25 1   
    41   21   26 1   
    42   21   42 1   
    43   22   23 1   
    44   22   43 1   
    45   22   44 1   
    46   23   45 1   
    47   23   46 1   
    48   24   25 1   
    49   24   47 1   
    50   24   48 1   
    51   25   49 1   
    52   25   50 1   
    53   26   51 1   
    54   26   52 1   
    55   27   28 1   
    56   27   53 1   
    57   27   54 1   
    58   28   30 1   
    59   28   55 1   
    60   28   56 1   
    61   29   30 1   
    62   29   57 1   
    63   29   58 1   
    64   30   59 1   
    65   30   60 1   
@<TRIPOS>SUBSTRUCTURE
     1 I17         1 TEMP              0 ****  ****    0 ROOT
