@<TRIPOS>MOLECULE
I17
   62    66     1     0     0
SMALL
bcc


@<TRIPOS>ATOM
      1 C26        -0.0880    0.1690    0.0090 c3        1 I17      0.049000
      2 N9         -0.6240    1.3320   -0.6500 na        1 I17     -0.251000
      3 C4         -1.3180    1.3740   -1.8680 ca        1 I17      0.482800
      4 N3         -1.6870    0.3670   -2.7090 nb        1 I17     -0.772000
      5 C2         -2.3390    0.8140   -3.8390 ca        1 I17      0.887900
      6 C6         -2.3310    3.1140   -3.2900 ca        1 I17      0.780200
      7 N1         -2.6960    2.1180   -4.1550 nb        1 I17     -0.844000
      8 C5         -1.6070    2.7830   -2.0980 ca        1 I17     -0.243200
      9 N7         -1.0950    3.5580   -1.0480 nc        1 I17     -0.536100
     10 C8         -0.5220    2.6780   -0.2150 cd        1 I17      0.408700
     11 N18        -2.6950    4.4230   -3.5170 nu        1 I17     -0.851900
     12 C19        -3.2340    4.8610   -4.7810 c3        1 I17      0.268100
     13 C25        -2.7480    7.0670   -5.8750 ca        1 I17     -0.116000
     14 C24        -2.9190    8.4470   -5.9710 ca        1 I17     -0.128000
     15 C23        -3.7250    9.1180   -5.0520 ca        1 I17     -0.114000
     16 C22        -4.3630    8.4070   -4.0350 ca        1 I17     -0.128000
     17 C21        -4.1980    7.0260   -3.9390 ca        1 I17     -0.116000
     18 C20        -3.3910    6.3510   -4.8610 ca        1 I17     -0.125300
     19 N10        -2.6080   -0.1930   -4.8150 nu        1 I17     -0.808900
     20 C11        -3.7150   -0.0080   -5.7280 c3        1 I17      0.208500
     21 C14        -6.1340   -0.8030   -7.1930 c3        1 I17      0.116500
     22 C15        -4.7590   -0.8010   -7.8670 c3        1 I17     -0.096900
     23 C16        -3.6870   -1.0820   -6.8330 c3        1 I17     -0.103400
     24 C12        -5.1060   -0.0300   -5.0660 c3        1 I17     -0.103400
     25 C13        -6.1900    0.2520   -6.0850 c3        1 I17     -0.096900
     26 N17        -7.2300   -0.5770   -8.2060 nz        1 I17     -0.843600
     27 C30         1.4480    0.1910    0.1800 c3        1 I17     -0.093400
     28 C29         1.7440   -0.6330    1.4230 c3        1 I17     -0.081400
     29 C27        -0.6490   -0.0650    1.4300 c3        1 I17     -0.093400
     30 C28         0.4430   -0.7900    2.2000 c3        1 I17     -0.081400
     31 H261       -0.3580   -0.7260   -0.6280 h1        1 I17      0.089700
     32 H81        -0.0130    2.9300    0.7240 h5        1 I17      0.080800
     33 H181       -2.2880    5.1130   -2.9230 hn        1 I17      0.464800
     34 H191       -2.5770    4.5020   -5.6280 h1        1 I17      0.048700
     35 H192       -4.2490    4.3810   -4.9170 h1        1 I17      0.048700
     36 H231       -3.8550   10.2090   -5.1260 ha        1 I17      0.141000
     37 H221       -4.9950    8.9360   -3.3060 ha        1 I17      0.140000
     38 H211       -4.7010    6.4660   -3.1360 ha        1 I17      0.136500
     39 H101       -2.5530   -1.1230   -4.4450 hn        1 I17      0.415800
     40 H111       -3.5820    1.0000   -6.2280 h1        1 I17      0.093700
     41 H141       -6.3290   -1.8250   -6.7460 hx        1 I17      0.111700
     42 H151       -4.7130   -1.5890   -8.6650 hc        1 I17      0.068200
     43 H152       -4.5640    0.1950   -8.3460 hc        1 I17      0.068200
     44 H161       -3.8370   -2.1010   -6.3920 hc        1 I17      0.077200
     45 H162       -2.6870   -1.0750   -7.3440 hc        1 I17      0.077200
     46 H121       -5.2870   -1.0220   -4.5770 hc        1 I17      0.077200
     47 H122       -5.1550    0.7590   -4.2680 hc        1 I17      0.077200
     48 H131       -6.0370    1.2770   -6.5170 hc        1 I17      0.068200
     49 H132       -7.1900    0.2310   -5.5760 hc        1 I17      0.068200
     50 H171       -8.1410   -0.6030   -7.7420 hn        1 I17      0.457467
     51 H172       -7.1910   -1.3020   -8.9280 hn        1 I17      0.457467
     52 H301        1.9440   -0.2380   -0.7250 hc        1 I17      0.054950
     53 H302        1.8250    1.2370    0.3090 hc        1 I17      0.054950
     54 H291        2.5230   -0.1300    2.0490 hc        1 I17      0.051200
     55 H292        2.1480   -1.6370    1.1360 hc        1 I17      0.051200
     56 H271       -1.5870   -0.6700    1.3800 hc        1 I17      0.054950
     57 H272       -0.8990    0.9050    1.9310 hc        1 I17      0.054950
     58 H281        0.1860   -1.8740    2.3110 hc        1 I17      0.051200
     59 H282        0.5410   -0.3660    3.2300 hc        1 I17      0.051200
     60 H251       -2.1030    6.5430   -6.5970 ha        1 I17      0.136500
     61 H173       -7.1080    0.3390   -8.6480 hn        1 I17      0.457467
     62 H241       -2.4120    9.0080   -6.7710 ha        1 I17      0.140000
@<TRIPOS>BOND
     1    1    2 1   
     2    1   27 1   
     3    1   29 1   
     4    1   31 1   
     5    2    3 1   
     6    2   10 1   
     7    3    4 ar  
     8    3    8 ar  
     9    4    5 ar  
    10    5    7 ar  
    11    5   19 1   
    12    6    7 ar  
    13    6    8 ar  
    14    6   11 1   
    15    8    9 1   
    16    9   10 2   
    17   10   32 1   
    18   11   12 1   
    19   11   33 1   
    20   12   18 1   
    21   12   34 1   
    22   12   35 1   
    23   13   14 ar  
    24   13   18 ar  
    25   13   60 1   
    26   14   15 ar  
    27   14   62 1   
    28   15   16 ar  
    29   15   36 1   
    30   16   17 ar  
    31   16   37 1   
    32   17   18 ar  
    33   17   38 1   
    34   19   20 1   
    35   19   39 1   
    36   20   23 1   
    37   20   24 1   
    38   20   40 1   
    39   21   22 1   
    40   21   25 1   
    41   21   26 1   
    42   21   41 1   
    43   22   23 1   
    44   22   42 1   
    45   22   43 1   
    46   23   44 1   
    47   23   45 1   
    48   24   25 1   
    49   24   46 1   
    50   24   47 1   
    51   25   48 1   
    52   25   49 1   
    53   26   50 1   
    54   26   51 1   
    55   26   61 1   
    56   27   28 1   
    57   27   52 1   
    58   27   53 1   
    59   28   30 1   
    60   28   54 1   
    61   28   55 1   
    62   29   30 1   
    63   29   56 1   
    64   29   57 1   
    65   30   58 1   
    66   30   59 1   
@<TRIPOS>SUBSTRUCTURE
     1 I17         1 TEMP              0 ****  ****    0 ROOT
