@<TRIPOS>MOLECULE
I18
   34    36     1     0     0
SMALL
bcc


@<TRIPOS>ATOM
      1 N1          0.0300    0.1360   -0.0550 nu        1 I18     -0.801200
      2 C5          1.4790   -0.1250    0.0320 c3        1 I18      0.188800
      3 C51         1.9570   -1.3010   -0.7620 ca        1 I18     -0.096300
      4 C4          1.7560   -0.2010    1.6060 c3        1 I18      0.144800
      5 C41         2.5840   -1.3660    2.0480 ca        1 I18     -0.065300
      6 N3          0.4310   -0.1050    2.2360 n2        1 I18     -0.606900
      7 C2         -0.4730    0.0500    1.2940 c2        1 I18      0.539200
      8 C21        -1.9380    0.2270    1.5290 c3        1 I18     -0.124400
      9 C56         1.2900   -2.5310   -0.7280 ca        1 I18     -0.110000
     10 C55         1.7360   -3.6020   -1.4990 ca        1 I18     -0.121500
     11 C54         2.8610   -3.4440   -2.3150 ca        1 I18      0.022400
     12 Cl5         3.4080   -4.7460   -3.2600 cl        1 I18     -0.089400
     13 C53         3.5380   -2.2210   -2.3570 ca        1 I18     -0.121500
     14 C52         3.0810   -1.1560   -1.5850 ca        1 I18     -0.110000
     15 C42         3.9800   -1.2260    2.0580 ca        1 I18     -0.105500
     16 C43         4.7970   -2.2720    2.4760 ca        1 I18     -0.125500
     17 C44         4.2170   -3.4710    2.9010 ca        1 I18      0.020400
     18 Cl4         5.2100   -4.7520    3.4180 cl        1 I18     -0.096400
     19 C45         2.8280   -3.6210    2.9080 ca        1 I18     -0.125500
     20 C46         2.0180   -2.5700    2.4810 ca        1 I18     -0.105500
     21 H1         -0.4590   -0.4350   -0.7110 hn        1 I18      0.395800
     22 H2          1.9880    0.8060   -0.3530 h1        1 I18      0.079700
     23 H3          2.3140    0.7440    1.8800 h1        1 I18      0.081700
     24 H4         -2.1880    0.0920    2.6100 hc        1 I18      0.063700
     25 H5         -2.5140   -0.5190    0.9290 hc        1 I18      0.063700
     26 H6         -2.2420    1.2570    1.2140 hc        1 I18      0.063700
     27 H7          0.4170   -2.6680   -0.0720 ha        1 I18      0.137000
     28 H8          1.2060   -4.5660   -1.4620 ha        1 I18      0.149500
     29 H9          4.4250   -2.0980   -2.9970 ha        1 I18      0.149500
     30 H10         3.6130   -0.1930   -1.6260 ha        1 I18      0.137000
     31 H11         4.4380   -0.2790    1.7340 ha        1 I18      0.138500
     32 H12         5.8910   -2.1520    2.4750 ha        1 I18      0.146500
     33 H13         2.3720   -4.5630    3.2500 ha        1 I18      0.146500
     34 H14         0.9250   -2.7000    2.4980 ha        1 I18      0.138500
@<TRIPOS>BOND
     1    1    2 1   
     2    1    7 1   
     3    1   21 1   
     4    2    3 1   
     5    2    4 1   
     6    2   22 1   
     7    3    9 ar  
     8    3   14 ar  
     9    4    5 1   
    10    4    6 1   
    11    4   23 1   
    12    5   15 ar  
    13    5   20 ar  
    14    6    7 2   
    15    7    8 1   
    16    8   24 1   
    17    8   25 1   
    18    8   26 1   
    19    9   10 ar  
    20    9   27 1   
    21   10   11 ar  
    22   10   28 1   
    23   11   12 1   
    24   11   13 ar  
    25   13   14 ar  
    26   13   29 1   
    27   14   30 1   
    28   15   16 ar  
    29   15   31 1   
    30   16   17 ar  
    31   16   32 1   
    32   17   18 1   
    33   17   19 ar  
    34   19   20 ar  
    35   19   33 1   
    36   20   34 1   
@<TRIPOS>SUBSTRUCTURE
     1 I18         1 TEMP              0 ****  ****    0 ROOT
