@<TRIPOS>MOLECULE
I18
   34    36     1     0     0
SMALL
bcc


@<TRIPOS>ATOM
      1 N1          0.0410    0.1410   -0.0470 nh        1 I18     -0.801200
      2 C5          1.4880   -0.1250    0.0390 c3        1 I18      0.188800
      3 C51         1.9620   -1.2990   -0.7590 ca        1 I18     -0.096300
      4 C4          1.7650   -0.2080    1.6130 c3        1 I18      0.144800
      5 C41         2.5890   -1.3780    2.0510 ca        1 I18     -0.065300
      6 N3          0.4410   -0.1100    2.2430 n2        1 I18     -0.606900
      7 C2         -0.4630    0.0520    1.3020 c2        1 I18      0.539200
      8 C21        -1.9280    0.2340    1.5380 c3        1 I18     -0.124400
      9 C56         1.2920   -2.5270   -0.7290 ca        1 I18     -0.110000
     10 C55         1.7340   -3.5970   -1.5050 ca        1 I18     -0.121500
     11 C54         2.8590   -3.4400   -2.3190 ca        1 I18      0.022400
     12 CL5         3.4020   -4.7400   -3.2690 cl        1 I18     -0.089400
     13 C53         3.5400   -2.2200   -2.3570 ca        1 I18     -0.121500
     14 C52         3.0870   -1.1550   -1.5810 ca        1 I18     -0.110000
     15 C42         3.9850   -1.2420    2.0610 ca        1 I18     -0.105500
     16 C43         4.7990   -2.2920    2.4760 ca        1 I18     -0.125500
     17 C44         4.2150   -3.4910    2.8970 ca        1 I18      0.020400
     18 CL4         5.2030   -4.7770    3.4090 cl        1 I18     -0.096400
     19 C45         2.8250   -3.6360    2.9030 ca        1 I18     -0.125500
     20 C46         2.0190   -2.5800    2.4800 ca        1 I18     -0.105500
     21 H1         -0.4500   -0.4260   -0.7050 hn        1 I18      0.395800
     22 H2          2.0010    0.8050   -0.3420 h1        1 I18      0.079700
     23 H3          2.3260    0.7340    1.8910 h1        1 I18      0.081700
     24 H4         -2.5060   -0.5080    0.9350 hc        1 I18      0.063700
     25 H5         -2.2280    1.2650    1.2260 hc        1 I18      0.063700
     26 H6         -2.1780    0.0960    2.6180 hc        1 I18      0.063700
     27 H7          0.4180   -2.6640   -0.0740 ha        1 I18      0.137000
     28 H8          1.2010   -4.5600   -1.4710 ha        1 I18      0.149500
     29 H9          4.4270   -2.0970   -2.9970 ha        1 I18      0.149500
     30 H10         3.6220   -0.1940   -1.6190 ha        1 I18      0.137000
     31 H11         4.4470   -0.2960    1.7410 ha        1 I18      0.138500
     32 H12         5.8930   -2.1760    2.4760 ha        1 I18      0.146500
     33 H13         2.3660   -4.5770    3.2420 ha        1 I18      0.146500
     34 H14         0.9260   -2.7070    2.4960 ha        1 I18      0.138500
@<TRIPOS>BOND
     1    1    2 1   
     2    1    7 1   
     3    1   21 1   
     4    2    3 1   
     5    2    4 1   
     6    2   22 1   
     7    3    9 ar  
     8    3   14 ar  
     9    4    5 1   
    10    4    6 1   
    11    4   23 1   
    12    5   15 ar  
    13    5   20 ar  
    14    6    7 2   
    15    7    8 1   
    16    8   24 1   
    17    8   25 1   
    18    8   26 1   
    19    9   10 ar  
    20    9   27 1   
    21   10   11 ar  
    22   10   28 1   
    23   11   12 1   
    24   11   13 ar  
    25   13   14 ar  
    26   13   29 1   
    27   14   30 1   
    28   15   16 ar  
    29   15   31 1   
    30   16   17 ar  
    31   16   32 1   
    32   17   18 1   
    33   17   19 ar  
    34   19   20 ar  
    35   19   33 1   
    36   20   34 1   
@<TRIPOS>SUBSTRUCTURE
     1 I18         1 TEMP              0 ****  ****    0 ROOT
