@<TRIPOS>MOLECULE
I18
   34    36     1     0     0
SMALL
bcc


@<TRIPOS>ATOM
      1 N1          3.3260    1.1810   -0.0420 nh        1 I18     -0.801200
      2 C5          2.1830    0.7680   -0.8770 c3        1 I18      0.188800
      3 C51         0.8790    1.4150   -0.5260 ca        1 I18     -0.096300
      4 C4          2.2050   -0.8290   -0.7850 c3        1 I18      0.144800
      5 C41         0.8800   -1.4650   -0.5040 ca        1 I18     -0.065300
      6 N3          3.2650   -1.1450    0.1830 n2        1 I18     -0.606900
      7 C2          3.8250   -0.0230    0.5760 c2        1 I18      0.539200
      8 C21         4.9720    0.0790    1.5290 c3        1 I18     -0.124400
      9 C56         0.4390    1.5080    0.7990 ca        1 I18     -0.110000
     10 C55        -0.7640    2.1410    1.1050 ca        1 I18     -0.121500
     11 C54        -1.5370    2.6880    0.0750 ca        1 I18      0.022400
     12 CL5        -3.0030    3.4630    0.4420 cl        1 I18     -0.089400
     13 C53        -1.1100    2.5990   -1.2530 ca        1 I18     -0.121500
     14 C52         0.0970    1.9680   -1.5470 ca        1 I18     -0.110000
     15 C42         0.0510   -1.7840   -1.5890 ca        1 I18     -0.105500
     16 C43        -1.1840   -2.3930   -1.3860 ca        1 I18     -0.125500
     17 C44        -1.5950   -2.7000   -0.0850 ca        1 I18      0.020400
     18 CL4        -3.1010   -3.4470    0.1710 cl        1 I18     -0.096400
     19 C45        -0.7740   -2.3980    1.0050 ca        1 I18     -0.125500
     20 C46         0.4590   -1.7830    0.7910 ca        1 I18     -0.105500
     21 H1          3.1300    1.9200    0.6000 hn        1 I18      0.395800
     22 H2          2.4540    1.0460   -1.9370 h1        1 I18      0.079700
     23 H3          2.5630   -1.2040   -1.7910 h1        1 I18      0.081700
     24 H4          4.7160    0.7790    2.3620 hc        1 I18      0.063700
     25 H5          5.2220   -0.9210    1.9610 hc        1 I18      0.063700
     26 H6          5.8690    0.4720    0.9880 hc        1 I18      0.063700
     27 H7          1.0320    1.0620    1.6120 ha        1 I18      0.137000
     28 H8         -1.1030    2.2060    2.1500 ha        1 I18      0.149500
     29 H9         -1.7200    3.0270   -2.0630 ha        1 I18      0.149500
     30 H10         0.4330    1.9060   -2.5940 ha        1 I18      0.137000
     31 H11         0.3770   -1.5540   -2.6150 ha        1 I18      0.138500
     32 H12        -1.8290   -2.6350   -2.2450 ha        1 I18      0.146500
     33 H13        -1.0950   -2.6470    2.0280 ha        1 I18      0.146500
     34 H14         1.0970   -1.5570    1.6590 ha        1 I18      0.138500
@<TRIPOS>BOND
     1    1    2 1   
     2    1    7 1   
     3    1   21 1   
     4    2    3 1   
     5    2    4 1   
     6    2   22 1   
     7    3    9 ar  
     8    3   14 ar  
     9    4    5 1   
    10    4    6 1   
    11    4   23 1   
    12    5   15 ar  
    13    5   20 ar  
    14    6    7 2   
    15    7    8 1   
    16    8   24 1   
    17    8   25 1   
    18    8   26 1   
    19    9   10 ar  
    20    9   27 1   
    21   10   11 ar  
    22   10   28 1   
    23   11   12 1   
    24   11   13 ar  
    25   13   14 ar  
    26   13   29 1   
    27   14   30 1   
    28   15   16 ar  
    29   15   31 1   
    30   16   17 ar  
    31   16   32 1   
    32   17   18 1   
    33   17   19 ar  
    34   19   20 ar  
    35   19   33 1   
    36   20   34 1   
@<TRIPOS>SUBSTRUCTURE
     1 I18         1 TEMP              0 ****  ****    0 ROOT
