@<TRIPOS>MOLECULE
I18
   34    36     1     0     0
SMALL
bcc


@<TRIPOS>ATOM
      1 N1          0.0320    0.1360   -0.0580 nh        1 I18     -0.801200
      2 C5          1.4800   -0.1270    0.0290 c3        1 I18      0.188800
      3 C51         1.9570   -1.3040   -0.7630 ca        1 I18     -0.096300
      4 C4          1.7580   -0.1990    1.6020 c3        1 I18      0.144800
      5 C41         2.5850   -1.3640    2.0470 ca        1 I18     -0.065300
      6 N3          0.4330   -0.1010    2.2330 n2        1 I18     -0.606900
      7 C2         -0.4710    0.0530    1.2910 c2        1 I18      0.539200
      8 C21        -1.9370    0.2320    1.5260 c3        1 I18     -0.124400
      9 C56         1.2880   -2.5330   -0.7270 ca        1 I18     -0.110000
     10 C55         1.7320   -3.6060   -1.4960 ca        1 I18     -0.121500
     11 C54         2.8580   -3.4520   -2.3110 ca        1 I18      0.022400
     12 CL5         3.4040   -4.7560   -3.2540 cl        1 I18     -0.089400
     13 C53         3.5370   -2.2300   -2.3550 ca        1 I18     -0.121500
     14 C52         3.0820   -1.1620   -1.5850 ca        1 I18     -0.110000
     15 C42         3.9800   -1.2240    2.0580 ca        1 I18     -0.105500
     16 C43         4.7970   -2.2690    2.4790 ca        1 I18     -0.125500
     17 C44         4.2170   -3.4680    2.9060 ca        1 I18      0.020400
     18 CL4         5.2080   -4.7480    3.4250 cl        1 I18     -0.096400
     19 C45         2.8280   -3.6170    2.9110 ca        1 I18     -0.125500
     20 C46         2.0180   -2.5660    2.4820 ca        1 I18     -0.105500
     21 H1         -0.4580   -0.4360   -0.7130 hn        1 I18      0.395800
     22 H2          1.9900    0.8030   -0.3590 h1        1 I18      0.079700
     23 H3          2.3160    0.7460    1.8740 h1        1 I18      0.081700
     24 H4         -2.2390    1.2620    1.2100 hc        1 I18      0.063700
     25 H5         -2.5140   -0.5140    0.9270 hc        1 I18      0.063700
     26 H6         -2.1860    0.0990    2.6070 hc        1 I18      0.063700
     27 H7          0.4140   -2.6680   -0.0720 ha        1 I18      0.137000
     28 H8          1.2020   -4.5690   -1.4580 ha        1 I18      0.149500
     29 H9          4.4250   -2.1100   -2.9950 ha        1 I18      0.149500
     30 H10         3.6150   -0.2000   -1.6280 ha        1 I18      0.137000
     31 H11         4.4390   -0.2780    1.7330 ha        1 I18      0.138500
     32 H12         5.8910   -2.1500    2.4790 ha        1 I18      0.146500
     33 H13         2.3710   -4.5580    3.2550 ha        1 I18      0.146500
     34 H14         0.9250   -2.6960    2.4980 ha        1 I18      0.138500
@<TRIPOS>BOND
     1    1    2 1   
     2    1    7 1   
     3    1   21 1   
     4    2    3 1   
     5    2    4 1   
     6    2   22 1   
     7    3    9 ar  
     8    3   14 ar  
     9    4    5 1   
    10    4    6 1   
    11    4   23 1   
    12    5   15 ar  
    13    5   20 ar  
    14    6    7 2   
    15    7    8 1   
    16    8   24 1   
    17    8   25 1   
    18    8   26 1   
    19    9   10 ar  
    20    9   27 1   
    21   10   11 ar  
    22   10   28 1   
    23   11   12 1   
    24   11   13 ar  
    25   13   14 ar  
    26   13   29 1   
    27   14   30 1   
    28   15   16 ar  
    29   15   31 1   
    30   16   17 ar  
    31   16   32 1   
    32   17   18 1   
    33   17   19 ar  
    34   19   20 ar  
    35   19   33 1   
    36   20   34 1   
@<TRIPOS>SUBSTRUCTURE
     1 I18         1 TEMP              0 ****  ****    0 ROOT
