@<TRIPOS>MOLECULE
I18
   34    29     1     0     0
SMALL
bcc


@<TRIPOS>ATOM
      1 N1         -1.9380    1.4850   -0.5850 n3        1 I18     -0.311000
      2 C5         -0.4700    1.4570   -0.5780 c3        1 I18     -0.002000
      3 C51         0.0020    0.2840   -1.2230 c1        1 I18     -0.067000
      4 C4         -0.0790    1.4520    0.9240 c3        1 I18     -0.021000
      5 C41         0.4480    0.1540    1.1740 c1        1 I18     -0.054000
      6 N3         -1.2830    1.4620    1.5170 n2        1 I18     -0.197000
      7 C2         -2.2740    1.4790    0.7130 c1        1 I18      0.037000
      8 C21        -3.6070    2.0770    1.1560 c2        1 I18     -0.169000
      9 C56        -0.6920   -0.8630   -1.6220 c1        1 I18     -0.108500
     10 C55        -0.0670   -1.8090   -2.4400 c1        1 I18     -0.108500
     11 C54         1.2480   -1.6090   -2.8580 c1        1 I18     -0.056500
     12 CL5         2.0740   -2.8500   -3.6990 cl        1 I18     -0.018000
     13 C53         1.9430   -0.4560   -2.4560 c1        1 I18     -0.126000
     14 C52         1.3180    0.4850   -1.6410 c1        1 I18     -0.118000
     15 C42         1.7770    0.3250    1.5310 c1        1 I18     -0.114000
     16 C43         2.5230   -0.7550    1.9440 c1        1 I18     -0.126000
     17 C44         1.9530   -2.0010    2.0030 c1        1 I18     -0.056500
     18 CL4         2.9320   -3.3920    2.4100 cl        1 I18     -0.018000
     19 C45         0.6290   -2.1720    1.6480 c1        1 I18     -0.108500
     20 C46        -0.1210   -1.0890    1.2330 c1        1 I18     -0.108500
     21 H1         -2.4770    1.7650   -1.2890 hn        1 I18      0.200000
     22 H2         -0.1040    2.2710   -1.0280 h1        1 I18      0.083000
     23 H3          0.6270    2.0680    1.2460 h1        1 I18      0.111000
     24 H4         -4.3330    1.7090    0.6020 ha        1 I18      0.103000
     25 H5         -3.5800    3.0360    1.0550 ha        1 I18      0.103000
     26 H6         -3.7640    1.8600    2.0700 ha        1 I18      0.103000
     27 H7         -1.6140   -1.0030   -1.3300 ha        1 I18      0.147000
     28 H8         -0.5580   -2.6200   -2.7220 ha        1 I18      0.147000
     29 H9          2.8740   -0.3130   -2.7510 ha        1 I18      0.146500
     30 H10         1.7870    1.2630   -1.3690 ha        1 I18      0.133000
     31 H11         2.1810    1.2040    1.4900 ha        1 I18      0.133000
     32 H12         3.4560   -0.6350    2.1960 ha        1 I18      0.146500
     33 H13         0.2220   -3.0620    1.6900 ha        1 I18      0.147000
     34 H14        -1.0340   -1.2070    0.9890 ha        1 I18      0.147000
@<TRIPOS>BOND
     1    1    2 1   
     2    1    7 1   
     3    1   21 1   
     4    2    3 1   
     5    2    4 1   
     6    2   22 1   
     7    3   14 1   
     8    4    5 1   
     9    4    6 1   
    10    4   23 1   
    11    5   15 1   
    12    6    7 1   
    13    8   24 1   
    14    8   25 1   
    15    8   26 1   
    16    9   10 1   
    17    9   27 1   
    18   10   28 1   
    19   11   12 1   
    20   11   13 1   
    21   13   29 1   
    22   14   30 1   
    23   15   31 1   
    24   16   17 1   
    25   16   32 1   
    26   17   18 1   
    27   19   20 1   
    28   19   33 1   
    29   20   34 1   
@<TRIPOS>SUBSTRUCTURE
     1 I18         1 TEMP              0 ****  ****    0 ROOT
