@<TRIPOS>MOLECULE
I19
   65    68     1     0     0
SMALL
bcc


@<TRIPOS>ATOM
      1 C1          3.9040   -3.3530    0.3500 c3        1 I19     -0.114600
      2 C2          3.9460   -2.1930   -0.6480 c3        1 I19      0.053000
      3 C3          5.4060   -1.8340   -0.9340 c3        1 I19     -0.114600
      4 N1          3.1800   -2.4300   -1.8590 na        1 I19     -0.157900
      5 C4          3.1140   -3.6170   -2.5960 cc        1 I19      0.492800
      6 C5          3.9280   -4.8350   -2.3430 c3        1 I19     -0.146400
      7 N2          2.1870   -3.5220   -3.6120 nd        1 I19     -0.656000
      8 C6          1.6460   -2.2730   -3.5240 cd        1 I19      0.425200
      9 C7          2.2440   -1.5430   -2.4440 cc        1 I19     -0.394100
     10 C8          2.0070   -0.1610   -2.1460 ca        1 I19      0.583800
     11 N3          2.9800    0.6100   -1.5820 nb        1 I19     -0.699000
     12 C9          2.6940    1.9360   -1.4110 ca        1 I19      0.694900
     13 N4          3.8040    2.7660   -0.8320 n4        1 I19     -0.611100
     14 C10         3.4150    3.4320    0.4170 ca        1 I19     -0.011400
     15 C11         2.7490    4.6680    0.3680 ca        1 I19     -0.094500
     16 C12         2.4430    5.3240    1.5610 ca        1 I19     -0.071000
     17 C13         2.7880    4.7550    2.7880 ca        1 I19     -0.097600
     18 C14         3.4340    3.5110    2.8290 ca        1 I19     -0.071000
     19 C15         3.7440    2.8390    1.6490 ca        1 I19     -0.094500
     20 C16         2.6050    5.4760    4.0820 c         1 I19      0.659700
     21 O1          3.4950    5.4510    4.9490 o         1 I19     -0.534100
     22 N5          1.4600    6.2660    4.2790 n         1 I19     -0.453800
     23 C17         0.1670    5.9030    3.7230 c3        1 I19      0.076000
     24 C18        -0.9220    6.2510    4.7550 c3        1 I19     -0.116400
     25 C19        -0.1760    6.7260    6.0180 c3        1 I19      0.094500
     26 C20         1.2990    6.9410    5.5540 c3        1 I19      0.057000
     27 N6         -0.7730    7.9530    6.6540 n4        1 I19     -0.673400
     28 C21        -2.1820    7.7080    7.0670 c3        1 I19      0.080600
     29 C22         0.0330    8.3910    7.8270 c3        1 I19      0.080600
     30 N7          1.5420    2.6030   -1.7280 nb        1 I19     -0.672000
     31 C23         0.5770    1.8360   -2.2710 ca        1 I19      0.416200
     32 C24         0.7420    0.4480   -2.4980 ca        1 I19     -0.053700
     33 F1         -0.2690   -0.2630   -3.0180 f         1 I19     -0.073900
     34 H11C        4.6080   -4.1680    0.0550 hc        1 I19      0.056533
     35 H12C        4.2220   -2.9650    1.3490 hc        1 I19      0.056533
     36 H13C        2.8770   -3.7800    0.4460 hc        1 I19      0.056533
     37 H2          3.4600   -1.3140   -0.1270 h1        1 I19      0.056700
     38 H31C        5.9350   -2.6730   -1.4490 hc        1 I19      0.056533
     39 H32C        5.9200   -1.6380    0.0380 hc        1 I19      0.056533
     40 H33C        5.4790   -0.9240   -1.5750 hc        1 I19      0.056533
     41 H51C        3.4980   -5.4000   -1.4780 hc        1 I19      0.080367
     42 H52C        3.9090   -5.5000   -3.2450 hc        1 I19      0.080367
     43 H53C        4.9900   -4.5650   -2.1200 hc        1 I19      0.080367
     44 H6          0.8750   -1.9250   -4.2190 h4        1 I19      0.066100
     45 H4          4.6210    2.1600   -0.6570 hn        1 I19      0.480800
     46 H11         2.4630    5.1290   -0.5930 ha        1 I19      0.174500
     47 H15         4.2560    1.8630    1.7030 ha        1 I19      0.174500
     48 H12         1.9460    6.3090    1.5160 ha        1 I19      0.179000
     49 H14         3.7240    3.0750    3.8020 ha        1 I19      0.179000
     50 H171        0.0030    6.4960    2.7790 h1        1 I19      0.073700
     51 H172        0.1250    4.8110    3.4600 h1        1 I19      0.073700
     52 H201        2.0130    6.5370    6.3290 h1        1 I19      0.094200
     53 H202        1.5300    8.0310    5.3930 h1        1 I19      0.094200
     54 H181       -1.5440    5.3510    4.9900 hc        1 I19      0.086700
     55 H182       -1.5990    7.0350    4.3300 hc        1 I19      0.086700
     56 H19        -0.2050    5.9190    6.8070 hx        1 I19      0.118700
     57 H211       -2.7880    7.3890    6.1780 hx        1 I19      0.110867
     58 H212       -2.2110    6.9030    7.8500 hx        1 I19      0.110867
     59 H213       -2.6100    8.6570    7.4920 hx        1 I19      0.110867
     60 H221        1.0830    8.6210    7.5020 hx        1 I19      0.110867
     61 H222        0.0490    7.5770    8.6000 hx        1 I19      0.110867
     62 H223       -0.4330    9.3150    8.2680 hx        1 I19      0.110867
     63 H23        -0.3680    2.3510   -2.5370 h4        1 I19      0.078100
     64 H42         4.0570    3.4800   -1.5320 hn        1 I19      0.480800
     65 H61        -0.7650    8.7090    5.9550 hn        1 I19      0.452800
@<TRIPOS>BOND
     1    1    2 1   
     2    1   34 1   
     3    1   35 1   
     4    1   36 1   
     5    2    3 1   
     6    2    4 1   
     7    2   37 1   
     8    3   38 1   
     9    3   39 1   
    10    3   40 1   
    11    4    5 1   
    12    4    9 1   
    13    5    6 1   
    14    5    7 2   
    15    6   41 1   
    16    6   42 1   
    17    6   43 1   
    18    7    8 1   
    19    8    9 2   
    20    8   44 1   
    21    9   10 1   
    22   10   11 ar  
    23   10   32 ar  
    24   11   12 ar  
    25   12   13 1   
    26   12   30 ar  
    27   13   14 1   
    28   13   45 1   
    29   13   64 1   
    30   14   15 ar  
    31   14   19 ar  
    32   15   16 ar  
    33   15   46 1   
    34   16   17 ar  
    35   16   48 1   
    36   17   18 ar  
    37   17   20 1   
    38   18   19 ar  
    39   18   49 1   
    40   19   47 1   
    41   20   21 2   
    42   20   22 1   
    43   22   23 1   
    44   22   26 1   
    45   23   24 1   
    46   23   50 1   
    47   23   51 1   
    48   24   25 1   
    49   24   54 1   
    50   24   55 1   
    51   25   26 1   
    52   25   27 1   
    53   25   56 1   
    54   26   52 1   
    55   26   53 1   
    56   27   28 1   
    57   27   29 1   
    58   27   65 1   
    59   28   57 1   
    60   28   58 1   
    61   28   59 1   
    62   29   60 1   
    63   29   61 1   
    64   29   62 1   
    65   30   31 ar  
    66   31   32 ar  
    67   31   63 1   
    68   32   33 1   
@<TRIPOS>SUBSTRUCTURE
     1 I19         1 TEMP              0 ****  ****    0 ROOT
