@<TRIPOS>MOLECULE
I19
   63    66     1     0     0
SMALL
bcc


@<TRIPOS>ATOM
      1 C1          0.0570   30.6210   12.3670 c3        1 I19     -0.113600
      2 C2          0.1860   29.7940   11.0860 c3        1 I19      0.050000
      3 C3          1.1190   28.6090   11.3470 c3        1 I19     -0.113600
      4 N1         -1.0880   29.3980   10.5170 na        1 I19     -0.158900
      5 C4         -2.1770   28.8040   11.1820 cc        1 I19      0.422800
      6 C5         -2.1910   28.4220   12.6180 c3        1 I19     -0.126400
      7 N2         -3.2380   28.6350   10.3360 nd        1 I19     -0.674000
      8 C6         -2.8380   29.1310    9.1140 cd        1 I19      0.351200
      9 C7         -1.5050   29.6100    9.1910 cc        1 I19     -0.316100
     10 C8         -0.7330   30.1500    8.0810 ca        1 I19      0.548800
     11 N3          0.5640   29.7910    7.9210 nb        1 I19     -0.726000
     12 C9          1.2340   30.2920    6.8210 ca        1 I19      0.859900
     13 N4          2.6110   30.0170    6.6560 nh        1 I19     -0.703300
     14 C10         3.2250   28.8890    7.2480 ca        1 I19      0.148600
     15 C11         3.2650   28.7230    8.6470 ca        1 I19     -0.149500
     16 C12         3.9420   27.6430    9.2030 ca        1 I19     -0.079500
     17 C13         4.5920   26.7110    8.3880 ca        1 I19     -0.144600
     18 C14         4.5770   26.8800    7.0010 ca        1 I19     -0.079500
     19 C15         3.9010   27.9530    6.4310 ca        1 I19     -0.149500
     20 C16         5.3310   25.5940    9.0420 c         1 I19      0.664700
     21 O1          6.0600   25.8020   10.0330 o         1 I19     -0.592100
     22 N5          5.2490   24.3180    8.4890 n         1 I19     -0.449800
     23 C17         4.1250   23.8980    7.6700 c3        1 I19      0.078000
     24 C18         3.7860   22.4480    8.0420 c3        1 I19     -0.096400
     25 C19         5.0410   21.9070    8.7640 c3        1 I19      0.169500
     26 C20         5.7970   23.1910    9.2320 c3        1 I19      0.077000
     27 N6          4.7520   20.9790    9.8560 n3        1 I19     -0.725600
     28 C21         3.9340   19.8620    9.4320 c3        1 I19      0.151100
     29 C22         5.9500   20.5420   10.5420 c3        1 I19      0.151100
     30 N7          0.6630   31.1200    5.8540 nb        1 I19     -0.725000
     31 C23        -0.6120   31.4620    6.0400 ca        1 I19      0.437200
     32 C24        -1.3810   31.0110    7.1440 ca        1 I19     -0.149700
     33 F1         -2.6670   31.3950    7.2740 f         1 I19     -0.115900
     34 H11C        1.0460   31.0970   12.5760 hc        1 I19      0.050533
     35 H12C       -0.7090   31.4250   12.2590 hc        1 I19      0.050533
     36 H13C       -0.2150   29.9790   13.2380 hc        1 I19      0.050533
     37 H2          0.6880   30.4620   10.3210 h1        1 I19      0.079700
     38 H31C        1.3040   28.0340   10.4070 hc        1 I19      0.050533
     39 H32C        2.0950   29.0040   11.7200 hc        1 I19      0.050533
     40 H33C        0.6980   27.9180   12.1140 hc        1 I19      0.050533
     41 H51C       -1.2330   27.9260   12.9100 hc        1 I19      0.060033
     42 H52C       -2.3370   29.3360   13.2480 hc        1 I19      0.060033
     43 H53C       -3.0350   27.7150   12.8160 hc        1 I19      0.060033
     44 H6         -3.4950   29.1400    8.2440 h4        1 I19      0.050100
     45 H4          2.9600   30.2340    5.7410 hn        1 I19      0.440800
     46 H11         2.7670   29.4450    9.3140 ha        1 I19      0.147000
     47 H15         3.9040   28.0670    5.3360 ha        1 I19      0.147000
     48 H12         3.9820   27.5260   10.2990 ha        1 I19      0.149500
     49 H14         5.1050   26.1650    6.3500 ha        1 I19      0.149500
     50 H171        3.2350   24.5690    7.8140 h1        1 I19      0.050200
     51 H172        4.4340   23.9590    6.5880 h1        1 I19      0.050200
     52 H201        6.8900   23.1020    8.9920 h1        1 I19      0.066200
     53 H202        5.6920   23.3680   10.3390 h1        1 I19      0.066200
     54 H181        2.8870   22.4290    8.7070 hc        1 I19      0.060700
     55 H182        3.5630   21.8460    7.1300 hc        1 I19      0.060700
     56 H19         5.6920   21.3990    7.9870 h1        1 I19      0.027700
     57 H211        3.7060   19.2250   10.3270 h1        1 I19      0.034367
     58 H212        2.9670   20.2450    9.0130 h1        1 I19      0.034367
     59 H213        4.4300   19.2190    8.6540 h1        1 I19      0.034367
     60 H221        6.5070   21.4340   10.9280 h1        1 I19      0.034367
     61 H222        5.6490   19.9040   11.4150 h1        1 I19      0.034367
     62 H223        6.6430   19.9450    9.8860 h1        1 I19      0.034367
     63 H23        -1.0620   32.1260    5.2770 h4        1 I19      0.045100
@<TRIPOS>BOND
     1    1    2 1   
     2    1   34 1   
     3    1   35 1   
     4    1   36 1   
     5    2    3 1   
     6    2    4 1   
     7    2   37 1   
     8    3   38 1   
     9    3   39 1   
    10    3   40 1   
    11    4    5 1   
    12    4    9 1   
    13    5    6 1   
    14    5    7 2   
    15    6   41 1   
    16    6   42 1   
    17    6   43 1   
    18    7    8 1   
    19    8    9 2   
    20    8   44 1   
    21    9   10 1   
    22   10   11 ar  
    23   10   32 ar  
    24   11   12 ar  
    25   12   13 1   
    26   12   30 ar  
    27   13   14 1   
    28   13   45 1   
    29   14   15 ar  
    30   14   19 ar  
    31   15   16 ar  
    32   15   46 1   
    33   16   17 ar  
    34   16   48 1   
    35   17   18 ar  
    36   17   20 1   
    37   18   19 ar  
    38   18   49 1   
    39   19   47 1   
    40   20   21 2   
    41   20   22 1   
    42   22   23 1   
    43   22   26 1   
    44   23   24 1   
    45   23   50 1   
    46   23   51 1   
    47   24   25 1   
    48   24   54 1   
    49   24   55 1   
    50   25   26 1   
    51   25   27 1   
    52   25   56 1   
    53   26   52 1   
    54   26   53 1   
    55   27   28 1   
    56   27   29 1   
    57   28   57 1   
    58   28   58 1   
    59   28   59 1   
    60   29   60 1   
    61   29   61 1   
    62   29   62 1   
    63   30   31 ar  
    64   31   32 ar  
    65   31   63 1   
    66   32   33 1   
@<TRIPOS>SUBSTRUCTURE
     1 I19         1 TEMP              0 ****  ****    0 ROOT
