@<TRIPOS>MOLECULE
I19
   64    67     1     0     0
SMALL
bcc


@<TRIPOS>ATOM
      1 C1          0.4060   -2.4240   -2.6560 c3        1 I19     -0.111600
      2 C2          0.4760   -0.9860   -2.1430 c3        1 I19      0.047000
      3 C3         -0.9270   -0.3760   -2.1330 c3        1 I19     -0.111600
      4 N1          1.1730   -0.8590   -0.8750 na        1 I19     -0.165900
      5 C4          0.8410   -1.4400    0.3650 cc        1 I19      0.430800
      6 C5         -0.1930   -2.4900    0.5570 c3        1 I19     -0.128400
      7 N2          1.6360   -0.9540    1.3630 nd        1 I19     -0.692000
      8 C6          2.4880   -0.0430    0.7690 cd        1 I19      0.345200
      9 C7          2.2270    0.0340   -0.6180 cc        1 I19     -0.308100
     10 C8          2.9300    0.8720   -1.5820 ca        1 I19      0.539800
     11 N3          3.0650    2.1830   -1.2640 nb        1 I19     -0.722000
     12 C9          3.7820    2.9800   -2.1340 ca        1 I19      0.857900
     13 N4          3.8980    4.3640   -1.8610 nh        1 I19     -0.711300
     14 C10         3.6610    4.8800   -0.5720 ca        1 I19      0.177600
     15 C11         2.4210    4.6910    0.0790 ca        1 I19     -0.145500
     16 C12         2.2180    5.1990    1.3560 ca        1 I19     -0.071500
     17 C13         3.2250    5.9230    2.0020 ca        1 I19     -0.177600
     18 C14         4.4250    6.1890    1.3330 ca        1 I19     -0.071500
     19 C15         4.6500    5.6670    0.0650 ca        1 I19     -0.145500
     20 C16         3.0460    6.4500    3.3740 c         1 I19      0.676700
     21 O1          3.3510    7.6040    3.7160 o         1 I19     -0.554100
     22 N5          2.4510    5.5990    4.3370 n         1 I19     -0.475800
     23 C17         2.6050    4.1540    4.2560 c3        1 I19      0.062000
     24 C18         2.6670    3.6110    5.6940 c3        1 I19     -0.120400
     25 C19         2.1880    4.7700    6.5930 c3        1 I19      0.112500
     26 C20         2.4840    6.0310    5.7250 c3        1 I19      0.051000
     27 N6          0.7230    4.6930    6.9620 n4        1 I19     -0.678400
     28 C21         0.3380    3.3540    7.4810 c3        1 I19      0.080600
     29 C22         0.3830    5.7370    7.9670 c3        1 I19      0.080600
     30 N7          4.3800    2.5320   -3.3120 nb        1 I19     -0.707000
     31 C23         4.2310    1.2390   -3.5990 ca        1 I19      0.442200
     32 C24         3.5140    0.3360   -2.7640 ca        1 I19     -0.145700
     33 F1          3.4270   -0.9690   -3.0900 f         1 I19     -0.112900
     34 H11C       -0.0550   -2.4130   -3.6730 hc        1 I19      0.052533
     35 H12C        1.4300   -2.8650   -2.7340 hc        1 I19      0.052533
     36 H13C       -0.2160   -3.0660   -1.9890 hc        1 I19      0.052533
     37 H2          1.0910   -0.3940   -2.8930 h1        1 I19      0.070700
     38 H31C       -0.9050    0.6800   -1.7730 hc        1 I19      0.052533
     39 H32C       -1.3210   -0.3880   -3.1780 hc        1 I19      0.052533
     40 H33C       -1.6230   -0.9600   -1.4870 hc        1 I19      0.052533
     41 H51C       -1.1350   -2.2340    0.0130 hc        1 I19      0.062700
     42 H52C       -0.4280   -2.6020    1.6450 hc        1 I19      0.062700
     43 H53C        0.1930   -3.4700    0.1750 hc        1 I19      0.062700
     44 H6          3.2490    0.4960    1.3310 h4        1 I19      0.040100
     45 H4          4.6130    4.8340   -2.3830 hn        1 I19      0.452800
     46 H11         1.6060    4.1380   -0.4150 ha        1 I19      0.159500
     47 H15         5.6080    5.8770   -0.4380 ha        1 I19      0.159500
     48 H12         1.2460    5.0390    1.8470 ha        1 I19      0.146500
     49 H14         5.1950    6.8110    1.8180 ha        1 I19      0.146500
     50 H171        1.7150    3.7310    3.7110 h1        1 I19      0.077700
     51 H172        3.5270    3.8590    3.6820 h1        1 I19      0.077700
     52 H201        3.4970    6.4320    6.0180 h1        1 I19      0.088200
     53 H202        1.7440    6.8660    5.8560 h1        1 I19      0.088200
     54 H181        2.0820    2.6680    5.7900 hc        1 I19      0.090700
     55 H182        3.7270    3.3770    5.9760 hc        1 I19      0.090700
     56 H19         2.7630    4.8030    7.5590 hx        1 I19      0.113700
     57 H211       -0.6520    3.4300    8.0090 hx        1 I19      0.105533
     58 H212        0.2360    2.6280    6.6310 hx        1 I19      0.105533
     59 H213        1.1180    2.9900    8.2010 hx        1 I19      0.105533
     60 H221        0.8990    5.5040    8.9360 hx        1 I19      0.105533
     61 H222       -0.7290    5.7470    8.1260 hx        1 I19      0.105533
     62 H223        0.7130    6.7460    7.6010 hx        1 I19      0.105533
     63 H23         4.7090    0.8810   -4.5310 h4        1 I19      0.054100
     64 H61         0.1820    4.8790    6.1040 hn        1 I19      0.458800
@<TRIPOS>BOND
     1    1    2 1   
     2    1   34 1   
     3    1   35 1   
     4    1   36 1   
     5    2    3 1   
     6    2    4 1   
     7    2   37 1   
     8    3   38 1   
     9    3   39 1   
    10    3   40 1   
    11    4    5 1   
    12    4    9 1   
    13    5    6 1   
    14    5    7 2   
    15    6   41 1   
    16    6   42 1   
    17    6   43 1   
    18    7    8 1   
    19    8    9 2   
    20    8   44 1   
    21    9   10 1   
    22   10   11 ar  
    23   10   32 ar  
    24   11   12 ar  
    25   12   13 1   
    26   12   30 ar  
    27   13   14 1   
    28   13   45 1   
    29   14   15 ar  
    30   14   19 ar  
    31   15   16 ar  
    32   15   46 1   
    33   16   17 ar  
    34   16   48 1   
    35   17   18 ar  
    36   17   20 1   
    37   18   19 ar  
    38   18   49 1   
    39   19   47 1   
    40   20   21 2   
    41   20   22 1   
    42   22   23 1   
    43   22   26 1   
    44   23   24 1   
    45   23   50 1   
    46   23   51 1   
    47   24   25 1   
    48   24   54 1   
    49   24   55 1   
    50   25   26 1   
    51   25   27 1   
    52   25   56 1   
    53   26   52 1   
    54   26   53 1   
    55   27   28 1   
    56   27   29 1   
    57   27   64 1   
    58   28   57 1   
    59   28   58 1   
    60   28   59 1   
    61   29   60 1   
    62   29   61 1   
    63   29   62 1   
    64   30   31 ar  
    65   31   32 ar  
    66   31   63 1   
    67   32   33 1   
@<TRIPOS>SUBSTRUCTURE
     1 I19         1 TEMP              0 ****  ****    0 ROOT
