@<TRIPOS>MOLECULE
I19
   64    67     1     0     0
SMALL
bcc


@<TRIPOS>ATOM
      1 C1          0.3700   -2.4090   -2.6590 c3        1 I19     -0.111600
      2 C2          0.4530   -0.9710   -2.1460 c3        1 I19      0.047000
      3 C3         -0.9440   -0.3480   -2.1400 c3        1 I19     -0.111600
      4 N1          1.1470   -0.8510   -0.8770 na        1 I19     -0.165900
      5 C4          0.8070   -1.4280    0.3630 cc        1 I19      0.430800
      6 C5         -0.2380   -2.4680    0.5530 c3        1 I19     -0.128400
      7 N2          1.6050   -0.9500    1.3630 nd        1 I19     -0.692000
      8 C6          2.4660   -0.0470    0.7710 cd        1 I19      0.345200
      9 C7          2.2090    0.0320   -0.6170 cc        1 I19     -0.308100
     10 C8          2.9230    0.8640   -1.5790 ca        1 I19      0.539800
     11 N3          3.0700    2.1730   -1.2610 nb        1 I19     -0.722000
     12 C9          3.7960    2.9630   -2.1290 ca        1 I19      0.857900
     13 N4          3.9240    4.3460   -1.8570 nu        1 I19     -0.710300
     14 C10         3.6890    4.8650   -0.5680 ca        1 I19      0.177600
     15 C11         2.4450    4.6880    0.0800 ca        1 I19     -0.145500
     16 C12         2.2440    5.1970    1.3570 ca        1 I19     -0.071500
     17 C13         3.2560    5.9110    2.0060 ca        1 I19     -0.177600
     18 C14         4.4600    6.1650    1.3400 ca        1 I19     -0.071500
     19 C15         4.6840    5.6420    0.0720 ca        1 I19     -0.145500
     20 C16         3.0790    6.4390    3.3770 c         1 I19      0.676700
     21 O1          3.3930    7.5890    3.7200 o         1 I19     -0.554100
     22 N5          2.4730    5.5930    4.3380 n         1 I19     -0.476800
     23 C17         2.6140    4.1460    4.2560 c3        1 I19      0.062000
     24 C18         2.6670    3.6020    5.6950 c3        1 I19     -0.119400
     25 C19         2.1960    4.7650    6.5930 c3        1 I19      0.112500
     26 C20         2.5070    6.0230    5.7260 c3        1 I19      0.051000
     27 N6          0.7290    4.7020    6.9580 nx        1 I19     -0.678400
     28 C21         0.3300    3.3670    7.4750 c3        1 I19      0.080600
     29 C22         0.3970    5.7480    7.9620 c3        1 I19      0.080600
     30 N7          4.3930    2.5090   -3.3060 nb        1 I19     -0.707000
     31 C23         4.2320    1.2180   -3.5930 ca        1 I19      0.442200
     32 C24         3.5040    0.3230   -2.7600 ca        1 I19     -0.145700
     33 F1          3.4060   -0.9820   -3.0860 f         1 I19     -0.112900
     34 H11C        1.3900   -2.8590   -2.7340 hc        1 I19      0.052533
     35 H12C       -0.2600   -3.0440   -1.9930 hc        1 I19      0.052533
     36 H13C       -0.0890   -2.3940   -3.6770 hc        1 I19      0.052533
     37 H2          1.0750   -0.3860   -2.8940 h1        1 I19      0.070700
     38 H31C       -0.9130    0.7090   -1.7800 hc        1 I19      0.052533
     39 H32C       -1.3370   -0.3560   -3.1860 hc        1 I19      0.052533
     40 H33C       -1.6480   -0.9240   -1.4950 hc        1 I19      0.052533
     41 H51C       -0.4760   -2.5770    1.6400 hc        1 I19      0.062700
     42 H52C        0.1400   -3.4510    0.1730 hc        1 I19      0.062700
     43 H53C       -1.1760   -2.2030    0.0060 hc        1 I19      0.062700
     44 H6          3.2320    0.4860    1.3340 h4        1 I19      0.040100
     45 H4          4.6450    4.8100   -2.3760 hn        1 I19      0.452800
     46 H11         1.6260    4.1430   -0.4160 ha        1 I19      0.159500
     47 H15         5.6450    5.8420   -0.4280 ha        1 I19      0.159500
     48 H12         1.2690    5.0460    1.8450 ha        1 I19      0.146500
     49 H14         5.2350    6.7800    1.8270 ha        1 I19      0.146500
     50 H171        3.5350    3.8430    3.6850 h1        1 I19      0.077700
     51 H172        1.7220    3.7320    3.7090 h1        1 I19      0.077700
     52 H201        3.5230    6.4140    6.0230 h1        1 I19      0.088200
     53 H202        1.7750    6.8660    5.8560 h1        1 I19      0.088200
     54 H181        3.7240    3.3580    5.9790 hc        1 I19      0.090700
     55 H182        2.0720    2.6640    5.7880 hc        1 I19      0.090700
     56 H19         2.7690    4.7910    7.5610 hx        1 I19      0.113700
     57 H211        1.1050    2.9950    8.1970 hx        1 I19      0.105533
     58 H212        0.2250    2.6410    6.6250 hx        1 I19      0.105533
     59 H213       -0.6600    3.4510    8.0010 hx        1 I19      0.105533
     60 H221        0.7380    6.7540    7.5980 hx        1 I19      0.105533
     61 H222        0.9080    5.5110    8.9330 hx        1 I19      0.105533
     62 H223       -0.7160    5.7690    8.1180 hx        1 I19      0.105533
     63 H23         4.7090    0.8550   -4.5240 h4        1 I19      0.054100
     64 H61         0.1940    4.8930    6.0980 hn        1 I19      0.458800
@<TRIPOS>BOND
     1    1    2 1   
     2    1   34 1   
     3    1   35 1   
     4    1   36 1   
     5    2    3 1   
     6    2    4 1   
     7    2   37 1   
     8    3   38 1   
     9    3   39 1   
    10    3   40 1   
    11    4    5 1   
    12    4    9 1   
    13    5    6 1   
    14    5    7 2   
    15    6   41 1   
    16    6   42 1   
    17    6   43 1   
    18    7    8 1   
    19    8    9 2   
    20    8   44 1   
    21    9   10 1   
    22   10   11 ar  
    23   10   32 ar  
    24   11   12 ar  
    25   12   13 1   
    26   12   30 ar  
    27   13   14 1   
    28   13   45 1   
    29   14   15 ar  
    30   14   19 ar  
    31   15   16 ar  
    32   15   46 1   
    33   16   17 ar  
    34   16   48 1   
    35   17   18 ar  
    36   17   20 1   
    37   18   19 ar  
    38   18   49 1   
    39   19   47 1   
    40   20   21 2   
    41   20   22 1   
    42   22   23 1   
    43   22   26 1   
    44   23   24 1   
    45   23   50 1   
    46   23   51 1   
    47   24   25 1   
    48   24   54 1   
    49   24   55 1   
    50   25   26 1   
    51   25   27 1   
    52   25   56 1   
    53   26   52 1   
    54   26   53 1   
    55   27   28 1   
    56   27   29 1   
    57   27   64 1   
    58   28   57 1   
    59   28   58 1   
    60   28   59 1   
    61   29   60 1   
    62   29   61 1   
    63   29   62 1   
    64   30   31 ar  
    65   31   32 ar  
    66   31   63 1   
    67   32   33 1   
@<TRIPOS>SUBSTRUCTURE
     1 I19         1 TEMP              0 ****  ****    0 ROOT
