@<TRIPOS>MOLECULE
I1E
   20    20     1     0     0
SMALL
bcc


@<TRIPOS>ATOM
      1 C1         -0.0200    0.0030    0.0010 ca        1 I1E     -0.083000
      2 C2          1.3730    0.0020   -0.0180 ca        1 I1E     -0.145000
      3 C3          2.0910    0.0000    1.1780 ca        1 I1E     -0.102000
      4 C4          1.4130   -0.0010    2.3970 ca        1 I1E     -0.145000
      5 C5          0.0190    0.0000    2.4180 ca        1 I1E     -0.083000
      6 C6         -0.7090    0.0020    1.2190 ca        1 I1E     -0.176600
      7 C7         -2.1880    0.0030    1.2890 c         1 I1E      0.575700
      8 O7         -2.7790   -0.0000    2.3770 o         1 I1E     -0.535100
      9 C8         -2.9330    0.0090   -0.0180 c3        1 I1E     -0.176400
     10 C9         -4.4280    0.0120    0.1670 c3        1 I1E     -0.088100
     11 H1         -0.5700    0.0050   -0.9530 ha        1 I1E      0.145000
     12 H2          1.9070    0.0030   -0.9800 ha        1 I1E      0.136500
     13 H3          3.1920   -0.0000    1.1600 ha        1 I1E      0.135000
     14 H4          1.9750   -0.0020    3.3420 ha        1 I1E      0.136500
     15 H5         -0.5270   -0.0000    3.3760 ha        1 I1E      0.145000
     16 H8         -2.6230   -0.8970   -0.6050 hc        1 I1E      0.064700
     17 H7         -2.6190    0.9170   -0.6000 hc        1 I1E      0.064700
     18 H9         -4.7480    0.9140    0.7420 hc        1 I1E      0.043367
     19 H9A        -4.9380    0.0150   -0.8260 hc        1 I1E      0.043367
     20 H10        -4.7530   -0.8920    0.7380 hc        1 I1E      0.043367
@<TRIPOS>BOND
     1    1    2 ar  
     2    1    6 ar  
     3    1   11 1   
     4    2    3 ar  
     5    2   12 1   
     6    3    4 ar  
     7    3   13 1   
     8    4    5 ar  
     9    4   14 1   
    10    5    6 ar  
    11    5   15 1   
    12    6    7 1   
    13    7    8 2   
    14    7    9 1   
    15    9   10 1   
    16    9   16 1   
    17    9   17 1   
    18   10   18 1   
    19   10   19 1   
    20   10   20 1   
@<TRIPOS>SUBSTRUCTURE
     1 I1E         1 TEMP              0 ****  ****    0 ROOT
