@<TRIPOS>MOLECULE
I1E
   20    20     1     0     0
SMALL
bcc


@<TRIPOS>ATOM
      1 C1         -0.7510    1.1830    0.0010 ca        1 I1E     -0.083000
      2 C2         -2.1320    1.3740    0.0000 ca        1 I1E     -0.145000
      3 C3         -2.9930    0.2760   -0.0020 ca        1 I1E     -0.102000
      4 C4         -2.4700   -1.0170   -0.0020 ca        1 I1E     -0.145000
      5 C5         -1.0910   -1.2110   -0.0000 ca        1 I1E     -0.083000
      6 C6         -0.2190   -0.1120    0.0010 ca        1 I1E     -0.176600
      7 C7          1.2400   -0.3640    0.0030 c         1 I1E      0.575700
      8 O7          1.6910   -1.5170    0.0060 o         1 I1E     -0.535100
      9 C8          2.1410    0.8410   -0.0010 c3        1 I1E     -0.176400
     10 C9          3.6010    0.4710   -0.0020 c3        1 I1E     -0.088100
     11 H1         -0.0880    2.0610    0.0030 ha        1 I1E      0.145000
     12 H2         -2.5430    2.3950    0.0000 ha        1 I1E      0.136500
     13 H3         -4.0820    0.4310   -0.0030 ha        1 I1E      0.135000
     14 H4         -3.1460   -1.8850   -0.0030 ha        1 I1E      0.136500
     15 H5         -0.6680   -2.2290   -0.0000 ha        1 I1E      0.145000
     16 H8          1.9030    1.4580   -0.9080 hc        1 I1E      0.064700
     17 H7          1.9050    1.4600    0.9060 hc        1 I1E      0.064700
     18 H9          4.2310    1.3930   -0.0040 hc        1 I1E      0.043367
     19 H9A         3.8520   -0.1360    0.9010 hc        1 I1E      0.043367
     20 H10         3.8490   -0.1380   -0.9050 hc        1 I1E      0.043367
@<TRIPOS>BOND
     1    1    2 ar  
     2    1    6 ar  
     3    1   11 1   
     4    2    3 ar  
     5    2   12 1   
     6    3    4 ar  
     7    3   13 1   
     8    4    5 ar  
     9    4   14 1   
    10    5    6 ar  
    11    5   15 1   
    12    6    7 1   
    13    7    8 2   
    14    7    9 1   
    15    9   10 1   
    16    9   16 1   
    17    9   17 1   
    18   10   18 1   
    19   10   19 1   
    20   10   20 1   
@<TRIPOS>SUBSTRUCTURE
     1 I1E         1 TEMP              0 ****  ****    0 ROOT
