@<TRIPOS>MOLECULE
I1E
   20    17     1     0     0
SMALL
bcc


@<TRIPOS>ATOM
      1 C1          1.1190    0.0660   -0.7880 c1        1 I1E     -0.034500
      2 C2          2.5030    0.1250   -0.7670 c1        1 I1E     -0.059000
      3 C3          3.1790    0.1320    0.4430 c1        1 I1E     -0.059000
      4 C4          2.4690    0.0790    1.6330 c1        1 I1E     -0.059000
      5 C5          1.0850    0.0210    1.6120 c1        1 I1E     -0.059000
      6 C6          0.4090    0.0140    0.4020 cg        1 I1E     -0.125200
      7 C7         -1.1010   -0.0760    0.3790 c         1 I1E      0.524300
      8 O7         -1.7220   -0.1220    1.4210 o         1 I1E     -0.534100
      9 C8         -1.8340   -0.1510   -0.9430 c3        1 I1E     -0.176400
     10 C9         -3.3240   -0.0510   -0.7000 c3        1 I1E     -0.088100
     11 H1          0.6430    0.0620   -1.6400 ha        1 I1E      0.076500
     12 H2          3.0030    0.1620   -1.6050 ha        1 I1E      0.083500
     13 H3          4.1540    0.1730    0.4580 ha        1 I1E      0.083500
     14 H4          2.9450    0.0840    2.4850 ha        1 I1E      0.083500
     15 H5          0.5850   -0.0160    2.4500 ha        1 I1E      0.083500
     16 H8         -1.5470    0.5870   -1.5170 hc        1 I1E      0.064700
     17 H7         -1.6310   -1.0020   -1.3800 hc        1 I1E      0.064700
     18 H9         -3.7960   -0.0610   -1.5580 hc        1 I1E      0.043700
     19 H9A        -3.5220    0.7840   -0.2270 hc        1 I1E      0.043700
     20 H10        -3.6170   -0.8120   -0.1560 hc        1 I1E      0.043700
@<TRIPOS>BOND
     1    1    6 3   
     2    1   11 1   
     3    2    3 3   
     4    2   12 1   
     5    3   13 1   
     6    4    5 3   
     7    4   14 1   
     8    5   15 1   
     9    6    7 1   
    10    7    8 2   
    11    7    9 1   
    12    9   10 1   
    13    9   16 1   
    14    9   17 1   
    15   10   18 1   
    16   10   19 1   
    17   10   20 1   
@<TRIPOS>SUBSTRUCTURE
     1 I1E         1 TEMP              0 ****  ****    0 ROOT
