@<TRIPOS>MOLECULE
I1H
   65    68     1     0     0
SMALL
bcc


@<TRIPOS>ATOM
      1 C1          0.2280   -0.1110   -0.0750 ca        1 I1H      0.196100
      2 C2          1.6430   -0.1330    0.1520 ca        1 I1H      0.117100
      3 C3          2.1300   -0.3330    1.4360 ca        1 I1H     -0.116000
      4 C4          1.2320   -0.5010    2.5160 ca        1 I1H     -0.220600
      5 C5         -0.1480   -0.4840    2.2890 ca        1 I1H     -0.071000
      6 C6         -0.6460   -0.2920    1.0040 ca        1 I1H     -0.202000
      7 O7         -0.1500    0.0880   -1.3670 os        1 I1H     -0.271900
      8 O8          2.4080    0.0460   -0.9700 os        1 I1H     -0.291900
      9 C9          3.8340    0.0690   -0.7700 c3        1 I1H      0.124400
     10 C10         4.4200    0.3720   -2.1430 c3        1 I1H     -0.039100
     11 C13         5.9070    0.3720   -2.0850 ca        1 I1H     -0.091300
     12 C16         6.6110   -0.7500   -2.5420 ca        1 I1H     -0.107000
     13 C17         8.0010   -0.7820   -2.5290 ca        1 I1H     -0.119000
     14 C18         8.7130    0.3240   -2.0530 ca        1 I1H      0.029400
     15 C19         8.0350    1.4570   -1.5950 ca        1 I1H     -0.118000
     16 C20         6.6370    1.4740   -1.6130 ca        1 I1H      0.027400
     17 Cl21        5.8480    2.8740   -1.0490 cl        1 I1H     -0.089400
     18 Cl22       10.4070    0.2960   -2.0320 cl        1 I1H     -0.062400
     19 C23         1.8420   -0.7080    3.8220 c         1 I1H      0.578700
     20 N24         0.9150   -0.5560    5.0240 ny        1 I1H     -0.676800
     21 C25         1.6420   -0.4560    6.3210 c3        1 I1H      0.103800
     22 C26         0.7040   -0.3500    7.5250 c3        1 I1H     -0.090700
     23 C29         1.5590   -0.4030    8.7870 c3        1 I1H     -0.086400
     24 C30         0.6990   -0.2080   10.0370 c3        1 I1H      0.189800
     25 N31        -0.0890    1.0100    9.9730 nh        1 I1H     -0.643000
     26 C32        -0.9210    1.0910    8.7850 c3        1 I1H      0.189800
     27 C33        -0.1080    0.9340    7.4970 c3        1 I1H     -0.086400
     28 C43        -0.7100    1.4250   11.1800 ca        1 I1H      0.156600
     29 C44        -1.2420    2.7320   11.2830 ca        1 I1H     -0.282800
     30 C45        -1.7820    3.1480   12.5080 ca        1 I1H      0.420200
     31 N46        -1.8300    2.3770   13.6120 nb        1 I1H     -0.663000
     32 C47        -1.3220    1.1360   13.5090 ca        1 I1H      0.420200
     33 C48        -0.7620    0.6110   12.3320 ca        1 I1H     -0.282800
     34 O52         3.0070   -0.9740    4.0880 o         1 I1H     -0.434100
     35 C7         -1.5540    0.1080   -1.6390 c3        1 I1H      0.099700
     36 H3          3.2160   -0.3660    1.6310 ha        1 I1H      0.176000
     37 H5         -0.8760   -0.6380    3.0990 ha        1 I1H      0.123000
     38 H6         -1.7350   -0.2860    0.8410 ha        1 I1H      0.167000
     39 H9C1        4.1680   -0.9330   -0.3950 h1        1 I1H      0.051700
     40 H9C2        4.0980    0.8700   -0.0320 h1        1 I1H      0.051700
     41 H101        4.0400    1.3690   -2.4970 hc        1 I1H      0.079700
     42 H102        4.0570   -0.3980   -2.8750 hc        1 I1H      0.079700
     43 H16         6.0530   -1.6190   -2.9270 ha        1 I1H      0.145000
     44 H17         8.5370   -1.6720   -2.8970 ha        1 I1H      0.159000
     45 H19         8.5970    2.3320   -1.2290 ha        1 I1H      0.168000
     46 H24         0.3450    0.2870    4.8900 hn        1 I1H      0.453800
     47 H251        2.3130    0.4490    6.2690 hx        1 I1H      0.115200
     48 H252        2.2960   -1.3720    6.4220 hx        1 I1H      0.115200
     49 H26        -0.0000   -1.2300    7.5380 hc        1 I1H      0.065700
     50 H291        2.3480    0.3920    8.7420 hc        1 I1H      0.056700
     51 H292        2.0700   -1.3980    8.8630 hc        1 I1H      0.056700
     52 H301        0.0460   -1.1210   10.1690 h1        1 I1H      0.054450
     53 H302        1.3850   -0.1360   10.9280 h1        1 I1H      0.054450
     54 H321       -1.7260    0.2980    8.7940 h1        1 I1H      0.054450
     55 H322       -1.4280    2.0970    8.7670 h1        1 I1H      0.054450
     56 H331        0.5760    1.8150    7.3730 hc        1 I1H      0.056700
     57 H332       -0.8320    0.9300    6.6410 hc        1 I1H      0.056700
     58 H44        -1.2220    3.4300   10.4350 ha        1 I1H      0.144000
     59 H45        -2.2020    4.1660   12.6160 h4        1 I1H      0.031100
     60 H47        -1.3690    0.5200   14.4270 h4        1 I1H      0.031100
     61 H48        -0.3780   -0.4170   12.3380 ha        1 I1H      0.144000
     62 H7C1       -2.0160   -0.8740   -1.3760 h1        1 I1H      0.065367
     63 H7C2       -1.5870    0.2820   -2.7460 h1        1 I1H      0.065367
     64 H7C3       -2.0460    0.9460   -1.0900 h1        1 I1H      0.065367
     65 H242        0.2850   -1.3650    5.0500 hn        1 I1H      0.453800
@<TRIPOS>BOND
     1    1    2 ar  
     2    1    6 ar  
     3    1    7 1   
     4    2    3 ar  
     5    2    8 1   
     6    3    4 ar  
     7    3   36 1   
     8    4    5 ar  
     9    4   19 1   
    10    5    6 ar  
    11    5   37 1   
    12    6   38 1   
    13    7   35 1   
    14    8    9 1   
    15    9   10 1   
    16    9   39 1   
    17    9   40 1   
    18   10   11 1   
    19   10   41 1   
    20   10   42 1   
    21   11   12 ar  
    22   11   16 ar  
    23   12   13 ar  
    24   12   43 1   
    25   13   14 ar  
    26   13   44 1   
    27   14   15 ar  
    28   14   18 1   
    29   15   16 ar  
    30   15   45 1   
    31   16   17 1   
    32   19   20 1   
    33   19   34 2   
    34   20   21 1   
    35   20   46 1   
    36   20   65 1   
    37   21   22 1   
    38   21   47 1   
    39   21   48 1   
    40   22   23 1   
    41   22   27 1   
    42   22   49 1   
    43   23   24 1   
    44   23   50 1   
    45   23   51 1   
    46   24   25 1   
    47   24   52 1   
    48   24   53 1   
    49   25   26 1   
    50   25   28 1   
    51   26   27 1   
    52   26   54 1   
    53   26   55 1   
    54   27   56 1   
    55   27   57 1   
    56   28   29 ar  
    57   28   33 ar  
    58   29   30 ar  
    59   29   58 1   
    60   30   31 ar  
    61   30   59 1   
    62   31   32 ar  
    63   32   33 ar  
    64   32   60 1   
    65   33   61 1   
    66   35   62 1   
    67   35   63 1   
    68   35   64 1   
@<TRIPOS>SUBSTRUCTURE
     1 I1H         1 TEMP              0 ****  ****    0 ROOT
