@<TRIPOS>MOLECULE
I1H
   64    67     1     0     0
SMALL
bcc


@<TRIPOS>ATOM
      1 C1         -1.5620    3.6630    0.5420 ca        1 I1H      0.125100
      2 C2         -2.1160    2.3520    0.5130 ca        1 I1H      0.099100
      3 C3         -1.2780    1.2440    0.6060 ca        1 I1H     -0.130000
      4 C4          0.1080    1.4250    0.7340 ca        1 I1H     -0.141600
      5 C5          0.6500    2.7080    0.7530 ca        1 I1H     -0.102000
      6 C6         -0.1810    3.8260    0.6580 ca        1 I1H     -0.192000
      7 O7         -2.4730    4.6910    0.4480 os        1 I1H     -0.299900
      8 O8         -3.4910    2.2970    0.4180 os        1 I1H     -0.310900
      9 C9         -4.0370    0.9990    0.1370 c3        1 I1H      0.127400
     10 C10        -5.5180    1.2390   -0.1260 c3        1 I1H     -0.045100
     11 C13        -6.2430   -0.0500   -0.2830 ca        1 I1H     -0.073300
     12 C16        -6.9260   -0.5890    0.8150 ca        1 I1H     -0.110000
     13 C17        -7.6320   -1.7830    0.7120 ca        1 I1H     -0.123000
     14 C18        -7.6620   -2.4600   -0.5120 ca        1 I1H      0.023400
     15 C19        -6.9900   -1.9460   -1.6230 ca        1 I1H     -0.120000
     16 C20        -6.2830   -0.7450   -1.5020 ca        1 I1H      0.027400
     17 CL21       -5.4760   -0.1530   -2.8780 cl        1 I1H     -0.081400
     18 CL22       -8.5220   -3.9180   -0.6510 cl        1 I1H     -0.083400
     19 C23         0.9550    0.2000    0.8150 c         1 I1H      0.674700
     20 N24         2.0430    0.2370    1.6660 n         1 I1H     -0.569900
     21 C25         2.9710   -0.8500    1.7900 c3        1 I1H      0.091000
     22 C26         4.4080   -0.5200    1.3540 c3        1 I1H     -0.088700
     23 C29         5.3300   -1.6470    1.7890 c3        1 I1H     -0.079400
     24 C30         6.7650   -1.3950    1.3270 c3        1 I1H      0.193300
     25 N31         6.8680   -1.1290   -0.0980 nh        1 I1H     -0.643000
     26 C32         5.9520   -0.1080   -0.5830 c3        1 I1H      0.193300
     27 C33         4.5050   -0.3440   -0.1510 c3        1 I1H     -0.079400
     28 C43         8.1680   -1.1100   -0.6440 ca        1 I1H      0.184600
     29 C44         8.3570   -1.0440   -2.0480 ca        1 I1H     -0.296800
     30 C45         9.6580   -1.1140   -2.5640 ca        1 I1H      0.414700
     31 N46        10.7670   -1.2450   -1.8100 nb        1 I1H     -0.688000
     32 C47        10.5850   -1.3080   -0.4790 ca        1 I1H      0.414700
     33 C48         9.3330   -1.2400    0.1500 ca        1 I1H     -0.296800
     34 O52         0.6670   -0.8340    0.1770 o         1 I1H     -0.606100
     35 C7         -1.9340    6.0090    0.4650 c3        1 I1H      0.108700
     36 H3         -1.6770    0.2180    0.5670 ha        1 I1H      0.165000
     37 H5          1.7370    2.8630    0.8240 ha        1 I1H      0.133000
     38 H6          0.2640    4.8320    0.6710 ha        1 I1H      0.143000
     39 H9C1       -3.5330    0.5530   -0.7600 h1        1 I1H      0.050200
     40 H9C2       -3.8870    0.3360    1.0300 h1        1 I1H      0.050200
     41 H101       -5.9490    1.8250    0.7300 hc        1 I1H      0.073700
     42 H102       -5.6310    1.8720   -1.0470 hc        1 I1H      0.073700
     43 H16        -6.9040   -0.0540    1.7780 ha        1 I1H      0.145000
     44 H17        -8.1630   -2.1900    1.5860 ha        1 I1H      0.152000
     45 H19        -7.0140   -2.4810   -2.5860 ha        1 I1H      0.163000
     46 H24         2.2700    1.0870    2.1220 hn        1 I1H      0.308500
     47 H251        3.0000   -1.1610    2.8760 h1        1 I1H      0.064200
     48 H252        2.5950   -1.7240    1.1840 h1        1 I1H      0.064200
     49 H26         4.7430    0.4310    1.8540 hc        1 I1H      0.044700
     50 H291        5.3350   -1.7340    2.9060 hc        1 I1H      0.056700
     51 H292        4.9600   -2.6180    1.3690 hc        1 I1H      0.056700
     52 H301        7.1900   -0.5380    1.9300 h1        1 I1H      0.039700
     53 H302        7.3730   -2.3170    1.5530 h1        1 I1H      0.039700
     54 H321        6.2730    0.9130   -0.2200 h1        1 I1H      0.039700
     55 H322        5.9860   -0.0980   -1.7080 h1        1 I1H      0.039700
     56 H331        4.0950   -1.2520   -0.6640 hc        1 I1H      0.056700
     57 H332        3.8970    0.5380   -0.4800 hc        1 I1H      0.056700
     58 H44         7.5090   -0.9590   -2.7400 ha        1 I1H      0.143500
     59 H45         9.8250   -1.0670   -3.6560 h4        1 I1H      0.019100
     60 H47        11.5040   -1.4150    0.1260 h4        1 I1H      0.019100
     61 H48         9.2850   -1.2880    1.2460 ha        1 I1H      0.143500
     62 H7C1       -1.4010    6.2050    1.4270 h1        1 I1H      0.047033
     63 H7C2       -1.2490    6.1680   -0.4030 h1        1 I1H      0.047033
     64 H7C3       -2.8420    6.6580    0.3760 h1        1 I1H      0.047033
@<TRIPOS>BOND
     1    1    2 ar  
     2    1    6 ar  
     3    1    7 1   
     4    2    3 ar  
     5    2    8 1   
     6    3    4 ar  
     7    3   36 1   
     8    4    5 ar  
     9    4   19 1   
    10    5    6 ar  
    11    5   37 1   
    12    6   38 1   
    13    7   35 1   
    14    8    9 1   
    15    9   10 1   
    16    9   39 1   
    17    9   40 1   
    18   10   11 1   
    19   10   41 1   
    20   10   42 1   
    21   11   12 ar  
    22   11   16 ar  
    23   12   13 ar  
    24   12   43 1   
    25   13   14 ar  
    26   13   44 1   
    27   14   15 ar  
    28   14   18 1   
    29   15   16 ar  
    30   15   45 1   
    31   16   17 1   
    32   19   20 1   
    33   19   34 2   
    34   20   21 1   
    35   20   46 1   
    36   21   22 1   
    37   21   47 1   
    38   21   48 1   
    39   22   23 1   
    40   22   27 1   
    41   22   49 1   
    42   23   24 1   
    43   23   50 1   
    44   23   51 1   
    45   24   25 1   
    46   24   52 1   
    47   24   53 1   
    48   25   26 1   
    49   25   28 1   
    50   26   27 1   
    51   26   54 1   
    52   26   55 1   
    53   27   56 1   
    54   27   57 1   
    55   28   29 ar  
    56   28   33 ar  
    57   29   30 ar  
    58   29   58 1   
    59   30   31 ar  
    60   30   59 1   
    61   31   32 ar  
    62   32   33 ar  
    63   32   60 1   
    64   33   61 1   
    65   35   62 1   
    66   35   63 1   
    67   35   64 1   
@<TRIPOS>SUBSTRUCTURE
     1 I1H         1 TEMP              0 ****  ****    0 ROOT
