@<TRIPOS>MOLECULE
I1H
   65    68     1     0     0
SMALL
bcc


@<TRIPOS>ATOM
      1 C1          0.2390   -0.0950   -0.0800 ca        1 I1H      0.196100
      2 C2          1.6530   -0.1250    0.1500 ca        1 I1H      0.117100
      3 C3          2.1350   -0.3290    1.4360 ca        1 I1H     -0.116000
      4 C4          1.2340   -0.4930    2.5140 ca        1 I1H     -0.220600
      5 C5         -0.1460   -0.4680    2.2830 ca        1 I1H     -0.071000
      6 C6         -0.6390   -0.2720    0.9970 ca        1 I1H     -0.202000
      7 O7         -0.1340    0.1080   -1.3730 os        1 I1H     -0.271900
      8 O8          2.4210    0.0510   -0.9700 os        1 I1H     -0.291900
      9 C9          3.8470    0.0660   -0.7660 c3        1 I1H      0.124400
     10 C10         4.4390    0.3680   -2.1360 c3        1 I1H     -0.039100
     11 C13         5.9250    0.3620   -2.0740 ca        1 I1H     -0.091300
     12 C16         6.6260   -0.7630   -2.5290 ca        1 I1H     -0.107000
     13 C17         8.0160   -0.8020   -2.5120 ca        1 I1H     -0.119000
     14 C18         8.7310    0.3020   -2.0330 ca        1 I1H      0.029400
     15 C19         8.0570    1.4370   -1.5770 ca        1 I1H     -0.118000
     16 C20         6.6590    1.4600   -1.5990 ca        1 I1H      0.027400
     17 CL21        5.8740    2.8630   -1.0380 cl        1 I1H     -0.089400
     18 CL22       10.4250    0.2660   -2.0070 cl        1 I1H     -0.062400
     19 C23         1.8390   -0.7050    3.8200 c         1 I1H      0.578700
     20 N24         0.9090   -0.5510    5.0200 n4        1 I1H     -0.676800
     21 C25         1.6330   -0.4570    6.3200 c3        1 I1H      0.103800
     22 C26         0.6920   -0.3500    7.5210 c3        1 I1H     -0.090700
     23 C29         1.5430   -0.4080    8.7850 c3        1 I1H     -0.086400
     24 C30         0.6810   -0.2130   10.0330 c3        1 I1H      0.189800
     25 N31        -0.1030    1.0080    9.9700 nh        1 I1H     -0.643000
     26 C32        -0.9330    1.0930    8.7800 c3        1 I1H      0.189800
     27 C33        -0.1170    0.9360    7.4930 c3        1 I1H     -0.086400
     28 C43        -0.7270    1.4220   11.1760 ca        1 I1H      0.156600
     29 C44        -1.2550    2.7310   11.2790 ca        1 I1H     -0.282800
     30 C45        -1.7980    3.1450   12.5040 ca        1 I1H      0.420200
     31 N46        -1.8510    2.3730   13.6070 nb        1 I1H     -0.663000
     32 C47        -1.3460    1.1300   13.5030 ca        1 I1H      0.420200
     33 C48        -0.7850    0.6060   12.3260 ca        1 I1H     -0.282800
     34 O52         3.0010   -0.9770    4.0900 o         1 I1H     -0.434100
     35 C7         -1.5380    0.1370   -1.6490 c3        1 I1H      0.099700
     36 H3          3.2200   -0.3680    1.6330 ha        1 I1H      0.176000
     37 H5         -0.8770   -0.6190    3.0900 ha        1 I1H      0.123000
     38 H6         -1.7280   -0.2590    0.8300 ha        1 I1H      0.167000
     39 H9C1        4.1750   -0.9380   -0.3900 h1        1 I1H      0.051700
     40 H9C2        4.1130    0.8650   -0.0260 h1        1 I1H      0.051700
     41 H101        4.0640    1.3660   -2.4910 hc        1 I1H      0.079700
     42 H102        4.0750   -0.4000   -2.8700 hc        1 I1H      0.079700
     43 H16         6.0660   -1.6300   -2.9150 ha        1 I1H      0.145000
     44 H17         8.5490   -1.6940   -2.8780 ha        1 I1H      0.159000
     45 H19         8.6210    2.3100   -1.2090 ha        1 I1H      0.168000
     46 H24         0.3430    0.2940    4.8860 hn        1 I1H      0.453800
     47 H251        2.3070    0.4460    6.2710 hx        1 I1H      0.115200
     48 H252        2.2830   -1.3740    6.4200 hx        1 I1H      0.115200
     49 H26        -0.0150   -1.2280    7.5300 hc        1 I1H      0.065700
     50 H291        2.0510   -1.4040    8.8610 hc        1 I1H      0.056700
     51 H292        2.3350    0.3850    8.7440 hc        1 I1H      0.056700
     52 H301        1.3650   -0.1440   10.9260 h1        1 I1H      0.054450
     53 H302        0.0250   -1.1240   10.1610 h1        1 I1H      0.054450
     54 H321       -1.7400    0.3020    8.7860 h1        1 I1H      0.054450
     55 H322       -1.4370    2.1000    8.7620 h1        1 I1H      0.054450
     56 H331        0.5700    1.8150    7.3730 hc        1 I1H      0.056700
     57 H332       -0.8390    0.9350    6.6360 hc        1 I1H      0.056700
     58 H44        -1.2310    3.4300   10.4330 ha        1 I1H      0.144000
     59 H45        -2.2140    4.1640   12.6130 h4        1 I1H      0.031100
     60 H47        -1.3970    0.5130   14.4190 h4        1 I1H      0.031100
     61 H48        -0.4030   -0.4240   12.3310 ha        1 I1H      0.144000
     62 H7C1       -2.0270    0.9770   -1.1000 h1        1 I1H      0.065367
     63 H7C2       -2.0070   -0.8430   -1.3880 h1        1 I1H      0.065367
     64 H7C3       -1.5670    0.3120   -2.7560 h1        1 I1H      0.065367
     65 H242        0.2760   -1.3580    5.0430 hn        1 I1H      0.453800
@<TRIPOS>BOND
     1    1    2 ar  
     2    1    6 ar  
     3    1    7 1   
     4    2    3 ar  
     5    2    8 1   
     6    3    4 ar  
     7    3   36 1   
     8    4    5 ar  
     9    4   19 1   
    10    5    6 ar  
    11    5   37 1   
    12    6   38 1   
    13    7   35 1   
    14    8    9 1   
    15    9   10 1   
    16    9   39 1   
    17    9   40 1   
    18   10   11 1   
    19   10   41 1   
    20   10   42 1   
    21   11   12 ar  
    22   11   16 ar  
    23   12   13 ar  
    24   12   43 1   
    25   13   14 ar  
    26   13   44 1   
    27   14   15 ar  
    28   14   18 1   
    29   15   16 ar  
    30   15   45 1   
    31   16   17 1   
    32   19   20 1   
    33   19   34 2   
    34   20   21 1   
    35   20   46 1   
    36   20   65 1   
    37   21   22 1   
    38   21   47 1   
    39   21   48 1   
    40   22   23 1   
    41   22   27 1   
    42   22   49 1   
    43   23   24 1   
    44   23   50 1   
    45   23   51 1   
    46   24   25 1   
    47   24   52 1   
    48   24   53 1   
    49   25   26 1   
    50   25   28 1   
    51   26   27 1   
    52   26   54 1   
    53   26   55 1   
    54   27   56 1   
    55   27   57 1   
    56   28   29 ar  
    57   28   33 ar  
    58   29   30 ar  
    59   29   58 1   
    60   30   31 ar  
    61   30   59 1   
    62   31   32 ar  
    63   32   33 ar  
    64   32   60 1   
    65   33   61 1   
    66   35   62 1   
    67   35   63 1   
    68   35   64 1   
@<TRIPOS>SUBSTRUCTURE
     1 I1H         1 TEMP              0 ****  ****    0 ROOT
