@<TRIPOS>MOLECULE
I1H
   65    68     1     0     0
SMALL
bcc


@<TRIPOS>ATOM
      1 C1          0.2300   -0.0980   -0.0770 ca        1 I1H      0.196100
      2 C2          1.6450   -0.1280    0.1520 ca        1 I1H      0.117100
      3 C3          2.1280   -0.3370    1.4360 ca        1 I1H     -0.116000
      4 C4          1.2280   -0.5070    2.5140 ca        1 I1H     -0.220600
      5 C5         -0.1520   -0.4810    2.2840 ca        1 I1H     -0.071000
      6 C6         -0.6470   -0.2800    1.0000 ca        1 I1H     -0.202000
      7 O7         -0.1440    0.1110   -1.3690 os        1 I1H     -0.271900
      8 O8          2.4120    0.0540   -0.9680 os        1 I1H     -0.291900
      9 C9          3.8380    0.0690   -0.7650 c3        1 I1H      0.124400
     10 C10         4.4280    0.3770   -2.1350 c3        1 I1H     -0.039100
     11 C13         5.9150    0.3710   -2.0750 ca        1 I1H     -0.091300
     12 C16         6.6140   -0.7520   -2.5370 ca        1 I1H     -0.107000
     13 C17         8.0050   -0.7910   -2.5220 ca        1 I1H     -0.119000
     14 C18         8.7200    0.3100   -2.0380 ca        1 I1H      0.029400
     15 C19         8.0470    1.4430   -1.5750 ca        1 I1H     -0.118000
     16 C20         6.6490    1.4660   -1.5940 ca        1 I1H      0.027400
     17 CL21        5.8650    2.8660   -1.0240 cl        1 I1H     -0.089400
     18 CL22       10.4150    0.2740   -2.0140 cl        1 I1H     -0.062400
     19 C23         1.8340   -0.7240    3.8190 c         1 I1H      0.578700
     20 N24         0.9070   -0.5660    5.0200 n4        1 I1H     -0.676800
     21 C25         1.6330   -0.4700    6.3190 c3        1 I1H      0.103800
     22 C26         0.6950   -0.3580    7.5220 c3        1 I1H     -0.090700
     23 C29         1.5490   -0.4150    8.7840 c3        1 I1H     -0.086400
     24 C30         0.6900   -0.2140   10.0330 c3        1 I1H      0.189800
     25 N31        -0.0910    1.0090    9.9680 nh        1 I1H     -0.643000
     26 C32        -0.9230    1.0940    8.7800 c3        1 I1H      0.189800
     27 C33        -0.1100    0.9310    7.4920 c3        1 I1H     -0.086400
     28 C43        -0.7100    1.4280   11.1750 ca        1 I1H      0.156600
     29 C44        -1.2340    2.7390   11.2760 ca        1 I1H     -0.282800
     30 C45        -1.7730    3.1590   12.5010 ca        1 I1H      0.420200
     31 N46        -1.8260    2.3900   13.6050 nb        1 I1H     -0.663000
     32 C47        -1.3250    1.1450   13.5040 ca        1 I1H      0.420200
     33 C48        -0.7680    0.6160   12.3280 ca        1 I1H     -0.282800
     34 O52         2.9950   -1.0010    4.0870 o         1 I1H     -0.434100
     35 C7         -1.5480    0.1380   -1.6440 c3        1 I1H      0.099700
     36 H3          3.2130   -0.3770    1.6330 ha        1 I1H      0.176000
     37 H5         -0.8830   -0.6370    3.0920 ha        1 I1H      0.123000
     38 H6         -1.7360   -0.2680    0.8340 ha        1 I1H      0.167000
     39 H9C1        4.1040    0.8640   -0.0220 h1        1 I1H      0.051700
     40 H9C2        4.1660   -0.9370   -0.3950 h1        1 I1H      0.051700
     41 H101        4.0630   -0.3870   -2.8720 hc        1 I1H      0.079700
     42 H102        4.0530    1.3770   -2.4840 hc        1 I1H      0.079700
     43 H16         6.0540   -1.6160   -2.9280 ha        1 I1H      0.145000
     44 H17         8.5370   -1.6800   -2.8930 ha        1 I1H      0.159000
     45 H19         8.6110    2.3130   -1.2020 ha        1 I1H      0.168000
     46 H24         0.3410    0.2800    4.8860 hn        1 I1H      0.453800
     47 H251        2.2810   -1.3890    6.4200 hx        1 I1H      0.115200
     48 H252        2.3100    0.4310    6.2660 hx        1 I1H      0.115200
     49 H26        -0.0140   -1.2340    7.5340 hc        1 I1H      0.065700
     50 H291        2.3430    0.3760    8.7390 hc        1 I1H      0.056700
     51 H292        2.0540   -1.4130    8.8610 hc        1 I1H      0.056700
     52 H301        0.0310   -1.1230   10.1650 h1        1 I1H      0.054450
     53 H302        1.3760   -0.1450   10.9250 h1        1 I1H      0.054450
     54 H321       -1.4240    2.1020    8.7610 h1        1 I1H      0.054450
     55 H322       -1.7320    0.3050    8.7890 h1        1 I1H      0.054450
     56 H331       -0.8340    0.9300    6.6360 hc        1 I1H      0.056700
     57 H332        0.5790    1.8070    7.3680 hc        1 I1H      0.056700
     58 H44        -1.2100    3.4360   10.4280 ha        1 I1H      0.144000
     59 H45        -2.1860    4.1790   12.6080 h4        1 I1H      0.031100
     60 H47        -1.3750    0.5310   14.4220 h4        1 I1H      0.031100
     61 H48        -0.3900   -0.4150   12.3340 ha        1 I1H      0.144000
     62 H7C1       -1.5790    0.3180   -2.7500 h1        1 I1H      0.065367
     63 H7C2       -2.0370    0.9750   -1.0900 h1        1 I1H      0.065367
     64 H7C3       -2.0150   -0.8430   -1.3870 h1        1 I1H      0.065367
     65 H242        0.2720   -1.3710    5.0460 hn        1 I1H      0.453800
@<TRIPOS>BOND
     1    1    2 ar  
     2    1    6 ar  
     3    1    7 1   
     4    2    3 ar  
     5    2    8 1   
     6    3    4 ar  
     7    3   36 1   
     8    4    5 ar  
     9    4   19 1   
    10    5    6 ar  
    11    5   37 1   
    12    6   38 1   
    13    7   35 1   
    14    8    9 1   
    15    9   10 1   
    16    9   39 1   
    17    9   40 1   
    18   10   11 1   
    19   10   41 1   
    20   10   42 1   
    21   11   12 ar  
    22   11   16 ar  
    23   12   13 ar  
    24   12   43 1   
    25   13   14 ar  
    26   13   44 1   
    27   14   15 ar  
    28   14   18 1   
    29   15   16 ar  
    30   15   45 1   
    31   16   17 1   
    32   19   20 1   
    33   19   34 2   
    34   20   21 1   
    35   20   46 1   
    36   20   65 1   
    37   21   22 1   
    38   21   47 1   
    39   21   48 1   
    40   22   23 1   
    41   22   27 1   
    42   22   49 1   
    43   23   24 1   
    44   23   50 1   
    45   23   51 1   
    46   24   25 1   
    47   24   52 1   
    48   24   53 1   
    49   25   26 1   
    50   25   28 1   
    51   26   27 1   
    52   26   54 1   
    53   26   55 1   
    54   27   56 1   
    55   27   57 1   
    56   28   29 ar  
    57   28   33 ar  
    58   29   30 ar  
    59   29   58 1   
    60   30   31 ar  
    61   30   59 1   
    62   31   32 ar  
    63   32   33 ar  
    64   32   60 1   
    65   33   61 1   
    66   35   62 1   
    67   35   63 1   
    68   35   64 1   
@<TRIPOS>SUBSTRUCTURE
     1 I1H         1 TEMP              0 ****  ****    0 ROOT
