@<TRIPOS>MOLECULE
I1H
   64    60     1     0     0
SMALL
bcc


@<TRIPOS>ATOM
      1 C1         -4.4270   -0.3110   -1.5840 c1        1 I1H      0.080000
      2 C2         -3.0500   -0.1950   -1.6550 c1        1 I1H      0.019000
      3 C3         -2.2820   -0.2090   -0.4760 c1        1 I1H     -0.086000
      4 C4         -2.9020   -0.3370    0.7470 c1        1 I1H     -0.148000
      5 C5         -4.2860   -0.4540    0.8140 c1        1 I1H     -0.052000
      6 C6         -5.0470   -0.4400   -0.3530 c1        1 I1H     -0.204000
      7 O7         -5.2020   -0.4090   -2.7920 os        1 I1H     -0.201000
      8 O8         -2.4090   -0.1520   -2.9170 os        1 I1H     -0.216000
      9 C9         -2.1170    1.2040   -3.3880 c3        1 I1H     -0.018000
     10 C10        -1.1830    1.1370   -4.6050 c3        1 I1H     -0.132000
     11 C13        -0.9630    2.5720   -5.1670 c2        1 I1H     -0.063000
     12 C16        -0.0740    3.4310   -4.5350 c2        1 I1H     -0.112000
     13 C17         0.0500    4.7470   -4.9670 c1        1 I1H     -0.123000
     14 C18        -0.7160    5.2030   -6.0310 c1        1 I1H     -0.056000
     15 C19        -1.6040    4.3480   -6.6640 c1        1 I1H     -0.121000
     16 C20        -1.7300    3.0280   -6.2320 c1        1 I1H     -0.051000
     17 CL21       -2.9760    2.0000   -6.9150 cl        1 I1H     -0.004000
     18 CL22       -0.6720    6.8660   -6.4660 cl        1 I1H     -0.005000
     19 C23        -2.0740   -0.4560    2.0070 c2        1 I1H      0.346000
     20 N24        -0.6190   -0.4340    1.9280 n         1 I1H     -0.372000
     21 C25         0.1590   -1.3730    2.7050 c3        1 I1H     -0.028000
     22 C26         1.4430   -0.6510    3.2750 c3        1 I1H     -0.131000
     23 C29         1.8660   -1.3370    4.5210 c3        1 I1H     -0.187500
     24 C30         3.1880   -0.8220    5.0400 c3        1 I1H     -0.055000
     25 N31         4.2360   -0.8270    4.0120 n3        1 I1H     -0.230000
     26 C32         3.8260   -0.1500    2.7730 c3        1 I1H     -0.055000
     27 C33         2.5040   -0.6610    2.2430 c3        1 I1H     -0.187500
     28 C43         4.6270   -2.2340    3.6950 c2        1 I1H      0.088000
     29 C44         5.4830   -2.4860    2.6390 c2        1 I1H     -0.213000
     30 C45         5.9470   -3.7720    2.4140 c1        1 I1H     -0.056000
     31 N46         5.5620   -4.7880    3.2300 n1        1 I1H     -0.158000
     32 C47         4.7090   -4.5420    4.2840 c1        1 I1H     -0.052000
     33 C48         4.2410   -3.2540    4.5140 c1        1 I1H     -0.236000
     34 O52        -2.6120   -0.4690    3.0720 o         1 I1H     -0.365000
     35 C7         -6.2000    0.6040   -2.9220 c3        1 I1H     -0.079000
     36 H3         -1.2970   -0.1270   -0.5260 ha        1 I1H      0.153000
     37 H5         -4.7240   -0.5450    1.6770 ha        1 I1H      0.159000
     38 H6         -5.9920   -0.5190   -0.3040 ha        1 I1H      0.146000
     39 H9C1       -1.6900    1.7000   -2.6870 h1        1 I1H      0.088500
     40 H9C2       -2.9680    1.6580   -3.6450 h1        1 I1H      0.088500
     41 H101       -0.3070    0.7520   -4.3300 hc        1 I1H      0.111500
     42 H102       -1.5920    0.5640   -5.3070 hc        1 I1H      0.111500
     43 H16         0.4660    3.1110   -3.7850 ha        1 I1H      0.144000
     44 H17         0.6990    5.3730   -4.5050 ha        1 I1H      0.152000
     45 H19        -2.1250    4.6600   -7.3890 ha        1 I1H      0.162000
     46 H24        -0.2120    0.1200    1.3590 hn        1 I1H      0.219000
     47 H251       -0.3760   -1.7040    3.4400 h1        1 I1H      0.104500
     48 H252        0.4210   -2.0970    2.1550 h1        1 I1H      0.104500
     49 H26         1.2170    0.2780    3.4850 hc        1 I1H      0.102000
     50 H291        1.9500   -2.2960    4.3420 hc        1 I1H      0.089500
     51 H292        1.1860   -1.2020    5.2000 hc        1 I1H      0.089500
     52 H301        3.0710    0.0600    5.3480 h1        1 I1H      0.098250
     53 H302        3.4690   -1.3690    5.7710 h1        1 I1H      0.098250
     54 H321        4.4930   -0.2860    2.1170 h1        1 I1H      0.098250
     55 H322        3.7470    0.7940    2.9450 h1        1 I1H      0.098250
     56 H331        2.2200   -0.0870    1.4790 hc        1 I1H      0.089500
     57 H332        2.6280   -1.5970    1.9170 hc        1 I1H      0.089500
     58 H44         5.7600   -1.7630    2.0540 ha        1 I1H      0.145000
     59 H45         6.5400   -3.9450    1.6810 ha        1 I1H      0.157000
     60 H47         4.4260   -5.2950    4.8860 ha        1 I1H      0.156000
     61 H48         3.6450   -3.0840    5.2500 ha        1 I1H      0.142000
     62 H7C1       -5.8760    1.4160   -2.5520 h1        1 I1H      0.088333
     63 H7C2       -6.4160    0.7410   -3.9020 h1        1 I1H      0.088333
     64 H7C3       -7.0590    0.3120   -2.4150 h1        1 I1H      0.088333
@<TRIPOS>BOND
     1    1    6 1   
     2    1    7 1   
     3    2    3 1   
     4    2    8 1   
     5    3   36 1   
     6    4    5 1   
     7    4   19 1   
     8    5   37 1   
     9    6   38 1   
    10    7   35 1   
    11    8    9 1   
    12    9   10 1   
    13    9   39 1   
    14    9   40 1   
    15   10   11 1   
    16   10   41 1   
    17   10   42 1   
    18   11   12 1   
    19   11   16 1   
    20   12   13 1   
    21   12   43 1   
    22   13   44 1   
    23   14   15 1   
    24   14   18 1   
    25   15   45 1   
    26   16   17 1   
    27   19   20 1   
    28   19   34 1   
    29   20   21 1   
    30   20   46 1   
    31   21   22 1   
    32   21   47 1   
    33   21   48 1   
    34   22   23 1   
    35   22   27 1   
    36   22   49 1   
    37   23   24 1   
    38   23   50 1   
    39   23   51 1   
    40   24   25 1   
    41   24   52 1   
    42   24   53 1   
    43   25   26 1   
    44   25   28 1   
    45   26   27 1   
    46   26   54 1   
    47   26   55 1   
    48   27   56 1   
    49   27   57 1   
    50   28   29 1   
    51   28   33 1   
    52   29   30 1   
    53   29   58 1   
    54   30   59 1   
    55   31   32 1   
    56   32   60 1   
    57   33   61 1   
    58   35   62 1   
    59   35   63 1   
    60   35   64 1   
@<TRIPOS>SUBSTRUCTURE
     1 I1H         1 TEMP              0 ****  ****    0 ROOT
