@<TRIPOS>MOLECULE
I1N
   22    21     1     0     0
SMALL
bcc


@<TRIPOS>ATOM
      1 C1         -0.8360    0.5950   -1.2200 c1        1 I1N      0.183000
      2 C2          0.7230    0.5950   -1.2200 c2        1 I1N     -0.046000
      3 C3          1.2310    0.5950    0.2270 c3        1 I1N      0.043000
      4 C4          0.6260   -0.4850    1.0840 c3        1 I1N      0.032000
      5 C5         -0.8780   -0.4940    1.0570 c3        1 I1N      0.008000
      6 C6         -1.4720   -0.5380   -0.3570 c3        1 I1N     -0.044000
      7 O1         -1.4440    1.0480   -2.1690 o         1 I1N     -0.286000
      8 O2          1.2690    1.6780   -1.9910 oh        1 I1N     -0.325000
      9 O3          0.9320    1.8620    0.8140 oh        1 I1N     -0.329000
     10 O4          1.1030   -1.7620    0.6190 oh        1 I1N     -0.325000
     11 O5         -1.3520    0.6830    1.7120 oh        1 I1N     -0.329000
     12 O6         -1.3350   -1.8320   -0.9670 oh        1 I1N     -0.325000
     13 H2          1.0690   -0.1770   -1.7080 h4        1 I1N      0.121000
     14 H3          2.2000    0.4770    0.2160 h1        1 I1N      0.125000
     15 H4          0.9220   -0.3560    2.0050 h1        1 I1N      0.126000
     16 H5         -1.1940   -1.2750    1.5510 h1        1 I1N      0.100000
     17 H6         -2.4430   -0.4460   -0.3270 h1        1 I1N      0.132000
     18 HO2         1.6040    1.3610   -2.7500 ho        1 I1N      0.230000
     19 HO3         1.6880    2.2810    1.0160 ho        1 I1N      0.227000
     20 HO4         1.6340   -2.1210    1.2330 ho        1 I1N      0.223000
     21 HO5        -1.9100    0.4550    2.3630 ho        1 I1N      0.230000
     22 HO6        -2.1370   -2.1420   -1.1860 ho        1 I1N      0.230000
@<TRIPOS>BOND
     1    1    6 1   
     2    1    7 1   
     3    2    3 1   
     4    2    8 1   
     5    2   13 1   
     6    3    4 1   
     7    3    9 1   
     8    3   14 1   
     9    4    5 1   
    10    4   10 1   
    11    4   15 1   
    12    5    6 1   
    13    5   11 1   
    14    5   16 1   
    15    6   12 1   
    16    6   17 1   
    17    8   18 1   
    18    9   19 1   
    19   10   20 1   
    20   11   21 1   
    21   12   22 1   
@<TRIPOS>SUBSTRUCTURE
     1 I1N         1 TEMP              0 ****  ****    0 ROOT
