@<TRIPOS>MOLECULE
I1N
   22    22     1     0     0
SMALL
bcc


@<TRIPOS>ATOM
      1 C1          0.1820   -0.2280   -0.1370 c         1 I1N      0.522100
      2 C2          1.6820   -0.1540    0.0450 c3        1 I1N      0.016100
      3 C3          2.0930    0.1300    1.5010 c3        1 I1N      0.136600
      4 C4          1.4510   -0.8400    2.5070 c3        1 I1N      0.143100
      5 C5          0.3030   -1.6690    1.9020 c3        1 I1N      0.136600
      6 C6         -0.5960   -0.7760    1.0370 c3        1 I1N      0.016100
      7 O1         -0.3680    0.1270   -1.1820 o         1 I1N     -0.525100
      8 O2          2.2570    0.8850   -0.7300 oh        1 I1N     -0.597800
      9 O3          1.6850    1.4320    1.8900 oh        1 I1N     -0.601800
     10 O4          2.4860   -1.7110    2.9340 oh        1 I1N     -0.597800
     11 O5         -0.4120   -2.2030    3.0010 oh        1 I1N     -0.601800
     12 O6         -1.6900   -1.5760    0.6230 oh        1 I1N     -0.597800
     13 H2          2.1160   -1.1460   -0.2760 h1        1 I1N      0.087200
     14 H3          3.2170    0.0470    1.5690 h1        1 I1N      0.073200
     15 H4          1.0550   -0.2520    3.3850 h1        1 I1N      0.086700
     16 H5          0.7130   -2.5140    1.2800 h1        1 I1N      0.073200
     17 H6         -0.9720    0.0960    1.6500 h1        1 I1N      0.087200
     18 HO2         1.7970    0.9010   -1.5820 ho        1 I1N      0.431000
     19 HO3         2.1070    2.0480    1.2750 ho        1 I1N      0.429500
     20 HO4         2.1000   -2.2780    3.6150 ho        1 I1N      0.424000
     21 HO5        -1.2030   -2.6300    2.6430 ho        1 I1N      0.429500
     22 HO6        -2.1640   -1.0790   -0.0590 ho        1 I1N      0.431000
@<TRIPOS>BOND
     1    1    2 1   
     2    1    6 1   
     3    1    7 2   
     4    2    3 1   
     5    2    8 1   
     6    2   13 1   
     7    3    4 1   
     8    3    9 1   
     9    3   14 1   
    10    4    5 1   
    11    4   10 1   
    12    4   15 1   
    13    5    6 1   
    14    5   11 1   
    15    5   16 1   
    16    6   12 1   
    17    6   17 1   
    18    8   18 1   
    19    9   19 1   
    20   10   20 1   
    21   11   21 1   
    22   12   22 1   
@<TRIPOS>SUBSTRUCTURE
     1 I1N         1 TEMP              0 ****  ****    0 ROOT
