@<TRIPOS>MOLECULE
I1N
   22    22     1     0     0
SMALL
bcc


@<TRIPOS>ATOM
      1 C1          2.0450   -0.3250   -0.8800 c         1 I1N      0.510100
      2 C2          2.8600   -0.1860   -2.1490 c3        1 I1N      0.036600
      3 C3          2.1960   -0.9950   -3.2780 c3        1 I1N      0.096600
      4 C4          0.7410   -0.5440   -3.4850 c3        1 I1N      0.069100
      5 C5         -0.0910   -0.5760   -2.1860 c3        1 I1N      0.096600
      6 C6          0.5970    0.1270   -0.9990 c3        1 I1N      0.036600
      7 O1          2.5040   -0.8050    0.1540 o         1 I1N     -0.482100
      8 O2          4.2040   -0.5690   -1.9780 oh        1 I1N     -0.567800
      9 O3          2.2730   -2.3840   -3.0390 oh        1 I1N     -0.591300
     10 O4          0.6890    0.7940   -3.9550 oh        1 I1N     -0.602800
     11 O5         -0.3020   -1.9220   -1.7950 oh        1 I1N     -0.591300
     12 O6          0.4980    1.5280   -1.1190 oh        1 I1N     -0.567800
     13 H2          2.9030    0.9030   -2.4430 h1        1 I1N      0.113200
     14 H3          2.7890   -0.8460   -4.2260 h1        1 I1N      0.086200
     15 H4          0.2620   -1.2360   -4.2360 h1        1 I1N      0.057700
     16 H5         -1.0710   -0.0540   -2.3780 h1        1 I1N      0.086200
     17 H6          0.0450   -0.1210   -0.0450 h1        1 I1N      0.113200
     18 HO2         4.2030   -1.4810   -1.6520 ho        1 I1N      0.421000
     19 HO3         1.7390   -2.5810   -2.2550 ho        1 I1N      0.419500
     20 HO4         1.1560    0.8160   -4.8000 ho        1 I1N      0.419000
     21 HO5        -0.9270   -2.3060   -2.4230 ho        1 I1N      0.419500
     22 HO6         0.8140    1.7780   -2.0000 ho        1 I1N      0.421000
@<TRIPOS>BOND
     1    1    2 1   
     2    1    6 1   
     3    1    7 2   
     4    2    3 1   
     5    2    8 1   
     6    2   13 1   
     7    3    4 1   
     8    3    9 1   
     9    3   14 1   
    10    4    5 1   
    11    4   10 1   
    12    4   15 1   
    13    5    6 1   
    14    5   11 1   
    15    5   16 1   
    16    6   12 1   
    17    6   17 1   
    18    8   18 1   
    19    9   19 1   
    20   10   20 1   
    21   11   21 1   
    22   12   22 1   
@<TRIPOS>SUBSTRUCTURE
     1 I1N         1 TEMP              0 ****  ****    0 ROOT
