@<TRIPOS>MOLECULE
I1N
   22    22     1     0     0
SMALL
bcc


@<TRIPOS>ATOM
      1 C1          0.2000   -0.2930   -0.1720 c         1 I1N      0.522100
      2 C2          1.7020   -0.3790   -0.0110 c3        1 I1N      0.016100
      3 C3          2.1730   -0.0030    1.4050 c3        1 I1N      0.136600
      4 C4          1.4420   -0.7860    2.5090 c3        1 I1N      0.143100
      5 C5          0.1940   -1.5300    2.0000 c3        1 I1N      0.136600
      6 C6         -0.6130   -0.6270    1.0570 c3        1 I1N      0.016100
      7 O1         -0.3270    0.0200   -1.2430 o         1 I1N     -0.525100
      8 O2          2.3780    0.5040   -0.8920 oh        1 I1N     -0.597800
      9 O3          1.9270    1.3700    1.6650 oh        1 I1N     -0.601800
     10 O4          2.3770   -1.7270    3.0120 oh        1 I1N     -0.597800
     11 O5         -0.5570   -1.8650    3.1530 oh        1 I1N     -0.601800
     12 O6         -1.8010   -1.3290    0.7350 oh        1 I1N     -0.597800
     13 H2          2.0100   -1.4410   -0.2360 h1        1 I1N      0.087200
     14 H3          3.2800   -0.2110    1.4710 h1        1 I1N      0.073200
     15 H4          1.1350   -0.0720    3.3260 h1        1 I1N      0.086700
     16 H5          0.4900   -2.4750    1.4620 h1        1 I1N      0.073200
     17 H6         -0.8730    0.3390    1.5830 h1        1 I1N      0.087200
     18 HO2         1.9050    0.4900   -1.7370 ho        1 I1N      0.431000
     19 HO3         2.4050    1.8690    0.9870 ho        1 I1N      0.429500
     20 HO4         1.9420   -2.1740    3.7500 ho        1 I1N      0.424000
     21 HO5        -1.3980   -2.2290    2.8460 ho        1 I1N      0.429500
     22 HO6        -2.2280   -0.8490    0.0110 ho        1 I1N      0.431000
@<TRIPOS>BOND
     1    1    2 1   
     2    1    6 1   
     3    1    7 2   
     4    2    3 1   
     5    2    8 1   
     6    2   13 1   
     7    3    4 1   
     8    3    9 1   
     9    3   14 1   
    10    4    5 1   
    11    4   10 1   
    12    4   15 1   
    13    5    6 1   
    14    5   11 1   
    15    5   16 1   
    16    6   12 1   
    17    6   17 1   
    18    8   18 1   
    19    9   19 1   
    20   10   20 1   
    21   11   21 1   
    22   12   22 1   
@<TRIPOS>SUBSTRUCTURE
     1 I1N         1 TEMP              0 ****  ****    0 ROOT
