@<TRIPOS>MOLECULE
I1P
   58    60     1     0     0
SMALL
bcc


@<TRIPOS>ATOM
      1 C22         0.3290    1.6190   -1.6150 ca        1 I1P     -0.215000
      2 C1         10.6500    0.6110   -5.7730 cc        1 I1P     -0.217300
      3 C2          9.7280   -0.3130   -6.1880 cd        1 I1P     -0.041000
      4 C7          6.8400    0.5290   -4.1600 cd        1 I1P     -0.282900
      5 C6         10.2750    1.5580   -4.7560 cc        1 I1P      0.382200
      6 C3          8.4280   -0.2830   -5.5810 cd        1 I1P     -0.035300
      7 N5          9.0800    1.6070   -4.1720 nd        1 I1P     -0.486800
      8 C11         6.7420    2.0990   -2.1960 ca        1 I1P     -0.326600
      9 C10         6.1080    1.2860   -3.1720 ca        1 I1P      0.596100
     10 C9          6.3530   -0.5620   -4.9500 cc        1 I1P      0.097600
     11 C17         1.7530    1.6090   -1.3390 ca        1 I1P      0.350600
     12 C14         4.0490    1.8700   -2.2540 ca        1 I1P      0.805900
     13 C13         5.9240    2.7710   -1.2770 ca        1 I1P      0.446200
     14 N15         4.7460    1.1660   -3.2030 nb        1 I1P     -0.703000
     15 C18         2.1410    1.3920    0.0330 ca        1 I1P     -0.215000
     16 C19         1.2060    1.2300    1.0070 ca        1 I1P      0.056000
     17 C20        -0.2090    1.2540    0.7530 ca        1 I1P     -0.737500
     18 N4          8.1820    0.7130   -4.5620 na        1 I1P      0.196200
     19 N8          7.3110   -1.0500   -5.7960 nc        1 I1P     -0.255600
     20 N13         4.5780    2.6810   -1.2740 nb        1 I1P     -0.716000
     21 N16         2.6120    1.7810   -2.3580 nu        1 I1P     -0.643300
     22 C21        -0.5810    1.4560   -0.6200 ca        1 I1P      0.056000
     23 S23        -1.2260    1.0230    1.8430 s4        1 I1P      1.692300
     24 N24        -1.6720    3.3800    2.6620 n8        1 I1P     -0.980800
     25 C25        -2.7280    3.2440    3.6440 c3        1 I1P      0.127800
     26 C26        -3.2030    4.5420    4.3070 c3        1 I1P     -0.139400
     27 C27        -4.3030    4.1970    5.3040 c3        1 I1P      0.106800
     28 N28        -4.9070    5.3950    5.9780 nx        1 I1P     -0.679400
     29 C29        -6.2340    5.0510    6.5600 c3        1 I1P      0.080100
     30 C30        -4.0070    5.9430    7.0290 c3        1 I1P      0.080100
     31 O31        -0.8060    0.7290    3.1060 o         1 I1P     -0.458400
     32 O32        -2.5500    0.9500    1.5200 o         1 I1P     -0.458400
     33 H22        -0.0190    1.7600   -2.6550 ha        1 I1P      0.184000
     34 H6         10.9990    2.3180   -4.4050 h4        1 I1P      0.058100
     35 H11         7.8340    2.2050   -2.1400 ha        1 I1P      0.197000
     36 H9          5.3470   -0.9890   -4.9110 h4        1 I1P      0.200000
     37 H13         6.3560    3.4250   -0.4940 h4        1 I1P      0.051100
     38 H18         3.2110    1.3430    0.3000 ha        1 I1P      0.184000
     39 H19         1.5370    1.0520    2.0490 ha        1 I1P      0.165500
     40 H16         2.2550    1.8150   -3.2980 hn        1 I1P      0.488800
     41 H21        -1.6620    1.4670   -0.8640 ha        1 I1P      0.165500
     42 H24        -1.9580    3.9770    1.9060 hn        1 I1P      0.390300
     43 H251       -2.3570    2.5390    4.4460 h1        1 I1P      0.091700
     44 H252       -3.6070    2.7530    3.1280 h1        1 I1P      0.091700
     45 H261       -2.3420    5.0390    4.8270 hc        1 I1P      0.073200
     46 H262       -3.5880    5.2490    3.5250 hc        1 I1P      0.073200
     47 H271       -3.8990    3.5170    6.1090 hx        1 I1P      0.111700
     48 H272       -5.1360    3.6540    4.7660 hx        1 I1P      0.111700
     49 H291       -6.6540    5.9540    7.0800 hx        1 I1P      0.111700
     50 H292       -6.9330    4.7330    5.7390 hx        1 I1P      0.111700
     51 H293       -6.1150    4.2150    7.3000 hx        1 I1P      0.111700
     52 H301       -3.0130    6.1970    6.5750 hx        1 I1P      0.111700
     53 H302       -3.8690    5.1820    7.8430 hx        1 I1P      0.111700
     54 H303       -4.4690    6.8710    7.4640 hx        1 I1P      0.111700
     55 H1         11.6650    0.6530   -6.1920 ha        1 I1P      0.176000
     56 H242       -0.8410    3.7610    3.0790 hn        1 I1P      0.390300
     57 H281       -5.0480    6.1250    5.2650 hn        1 I1P      0.452800
     58 H2          9.9300   -1.0710   -6.9600 ha        1 I1P      0.189000
@<TRIPOS>BOND
     1    1   11 ar  
     2    1   22 ar  
     3    1   33 1   
     4    2    3 2   
     5    2    5 1   
     6    2   55 1   
     7    3    6 1   
     8    3   58 1   
     9    4    9 1   
    10    4   10 2   
    11    4   18 1   
    12    5    7 2   
    13    5   34 1   
    14    6   18 1   
    15    6   19 2   
    16    7   18 1   
    17    8    9 ar  
    18    8   13 ar  
    19    8   35 1   
    20    9   14 ar  
    21   10   19 1   
    22   10   36 1   
    23   11   15 ar  
    24   11   21 1   
    25   12   14 ar  
    26   12   20 ar  
    27   12   21 1   
    28   13   20 ar  
    29   13   37 1   
    30   15   16 ar  
    31   15   38 1   
    32   16   17 ar  
    33   16   39 1   
    34   17   22 ar  
    35   17   23 1   
    36   21   40 1   
    37   22   41 1   
    38   23   31 1   
    39   23   32 1   
    40   24   25 1   
    41   24   42 1   
    42   24   56 1   
    43   25   26 1   
    44   25   43 1   
    45   25   44 1   
    46   26   27 1   
    47   26   45 1   
    48   26   46 1   
    49   27   28 1   
    50   27   47 1   
    51   27   48 1   
    52   28   29 1   
    53   28   30 1   
    54   28   57 1   
    55   29   49 1   
    56   29   50 1   
    57   29   51 1   
    58   30   52 1   
    59   30   53 1   
    60   30   54 1   
@<TRIPOS>SUBSTRUCTURE
     1 I1P         1 TEMP              0 ****  ****    0 ROOT
