@<TRIPOS>MOLECULE
I1P
   56    59     1     0     0
SMALL
bcc


@<TRIPOS>ATOM
      1 C22        -1.2070    1.5340    0.9400 ca        1 I1P     -0.180500
      2 C1          1.7720   -0.1450   -9.3480 cc        1 I1P     -0.238300
      3 C2          0.6640    0.6560   -9.3260 cd        1 I1P     -0.042000
      4 C7         -0.5270    0.2110   -5.9300 cd        1 I1P     -0.222900
      5 C6          2.1280   -0.8720   -8.1570 cc        1 I1P      0.362200
      6 C3         -0.0900    0.7330   -8.1080 cd        1 I1P     -0.065300
      7 N5          1.4500   -0.8300   -7.0130 nd        1 I1P     -0.464800
      8 C11         0.0290   -1.6330   -4.3310 ca        1 I1P     -0.384600
      9 C10        -0.4820   -0.3420   -4.5840 ca        1 I1P      0.573100
     10 C9         -1.4690    1.1380   -6.4590 cc        1 I1P      0.064600
     11 C17        -1.4920    0.4610    0.0580 ca        1 I1P      0.218600
     12 C14        -0.9800   -0.0930   -2.3140 ca        1 I1P      0.877900
     13 C13         0.0100   -2.0700   -2.9950 ca        1 I1P      0.459200
     14 N15        -0.9860    0.4410   -3.5940 nb        1 I1P     -0.745000
     15 C18        -1.7930   -0.8030    0.6110 ca        1 I1P     -0.180500
     16 C19        -1.7740   -0.9790    1.9890 ca        1 I1P      0.002500
     17 C20        -1.4710    0.0710    2.8630 ca        1 I1P     -0.409500
     18 N4          0.3700   -0.0620   -6.9810 na        1 I1P      0.182200
     19 N8         -1.2060    1.4440   -7.7740 nc        1 I1P     -0.264600
     20 N13        -0.4740   -1.3420   -1.9780 nb        1 I1P     -0.732000
     21 N16        -1.5610    0.7210   -1.3200 nh        1 I1P     -0.726300
     22 C21        -1.2020    1.3290    2.3110 ca        1 I1P      0.002500
     23 S23        -1.4740   -0.1620    4.5310 sy        1 I1P      1.521200
     24 N24         0.0280   -0.6700    4.8400 n3        1 I1P     -0.920100
     25 C25         1.1150    0.1750    5.2380 c3        1 I1P      0.225800
     26 C26         1.8530   -0.3080    6.4900 c3        1 I1P     -0.098400
     27 C27         2.9440    0.7030    6.8370 c3        1 I1P      0.171800
     28 N28         3.8740    0.2390    7.8570 n3        1 I1P     -0.737600
     29 C29         5.0120    1.1210    7.9930 c3        1 I1P      0.155100
     30 C30         3.2420   -0.0580    9.1230 c3        1 I1P      0.155100
     31 O31        -2.3700   -1.2130    4.8310 o         1 I1P     -0.658300
     32 O32        -1.7060    1.0830    5.1570 o         1 I1P     -0.658300
     33 H22        -0.9920    2.5390    0.5460 ha        1 I1P      0.151500
     34 H2          0.3240    1.2470  -10.1900 ha        1 I1P      0.173000
     35 H6          3.0210   -1.5220   -8.1460 h4        1 I1P      0.046100
     36 H11         0.4210   -2.2770   -5.1250 ha        1 I1P      0.170000
     37 H9         -2.3120    1.5770   -5.9200 h4        1 I1P      0.201000
     38 H13         0.4070   -3.0650   -2.7170 h4        1 I1P      0.032100
     39 H18        -2.0550   -1.6570   -0.0330 ha        1 I1P      0.151500
     40 H19        -2.0290   -1.9700    2.4080 ha        1 I1P      0.153500
     41 H16        -1.6620    1.6850   -1.5670 hn        1 I1P      0.452800
     42 H21        -0.9920    2.1780    2.9870 ha        1 I1P      0.153500
     43 H24         0.2710   -1.6310    4.7850 hn        1 I1P      0.447800
     44 H251        0.7100    1.2120    5.4340 h1        1 I1P      0.049700
     45 H252        1.8610    0.2480    4.3930 h1        1 I1P      0.049700
     46 H261        2.3020   -1.3180    6.3050 hc        1 I1P      0.055700
     47 H262        1.1340   -0.4060    7.3440 hc        1 I1P      0.055700
     48 H271        2.4460    1.6720    7.1390 h1        1 I1P      0.031700
     49 H272        3.5470    0.9100    5.9060 h1        1 I1P      0.031700
     50 H291        5.7310    0.6740    8.7290 h1        1 I1P      0.031867
     51 H292        5.5260    1.2110    7.0000 h1        1 I1P      0.031867
     52 H293        4.7350    2.1530    8.3460 h1        1 I1P      0.031867
     53 H301        2.5060   -0.8900    8.9730 h1        1 I1P      0.031867
     54 H302        4.0220   -0.4000    9.8520 h1        1 I1P      0.031867
     55 H303        2.7000    0.8230    9.5660 h1        1 I1P      0.031867
     56 H1          2.4000   -0.2520  -10.2420 ha        1 I1P      0.159000
@<TRIPOS>BOND
     1    1   11 ar  
     2    1   22 ar  
     3    1   33 1   
     4    2    3 2   
     5    2    5 1   
     6    2   56 1   
     7    3    6 1   
     8    3   34 1   
     9    4    9 1   
    10    4   10 2   
    11    4   18 1   
    12    5    7 2   
    13    5   35 1   
    14    6   18 1   
    15    6   19 2   
    16    7   18 1   
    17    8    9 ar  
    18    8   13 ar  
    19    8   36 1   
    20    9   14 ar  
    21   10   19 1   
    22   10   37 1   
    23   11   15 ar  
    24   11   21 1   
    25   12   14 ar  
    26   12   20 ar  
    27   12   21 1   
    28   13   20 ar  
    29   13   38 1   
    30   15   16 ar  
    31   15   39 1   
    32   16   17 ar  
    33   16   40 1   
    34   17   22 ar  
    35   17   23 1   
    36   21   41 1   
    37   22   42 1   
    38   23   24 1   
    39   23   31 2   
    40   23   32 2   
    41   24   25 1   
    42   24   43 1   
    43   25   26 1   
    44   25   44 1   
    45   25   45 1   
    46   26   27 1   
    47   26   46 1   
    48   26   47 1   
    49   27   28 1   
    50   27   48 1   
    51   27   49 1   
    52   28   29 1   
    53   28   30 1   
    54   29   50 1   
    55   29   51 1   
    56   29   52 1   
    57   30   53 1   
    58   30   54 1   
    59   30   55 1   
@<TRIPOS>SUBSTRUCTURE
     1 I1P         1 TEMP              0 ****  ****    0 ROOT
