@<TRIPOS>MOLECULE
I1P
   58    60     1     0     0
SMALL
bcc


@<TRIPOS>ATOM
      1 C22         0.3440    1.9310   -1.7150 ca        1 I1P     -0.215000
      2 C1         10.6870    0.4710   -5.6800 cc        1 I1P     -0.217300
      3 C2          9.7080   -0.3220   -6.2140 cd        1 I1P     -0.041000
      4 C7          6.8290    0.5520   -4.1860 cd        1 I1P     -0.282900
      5 C6         10.3560    1.3380   -4.5800 cc        1 I1P      0.382200
      6 C3          8.3940   -0.2440   -5.6430 cd        1 I1P     -0.035300
      7 N5          9.1490    1.4290   -4.0250 nd        1 I1P     -0.486800
      8 C11         6.7930    1.9140   -2.0710 ca        1 I1P     -0.326600
      9 C10         6.1280    1.2640   -3.1430 ca        1 I1P      0.596100
     10 C9          6.2820   -0.4070   -5.0990 cc        1 I1P      0.097600
     11 C17         1.7520    1.7690   -1.4040 ca        1 I1P      0.350600
     12 C14         4.0930    1.9260   -2.2240 ca        1 I1P      0.805900
     13 C13         6.0000    2.5560   -1.1080 ca        1 I1P      0.446200
     14 N15         4.7620    1.2650   -3.2240 nb        1 I1P     -0.703000
     15 C18         2.0730    1.3800   -0.0520 ca        1 I1P     -0.215000
     16 C19         1.0930    1.1990    0.8730 ca        1 I1P      0.056000
     17 C20        -0.3050    1.3700    0.5860 ca        1 I1P     -0.737500
     18 N4          8.1950    0.6600   -4.5310 na        1 I1P      0.196200
     19 N8          7.2260   -0.8850   -5.9660 nc        1 I1P     -0.255600
     20 N13         4.6530    2.5820   -1.1510 nb        1 I1P     -0.716000
     21 N16         2.6590    1.9710   -2.3760 nh        1 I1P     -0.643300
     22 C21        -0.6100    1.7440   -0.7670 ca        1 I1P      0.056000
     23 S23        -1.3760    1.1160    1.6170 s4        1 I1P      1.692300
     24 N24        -1.6550    3.4060    2.6690 n3        1 I1P     -0.980800
     25 C25        -2.7560    3.2610    3.6000 c3        1 I1P      0.127800
     26 C26        -3.1450    4.5200    4.3820 c3        1 I1P     -0.139400
     27 C27        -4.3070    4.1710    5.3060 c3        1 I1P      0.106800
     28 N28        -4.8340    5.3410    6.0850 n4        1 I1P     -0.679400
     29 C29        -6.2060    5.0540    6.5890 c3        1 I1P      0.080100
     30 C30        -3.9320    5.6990    7.2120 c3        1 I1P      0.080100
     31 O31        -1.0270    0.6590    2.8530 o         1 I1P     -0.458400
     32 O32        -2.6890    1.1900    1.2540 o         1 I1P     -0.458400
     33 H22         0.0470    2.2070   -2.7430 ha        1 I1P      0.184000
     34 H6         11.1270    1.9920   -4.1310 h4        1 I1P      0.058100
     35 H11         7.8870    1.9190   -1.9740 ha        1 I1P      0.197000
     36 H9          5.2440   -0.7470   -5.1320 h4        1 I1P      0.200000
     37 H13         6.4570    3.0860   -0.2500 h4        1 I1P      0.051100
     38 H18         3.1250    1.2120    0.2370 ha        1 I1P      0.184000
     39 H19         1.3710    0.8870    1.9000 ha        1 I1P      0.165500
     40 H16         2.3390    2.1330   -3.3150 hn        1 I1P      0.488800
     41 H21        -1.6770    1.8720   -1.0380 ha        1 I1P      0.165500
     42 H24        -1.8620    4.1000    1.9720 hn        1 I1P      0.390300
     43 H251       -2.4740    2.4480    4.3330 h1        1 I1P      0.091700
     44 H252       -3.6510    2.9030    3.0110 h1        1 I1P      0.091700
     45 H261       -3.4410    5.3340    3.6680 hc        1 I1P      0.073200
     46 H262       -2.2660    4.8860    4.9760 hc        1 I1P      0.073200
     47 H271       -5.1610    3.7600    4.6900 hx        1 I1P      0.111700
     48 H272       -3.9910    3.3800    6.0460 hx        1 I1P      0.111700
     49 H291       -6.5690    5.9330    7.1890 hx        1 I1P      0.111700
     50 H292       -6.1840    4.1400    7.2400 hx        1 I1P      0.111700
     51 H293       -6.8980    4.8830    5.7210 hx        1 I1P      0.111700
     52 H301       -2.9040    5.9120    6.8160 hx        1 I1P      0.111700
     53 H302       -4.3320    6.6150    7.7290 hx        1 I1P      0.111700
     54 H303       -3.8870    4.8500    7.9450 hx        1 I1P      0.111700
     55 H1         11.7170    0.4690   -6.0650 ha        1 I1P      0.176000
     56 H242       -0.8110    3.6680    3.1470 hn        1 I1P      0.390300
     57 H281       -4.8880    6.1490    5.4490 hn        1 I1P      0.452800
     58 H2          9.8730   -1.0120   -7.0570 ha        1 I1P      0.189000
@<TRIPOS>BOND
     1    1   11 ar  
     2    1   22 ar  
     3    1   33 1   
     4    2    3 2   
     5    2    5 1   
     6    2   55 1   
     7    3    6 1   
     8    3   58 1   
     9    4    9 1   
    10    4   10 2   
    11    4   18 1   
    12    5    7 2   
    13    5   34 1   
    14    6   18 1   
    15    6   19 2   
    16    7   18 1   
    17    8    9 ar  
    18    8   13 ar  
    19    8   35 1   
    20    9   14 ar  
    21   10   19 1   
    22   10   36 1   
    23   11   15 ar  
    24   11   21 1   
    25   12   14 ar  
    26   12   20 ar  
    27   12   21 1   
    28   13   20 ar  
    29   13   37 1   
    30   15   16 ar  
    31   15   38 1   
    32   16   17 ar  
    33   16   39 1   
    34   17   22 ar  
    35   17   23 1   
    36   21   40 1   
    37   22   41 1   
    38   23   31 1   
    39   23   32 1   
    40   24   25 1   
    41   24   42 1   
    42   24   56 1   
    43   25   26 1   
    44   25   43 1   
    45   25   44 1   
    46   26   27 1   
    47   26   45 1   
    48   26   46 1   
    49   27   28 1   
    50   27   47 1   
    51   27   48 1   
    52   28   29 1   
    53   28   30 1   
    54   28   57 1   
    55   29   49 1   
    56   29   50 1   
    57   29   51 1   
    58   30   52 1   
    59   30   53 1   
    60   30   54 1   
@<TRIPOS>SUBSTRUCTURE
     1 I1P         1 TEMP              0 ****  ****    0 ROOT
