@<TRIPOS>MOLECULE
I1P
   59    61     1     0     0
SMALL
bcc


@<TRIPOS>ATOM
      1 C22         0.9800   -0.2320   -0.7680 ca        1 I1P     -0.113500
      2 C1          9.1790    2.9150   -6.1150 cc        1 I1P     -0.190300
      3 C2          8.2280    2.1790   -6.7780 cd        1 I1P     -0.041000
      4 C7          6.1380    0.9980   -4.0530 cd        1 I1P     -0.325900
      5 C6          9.1010    3.0210   -4.6850 cc        1 I1P      0.397200
      6 C3          7.2060    1.5520   -5.9930 cd        1 I1P     -0.006300
      7 N5          8.1580    2.4480   -3.9340 nd        1 I1P     -0.495800
      8 C11         6.3950    1.4980   -1.5960 ca        1 I1P     -0.307600
      9 C10         5.7520    0.8380   -2.6890 ca        1 I1P      0.632100
     10 C9          5.5060    0.4170   -5.2160 cc        1 I1P      0.127600
     11 C17         2.1550   -0.6400   -0.1080 ca        1 I1P      0.129600
     12 C14         4.3610   -0.1710   -1.1340 ca        1 I1P      0.705900
     13 C13         5.9260    1.2610   -0.3000 ca        1 I1P      0.457200
     14 N15         4.6940   -0.0120   -2.4430 nb        1 I1P     -0.719000
     15 C18         2.2480   -0.5520    1.2940 ca        1 I1P     -0.113500
     16 C19         1.1510   -0.1070    2.0230 ca        1 I1P      0.040000
     17 C20        -0.0630    0.2580    1.3950 ca        1 I1P     -0.548500
     18 N4          7.2380    1.7360   -4.5660 na        1 I1P      0.211200
     19 N8          6.1410    0.7530   -6.3660 nc        1 I1P     -0.239600
     20 N13         4.8920    0.4250   -0.0250 nb        1 I1P     -0.726000
     21 N16         3.2720   -1.1900   -0.8830 n4        1 I1P     -0.642100
     22 C21        -0.1050    0.2080   -0.0190 ca        1 I1P      0.040000
     23 S23        -1.3660    0.5890    2.2470 s4        1 I1P      1.657300
     24 N24        -1.2910    2.9670    2.5850 n3        1 I1P     -1.001800
     25 C25        -2.4880    3.3110    3.3450 c3        1 I1P      0.115800
     26 C26        -2.6590    4.7940    3.6880 c3        1 I1P     -0.131400
     27 C27        -3.9550    4.9640    4.4770 c3        1 I1P      0.104800
     28 N28        -4.2770    6.3870    4.8250 n4        1 I1P     -0.678400
     29 C29        -5.7240    6.5230    5.1630 c3        1 I1P      0.079100
     30 C30        -3.4370    6.8840    5.9490 c3        1 I1P      0.079100
     31 O31        -1.2730    0.4010    3.5840 o         1 I1P     -0.399900
     32 O32        -2.5190    0.7270    1.5520 o         1 I1P     -0.399900
     33 H22         0.8940   -0.2620   -1.8720 ha        1 I1P      0.211000
     34 H6          9.8550    3.6070   -4.1210 h4        1 I1P      0.072100
     35 H11         7.2470    2.1790   -1.7490 ha        1 I1P      0.218000
     36 H9          4.6200   -0.2250   -5.2130 h4        1 I1P      0.198000
     37 H13         6.3870    1.7450    0.5850 h4        1 I1P      0.070100
     38 H18         3.1810   -0.8250    1.8290 ha        1 I1P      0.211000
     39 H19         1.2320   -0.0660    3.1300 ha        1 I1P      0.199000
     40 H16         3.7020   -1.9720   -0.3620 hn        1 I1P      0.494800
     41 H21        -1.0340    0.5020   -0.5520 ha        1 I1P      0.199000
     42 H24        -0.4650    3.2290    3.1000 hn        1 I1P      0.404300
     43 H251       -2.4620    2.7160    4.3070 h1        1 I1P      0.098700
     44 H252       -3.3820    2.9690    2.7420 h1        1 I1P      0.098700
     45 H261       -2.6930    5.4010    2.7430 hc        1 I1P      0.079200
     46 H262       -1.7820    5.1490    4.2930 hc        1 I1P      0.079200
     47 H271       -3.9000    4.3810    5.4420 hx        1 I1P      0.113700
     48 H272       -4.8170    4.5610    3.8670 hx        1 I1P      0.113700
     49 H291       -5.9730    5.8540    6.0310 hx        1 I1P      0.115367
     50 H292       -5.9360    7.5920    5.4440 hx        1 I1P      0.115367
     51 H293       -6.3480    6.2410    4.2730 hx        1 I1P      0.115367
     52 H301       -2.3520    6.7760    5.6840 hx        1 I1P      0.115367
     53 H302       -3.6630    6.2970    6.8800 hx        1 I1P      0.115367
     54 H303       -3.6710    7.9700    6.1330 hx        1 I1P      0.115367
     55 H1          9.9990    3.4230   -6.6480 ha        1 I1P      0.193000
     56 H162        2.9300   -1.5420   -1.7950 hn        1 I1P      0.494800
     57 H242       -1.2850    3.4580    1.7050 hn        1 I1P      0.404300
     58 H281       -4.0860    6.9730    3.9990 hn        1 I1P      0.453800
     59 H2          8.2130    2.0440   -7.8720 ha        1 I1P      0.205000
@<TRIPOS>BOND
     1    1   11 ar  
     2    1   22 ar  
     3    1   33 1   
     4    2    3 2   
     5    2    5 1   
     6    2   55 1   
     7    3    6 1   
     8    3   59 1   
     9    4    9 1   
    10    4   10 2   
    11    4   18 1   
    12    5    7 2   
    13    5   34 1   
    14    6   18 1   
    15    6   19 2   
    16    7   18 1   
    17    8    9 ar  
    18    8   13 ar  
    19    8   35 1   
    20    9   14 ar  
    21   10   19 1   
    22   10   36 1   
    23   11   15 ar  
    24   11   21 1   
    25   12   14 ar  
    26   12   20 ar  
    27   12   21 1   
    28   13   20 ar  
    29   13   37 1   
    30   15   16 ar  
    31   15   38 1   
    32   16   17 ar  
    33   16   39 1   
    34   17   22 ar  
    35   17   23 1   
    36   21   40 1   
    37   21   56 1   
    38   22   41 1   
    39   23   31 1   
    40   23   32 1   
    41   24   25 1   
    42   24   42 1   
    43   24   57 1   
    44   25   26 1   
    45   25   43 1   
    46   25   44 1   
    47   26   27 1   
    48   26   45 1   
    49   26   46 1   
    50   27   28 1   
    51   27   47 1   
    52   27   48 1   
    53   28   29 1   
    54   28   30 1   
    55   28   58 1   
    56   29   49 1   
    57   29   50 1   
    58   29   51 1   
    59   30   52 1   
    60   30   53 1   
    61   30   54 1   
@<TRIPOS>SUBSTRUCTURE
     1 I1P         1 TEMP              0 ****  ****    0 ROOT
