@<TRIPOS>MOLECULE
I1S
   40    40     1     0     0
SMALL
bcc


@<TRIPOS>ATOM
      1 C4          0.3340    1.8050    3.3910 c1        1 I1S     -0.197500
      2 C5          2.1430    0.0080    0.9830 c2        1 I1S     -0.234000
      3 C6          0.3020    0.6080    3.3380 cg        1 I1S     -0.121300
      4 C7          0.2410   -0.8000    3.3060 ce        1 I1S      0.016100
      5 O8         -1.6740   -0.9060    6.9880 os        1 I1S     -0.429900
      6 N10        -2.9180   -1.2560    5.0050 n         1 I1S     -0.487900
      7 C11        -1.8690   -1.8330    4.2030 c3        1 I1S     -0.122500
      8 O12        -3.8930   -0.5100    6.9770 o         1 I1S     -0.630000
      9 P13        -1.9670   -3.5720    4.2100 p5        1 I1S      1.322600
     10 C17        -1.6910   -0.6170    8.3860 c3        1 I1S      0.182600
     11 C18        -1.7660   -1.8430    9.2360 c2        1 I1S     -0.104400
     12 C19        -1.2690   -3.1300    8.6300 c3        1 I1S     -0.054000
     13 O1P        -3.4590   -3.7500    3.5490 oh        1 I1S     -0.799400
     14 C20        -1.7540   -4.3000    9.4330 c2        1 I1S     -0.132300
     15 C21        -1.8580   -4.0220   10.7270 c1        1 I1S     -0.104800
     16 C22         1.4100   -1.1000    1.1070 cf        1 I1S     -0.118000
     17 C23         0.7330   -1.5580    2.3010 cf        1 I1S     -0.120000
     18 C24        -0.4270   -1.4420    4.4900 c3        1 I1S     -0.018200
     19 O2P        -1.9850   -4.0580    5.6060 o         1 I1S     -0.851500
     20 C30        -1.9420   -2.8800   11.4070 ce        1 I1S     -0.169100
     21 C31        -2.2060   -1.7440   10.5200 ce        1 I1S     -0.167000
     22 O3P        -1.0790   -4.0920    3.1440 o         1 I1S     -0.851500
     23 H4         -3.4320   -4.2060    2.7160 ho        1 I1S      0.432000
     24 H5          2.6430    0.2710    0.0430 ha        1 I1S      0.106500
     25 H6          2.2930    0.7180    1.8070 ha        1 I1S      0.106500
     26 HN10       -2.1080   -1.4790    3.1530 h1        1 I1S      0.079700
     27 H11        -3.8220   -1.5640    4.6990 hn        1 I1S      0.330500
     28 H17        -2.5240    0.0950    8.6360 h1        1 I1S      0.065200
     29 H17A       -0.6940   -0.1140    8.5450 h1        1 I1S      0.065200
     30 H19        -0.1560   -3.0770    8.5060 hc        1 I1S      0.124200
     31 H20        -1.7070   -3.2610    7.5880 hc        1 I1S      0.124200
     32 H21        -2.0800   -5.2060    8.9150 ha        1 I1S      0.161000
     33 H22         0.5910   -2.6610    2.3530 ha        1 I1S      0.194000
     34 H23         1.3000   -1.7860    0.2450 ha        1 I1S      0.118000
     35 H24         0.1420   -2.3750    4.7630 hc        1 I1S      0.067700
     36 H24A       -0.3400   -0.7380    5.3620 hc        1 I1S      0.067700
     37 H30        -2.6350   -0.8250   10.9330 ha        1 I1S      0.122000
     38 H31        -1.7260   -2.7180   12.4640 ha        1 I1S      0.131000
     39 H102        0.3530    2.8610    3.4410 ha        1 I1S      0.153500
     40 C9         -2.9000   -0.9120    6.3370 c         1 I1S      0.743100
@<TRIPOS>BOND
     1    1    3 3   
     2    1   39 1   
     3    2   16 2   
     4    2   24 1   
     5    2   25 1   
     6    3    4 1   
     7    4   17 2   
     8    4   18 1   
     9    5   10 1   
    10    5   40 1   
    11    6    7 1   
    12    6   27 1   
    13    6   40 1   
    14    7    9 1   
    15    7   18 1   
    16    7   26 1   
    17    8   40 2   
    18    9   13 1   
    19    9   19 1   
    20    9   22 1   
    21   10   11 1   
    22   10   28 1   
    23   10   29 1   
    24   11   12 1   
    25   11   21 2   
    26   12   14 1   
    27   12   30 1   
    28   12   31 1   
    29   13   23 1   
    30   14   15 2   
    31   14   32 1   
    32   15   20 2   
    33   16   17 1   
    34   16   34 1   
    35   17   33 1   
    36   18   35 1   
    37   18   36 1   
    38   20   21 1   
    39   20   38 1   
    40   21   37 1   
@<TRIPOS>SUBSTRUCTURE
     1 I1S         1 TEMP              0 ****  ****    0 ROOT
