@<TRIPOS>MOLECULE
I1S
   39    40     1     0     0
SMALL
bcc


@<TRIPOS>ATOM
      1 C4         -5.6300   -0.8310   -0.0690 ca        1 I1S     -0.163000
      2 C5         -5.5180   -2.1300    0.4310 ca        1 I1S     -0.180000
      3 C6         -4.5060   -0.1500   -0.5290 ca        1 I1S     -0.129500
      4 C7         -3.2470   -0.7740   -0.4990 ca        1 I1S     -0.021300
      5 O8          2.1140   -0.2220   -0.0740 os        1 I1S     -0.484900
      6 N10         0.0400    0.7830    0.0400 n         1 I1S     -0.408900
      7 C11        -1.3850    0.8280   -0.0170 c3        1 I1S     -0.088500
      8 O12         0.4530   -1.4630    0.7730 o         1 I1S     -0.675000
      9 P13        -1.7630    2.6370   -0.5620 p5        1 I1S      1.189700
     10 C17         2.9560   -1.2630    0.4010 c3        1 I1S      0.197700
     11 C18         4.3820   -0.8690    0.1890 ca        1 I1S     -0.062300
     12 C19         4.7370    0.4010   -0.2820 ca        1 I1S     -0.120500
     13 O1P        -1.6860    3.3950    0.7270 o         1 I1S     -0.921500
     14 C20         6.0800    0.7300   -0.4590 ca        1 I1S     -0.144000
     15 C21         7.0770   -0.2010   -0.1680 ca        1 I1S     -0.157000
     16 C22        -4.2680   -2.7430    0.4840 ca        1 I1S     -0.163000
     17 C23        -3.1370   -2.0670    0.0250 ca        1 I1S     -0.129500
     18 C24        -2.0550   -0.0610   -1.0410 c3        1 I1S     -0.026100
     19 O2P        -0.6320    2.8770   -1.5360 o         1 I1S     -0.921500
     20 C30         6.7280   -1.4670    0.3000 ca        1 I1S     -0.144000
     21 C31         5.3870   -1.8010    0.4780 ca        1 I1S     -0.120500
     22 O3P        -3.1340    2.5110   -1.1760 o         1 I1S     -0.921500
     23 H4         -6.6120   -0.3380   -0.0920 ha        1 I1S      0.095000
     24 H5         -6.4090   -2.6620    0.7900 ha        1 I1S      0.085000
     25 H6         -4.5590    0.8990   -0.9020 ha        1 I1S      0.182000
     26 HN10        0.4780    1.5020   -0.5330 hn        1 I1S      0.363500
     27 H11        -1.8080    0.6820    1.0020 h1        1 I1S      0.059700
     28 H17         2.7610   -1.4450    1.4930 h1        1 I1S      0.046700
     29 H17A        2.7230   -2.2080   -0.1630 h1        1 I1S      0.046700
     30 H19         3.9390    1.1310   -0.5100 ha        1 I1S      0.152000
     31 H20         6.3510    1.7290   -0.8290 ha        1 I1S      0.114500
     32 H21         8.1340    0.0620   -0.3080 ha        1 I1S      0.107000
     33 H22        -4.1710   -3.7570    0.8940 ha        1 I1S      0.095000
     34 H23        -2.1430   -2.5350    0.0930 ha        1 I1S      0.182000
     35 H24        -1.3410   -0.8330   -1.4450 hc        1 I1S      0.048200
     36 H24A       -2.3830    0.5930   -1.9020 hc        1 I1S      0.048200
     37 H30         7.5100   -2.2030    0.5300 ha        1 I1S      0.114500
     38 H31         5.1110   -2.7990    0.8470 ha        1 I1S      0.152000
     39 C9          0.7430   -0.3570    0.2590 c         1 I1S      0.702100
@<TRIPOS>BOND
     1    1    2 ar  
     2    1    3 ar  
     3    1   23 1   
     4    2   16 ar  
     5    2   24 1   
     6    3    4 ar  
     7    3   25 1   
     8    4   17 ar  
     9    4   18 1   
    10    5   10 1   
    11    5   39 1   
    12    6    7 1   
    13    6   26 1   
    14    6   39 1   
    15    7    9 1   
    16    7   18 1   
    17    7   27 1   
    18    8   39 2   
    19    9   13 1   
    20    9   19 1   
    21    9   22 1   
    22   10   11 1   
    23   10   28 1   
    24   10   29 1   
    25   11   12 ar  
    26   11   21 ar  
    27   12   14 ar  
    28   12   30 1   
    29   14   15 ar  
    30   14   31 1   
    31   15   20 ar  
    32   15   32 1   
    33   16   17 ar  
    34   16   33 1   
    35   17   34 1   
    36   18   35 1   
    37   18   36 1   
    38   20   21 ar  
    39   20   37 1   
    40   21   38 1   
@<TRIPOS>SUBSTRUCTURE
     1 I1S         1 TEMP              0 ****  ****    0 ROOT
