@<TRIPOS>MOLECULE
I1S
   40    40     1     0     0
SMALL
bcc


@<TRIPOS>ATOM
      1 C4          0.9450    1.7520    3.7890 c1        1 I1S     -0.199500
      2 C5          1.8740    0.1700    0.8080 c2        1 I1S     -0.232000
      3 C6          0.7650    0.5810    3.6120 cg        1 I1S     -0.119300
      4 C7          0.5370   -0.8000    3.4420 ce        1 I1S      0.018100
      5 O8         -1.7180   -0.8030    6.8970 os        1 I1S     -0.426900
      6 N10        -2.7920   -1.0950    4.8080 ns        1 I1S     -0.485900
      7 C11        -1.7100   -1.7220    4.0900 c3        1 I1S     -0.122500
      8 O12        -3.9220   -0.3650    6.6990 o         1 I1S     -0.634000
      9 P13        -1.9380   -3.4490    4.0190 p5        1 I1S      1.319600
     10 C17        -1.8480   -0.5480    8.2970 c3        1 I1S      0.190700
     11 C18        -1.8470   -1.8010    9.1110 ca        1 I1S     -0.111300
     12 C19        -1.9610   -3.0720    8.5400 ca        1 I1S     -0.116500
     13 O1P        -3.3530   -3.4860    3.1840 oh        1 I1S     -0.800400
     14 C20        -1.9580   -4.2020    9.3610 ca        1 I1S     -0.137500
     15 C21        -1.8440   -4.0720   10.7430 ca        1 I1S     -0.147000
     16 C22         1.8370   -1.0660    1.3120 cf        1 I1S     -0.118000
     17 C23         1.0220   -1.5290    2.4130 cf        1 I1S     -0.124000
     18 C24        -0.2770   -1.4560    4.5240 c3        1 I1S     -0.019200
     19 O2P        -2.1620   -3.9750    5.3810 o         1 I1S     -0.850000
     20 C30        -1.7310   -2.8030   11.3140 ca        1 I1S     -0.137500
     21 C31        -1.7320   -1.6730   10.5020 ca        1 I1S     -0.116500
     22 O3P        -0.9750   -4.0030    3.0390 o         1 I1S     -0.850000
     23 H4         -3.2580   -3.9050    2.3370 ho        1 I1S      0.431000
     24 H5          2.5110    0.4280   -0.0470 ha        1 I1S      0.107000
     25 H6          1.2730    0.9960    1.2100 ha        1 I1S      0.107000
     26 HN10       -1.8190   -1.3190    3.0360 h1        1 I1S      0.078700
     27 H11        -3.6790   -1.3580    4.4190 hn        1 I1S      0.329500
     28 H17        -0.9290    0.0610    8.5300 h1        1 I1S      0.063700
     29 H17A       -2.7700    0.0540    8.5170 h1        1 I1S      0.063700
     30 H19        -2.0520   -3.1970    7.4390 ha        1 I1S      0.166000
     31 H20        -2.0490   -5.1970    8.8990 ha        1 I1S      0.125500
     32 H21        -1.8430   -4.9640   11.3840 ha        1 I1S      0.113000
     33 H22         0.7840   -2.6170    2.3800 ha        1 I1S      0.194000
     34 H23         2.4550   -1.8610    0.8530 ha        1 I1S      0.113000
     35 H24         0.2010   -2.4420    4.7820 hc        1 I1S      0.070700
     36 H24A       -0.2170   -0.8130    5.4440 hc        1 I1S      0.070700
     37 H30        -1.6450   -0.6730   10.9520 ha        1 I1S      0.166000
     38 H31        -1.6420   -2.6960   12.4040 ha        1 I1S      0.125500
     39 H102        1.0980    2.7870    3.9480 ha        1 I1S      0.152500
     40 C9         -2.8820   -0.7780    6.1430 c         1 I1S      0.743100
@<TRIPOS>BOND
     1    1    3 3   
     2    1   39 1   
     3    2   16 2   
     4    2   24 1   
     5    2   25 1   
     6    3    4 1   
     7    4   17 2   
     8    4   18 1   
     9    5   10 1   
    10    5   40 1   
    11    6    7 1   
    12    6   27 1   
    13    6   40 1   
    14    7    9 1   
    15    7   18 1   
    16    7   26 1   
    17    8   40 2   
    18    9   13 1   
    19    9   19 1   
    20    9   22 1   
    21   10   11 1   
    22   10   28 1   
    23   10   29 1   
    24   11   12 ar  
    25   11   21 ar  
    26   12   14 ar  
    27   12   30 1   
    28   13   23 1   
    29   14   15 ar  
    30   14   31 1   
    31   15   20 ar  
    32   15   32 1   
    33   16   17 1   
    34   16   34 1   
    35   17   33 1   
    36   18   35 1   
    37   18   36 1   
    38   20   21 ar  
    39   20   38 1   
    40   21   37 1   
@<TRIPOS>SUBSTRUCTURE
     1 I1S         1 TEMP              0 ****  ****    0 ROOT
