@<TRIPOS>MOLECULE
I1S
   40    39     1     0     0
SMALL
bcc


@<TRIPOS>ATOM
      1 C4         -1.2640    0.0420    0.8820 c1        1 I1S      0.121000
      2 C5          0.8030    0.2100   -0.4990 c2        1 I1S     -0.236000
      3 C6         -0.8300   -0.2580    2.0860 c2        1 I1S     -0.442000
      4 C7          0.5330   -0.3640    2.5620 c2        1 I1S      0.052000
      5 O8         -0.4180   -2.4210    7.7220 os        1 I1S     -0.280000
      6 N10        -0.6890   -1.8600    5.3800 n4        1 I1S      0.156000
      7 C11         0.4850   -1.5910    4.6970 c2        1 I1S     -0.622000
      8 O12        -0.8950   -0.2680    7.2810 o         1 I1S     -0.359000
      9 P13        -4.1190   -2.0960    4.7650 p3        1 I1S      2.406000
     10 C17        -0.5440   -2.1700    9.1230 c3        1 I1S      0.017000
     11 C18        -1.8030   -2.7460    9.6800 c2        1 I1S     -0.101000
     12 C19        -2.5570   -3.7240    8.8120 c3        1 I1S     -0.132000
     13 O1P        -3.2670   -1.1200    4.0520 o         1 I1S     -1.122333
     14 C20        -3.9650   -3.8720    9.3130 c2        1 I1S     -0.077000
     15 C21        -4.0420   -3.7640   10.6330 c1        1 I1S     -0.214000
     16 C22         1.4770   -0.6370    0.2860 c2        1 I1S     -0.104000
     17 C23         1.5810   -0.5340    1.7250 c2        1 I1S     -0.227000
     18 C24         0.7400   -0.2940    4.0460 c3        1 I1S     -0.022000
     19 O2P        -5.5610   -2.2480    4.5670 o         1 I1S     -1.122333
     20 C30        -3.2370   -3.2420   11.5560 c2        1 I1S     -0.105000
     21 C31        -2.1880   -2.4210   10.9440 c2        1 I1S     -0.165000
     22 O3P        -3.3190   -2.9080    5.7050 o         1 I1S     -1.122333
     23 H4         -1.6330   -0.4740    2.8480 ha        1 I1S      0.260000
     24 H5          0.7140    0.0510   -1.5810 ha        1 I1S      0.117000
     25 H6          0.3360    1.1380   -0.1350 ha        1 I1S      0.117000
     26 HN10        1.3250   -2.2660    4.8790 hx        1 I1S      0.129000
     27 H11        -0.8650   -2.8690    5.4380 hn        1 I1S      0.271000
     28 H17        -0.4790   -1.0690    9.3390 h1        1 I1S      0.106000
     29 H17A        0.3460   -2.6980    9.5670 h1        1 I1S      0.106000
     30 H19        -1.9800   -4.6830    8.7560 hc        1 I1S      0.154000
     31 H20        -2.6320   -3.3220    7.7530 hc        1 I1S      0.154000
     32 H21        -4.7890   -3.9340    8.5960 ha        1 I1S      0.163000
     33 H22         2.5960   -0.6620    2.1360 ha        1 I1S      0.124000
     34 H23         2.0000   -1.5080   -0.1510 ha        1 I1S      0.108000
     35 H24         1.8020    0.0170    4.2500 hc        1 I1S      0.069500
     36 H24A        0.0750    0.5160    4.4600 hc        1 I1S      0.069500
     37 H30        -1.6740   -1.6650   11.5470 ha        1 I1S      0.124000
     38 H31        -3.2210   -3.4560   12.6260 ha        1 I1S      0.136000
     39 H102       -1.5220   -1.3930    4.9540 hn        1 I1S      0.271000
     40 C9         -0.7150   -1.4060    6.8450 c2        1 I1S      0.221000
@<TRIPOS>BOND
     1    1    3 1   
     2    2   16 1   
     3    2   24 1   
     4    2   25 1   
     5    3    4 1   
     6    3   23 1   
     7    4   17 1   
     8    4   18 1   
     9    5   10 1   
    10    5   40 1   
    11    6    7 1   
    12    6   27 1   
    13    6   39 1   
    14    6   40 1   
    15    7   18 1   
    16    7   26 1   
    17    8   40 1   
    18    9   13 1   
    19    9   19 1   
    20    9   22 1   
    21   10   11 1   
    22   10   28 1   
    23   10   29 1   
    24   11   12 1   
    25   11   21 1   
    26   12   14 1   
    27   12   30 1   
    28   12   31 1   
    29   14   15 1   
    30   14   32 1   
    31   15   20 1   
    32   16   17 1   
    33   16   34 1   
    34   17   33 1   
    35   18   35 1   
    36   18   36 1   
    37   20   21 1   
    38   20   38 1   
    39   21   37 1   
@<TRIPOS>SUBSTRUCTURE
     1 I1S         1 TEMP              0 ****  ****    0 ROOT
