@<TRIPOS>MOLECULE
I20
   73    70     1     0     0
SMALL
bcc


@<TRIPOS>ATOM
      1 C1         -1.8330   -0.4330   -0.7760 c3        1 I20     -0.260000
      2 C2         -0.3740   -0.4260   -0.7480 c3        1 I20     -0.691000
      3 O5          1.7260    1.1420   -1.5810 o         1 I20     -1.130000
      4 C7         -0.2470    1.0450   -3.3850 c3        1 I20     -0.946000
      5 C8          0.1050    2.3580   -4.0610 c3        1 I20     -0.101000
      6 C9          1.2910    2.1520   -4.9660 c3        1 I20     -0.115000
      7 C10        -1.0860    2.8480   -4.8820 c2        1 I20      0.292000
      8 C11         1.8400    3.5390   -5.4340 c2        1 I20     -0.075000
      9 C12         2.3990    4.4380   -4.4890 c2        1 I20     -0.123000
     10 C13         2.9990    5.6340   -4.9270 c1        1 I20     -0.137000
     11 C14         3.0430    5.9350   -6.2910 c1        1 I20     -0.143000
     12 C15         2.4960    5.0560   -7.2130 c1        1 I20     -0.143000
     13 C16         1.8840    3.8360   -6.7710 c1        1 I20     -0.122000
     14 C27         0.5840   -3.1590    3.3100 c3        1 I20     -0.153000
     15 N29         1.5130   -2.2160    5.2730 n3        1 I20     -0.320000
     16 C30         0.3910   -1.6460    1.2750 c1        1 I20      0.295000
     17 C32         0.3980   -1.7000    2.8410 c2        1 I20     -0.184000
     18 C35        -3.2660    4.0030   -4.9280 c3        1 I20     -0.064000
     19 NZ         -0.0210   -8.3390    6.0920 n1        1 I20     -0.064000
     20 CE          0.4930   -7.4580    6.6250 c1        1 I20     -0.128000
     21 CD          1.0810   -6.4530    7.2340 c2        1 I20      0.108000
     22 CG          0.4800   -6.2930    8.7260 c3        1 I20     -0.154000
     23 CB          0.1480   -5.0990    8.8300 c3        1 I20     -0.190000
     24 CA         -0.1960   -4.5950    7.3870 c3        1 I20     -0.033000
     25 N           0.6560   -5.1410    6.5790 n         1 I20     -0.317000
     26 C           1.1180   -4.6090    5.2910 c2        1 I20      0.258000
     27 O           1.9480   -5.2480    4.6140 o         1 I20     -0.394000
     28 C28         0.6300   -3.1940    4.8080 c3        1 I20     -0.040000
     29 O31         0.6170   -2.6840    0.6110 o         1 I20     -0.367000
     30 N3          0.0730   -0.4020    0.5930 n3        1 I20     -0.330000
     31 P4          0.2650    1.1080   -1.6540 p5        1 I20      2.821000
     32 O6         -0.3430    2.4360   -0.9610 oh        1 I20     -0.860000
     33 N34        -2.0220    3.7740   -4.3040 n         1 I20     -0.310000
     34 C37        -3.5050    5.5110   -5.0550 c2        1 I20      0.319000
     35 O39        -3.6020    6.0760   -6.2690 o         1 I20     -0.592000
     36 O38        -3.5830    6.2440   -3.9940 o         1 I20     -0.592000
     37 C36        -4.3890    3.3700   -4.0910 c3        1 I20     -0.196000
     38 O33        -1.2850    2.4080   -5.9260 o         1 I20     -0.367000
     39 H11        -2.1540    0.4070   -0.5050 hc        1 I20      0.102000
     40 H12A       -2.1390   -1.0600   -0.2220 hc        1 I20      0.102000
     41 H13A       -2.1410   -0.6210   -1.6790 hc        1 I20      0.102000
     42 H2         -0.0430   -1.2130   -1.1790 h1        1 I20      0.163000
     43 H71        -1.2300    0.8980   -3.4340 hc        1 I20      0.172000
     44 H72         0.1820    0.3640   -3.8030 hc        1 I20      0.172000
     45 H8          0.3140    2.9860   -3.4200 hc        1 I20      0.117000
     46 H91         2.0070    1.6560   -4.4710 hc        1 I20      0.102000
     47 H92         1.0310    1.6580   -5.7090 hc        1 I20      0.102000
     48 H12         2.3660    4.2200   -3.5020 ha        1 I20      0.184000
     49 H13         3.3870    6.2590   -4.2720 ha        1 I20      0.126000
     50 H14         3.4970    6.6830   -6.5830 ha        1 I20      0.118000
     51 H15         2.5270    5.2610   -8.1270 ha        1 I20      0.118000
     52 H16         1.5120    3.1430   -7.4800 ha        1 I20      0.136000
     53 H271       -0.1890   -3.7160    2.9850 hc        1 I20      0.100500
     54 H272        1.3940   -3.5050    2.9600 hc        1 I20      0.100500
     55 H291        2.2700   -2.6520    5.7520 hn        1 I20      0.153500
     56 H292        1.0450   -1.6210    5.8820 hn        1 I20      0.153500
     57 H321        1.0890   -1.1870    3.1610 ha        1 I20      0.124000
     58 H322       -0.4290   -1.3630    3.1760 ha        1 I20      0.124000
     59 H35        -3.2620    3.5820   -5.8590 h1        1 I20      0.096000
     60 HD          1.9930   -6.7020    7.1580 h4        1 I20      0.125000
     61 HG1        -0.3150   -6.8800    8.8390 hc        1 I20      0.102000
     62 HG2         1.1430   -6.5080    9.3740 hc        1 I20      0.102000
     63 HB1         0.8880   -4.5760    9.2010 hc        1 I20      0.140500
     64 HB2        -0.5580   -5.0270    9.3500 hc        1 I20      0.140500
     65 HA1        -0.1150   -3.6230    7.3470 h1        1 I20      0.093500
     66 HA2        -1.1310   -4.8730    7.1410 h1        1 I20      0.093500
     67 H28        -0.3220   -3.0080    5.1870 h1        1 I20      0.121000
     68 HN3         0.2560    0.3830    0.9860 hn        1 I20      0.220000
     69 HO6         0.3240    2.8490   -0.4290 ho        1 I20      0.309000
     70 HN34       -1.7640    4.3050   -3.5170 hn        1 I20      0.192000
     71 H361       -5.2370    3.6610   -4.4240 hc        1 I20      0.080667
     72 H362       -4.3280    2.3440   -4.1560 hc        1 I20      0.080667
     73 H363       -4.2920    3.6580   -3.1090 hc        1 I20      0.080667
@<TRIPOS>BOND
     1    1    2 1   
     2    1   39 1   
     3    1   40 1   
     4    1   41 1   
     5    2   30 1   
     6    2   31 1   
     7    2   42 1   
     8    3   31 1   
     9    4    5 1   
    10    4   31 1   
    11    4   43 1   
    12    4   44 1   
    13    5    6 1   
    14    5    7 1   
    15    5   45 1   
    16    6    8 1   
    17    6   46 1   
    18    6   47 1   
    19    7   33 1   
    20    7   38 1   
    21    8    9 1   
    22    8   13 1   
    23    9   10 1   
    24    9   48 1   
    25   10   49 1   
    26   11   12 1   
    27   11   50 1   
    28   12   51 1   
    29   13   52 1   
    30   14   17 1   
    31   14   28 1   
    32   14   53 1   
    33   14   54 1   
    34   15   28 1   
    35   15   55 1   
    36   15   56 1   
    37   16   29 1   
    38   16   30 1   
    39   17   57 1   
    40   17   58 1   
    41   18   33 1   
    42   18   34 1   
    43   18   37 1   
    44   18   59 1   
    45   19   20 1   
    46   21   22 1   
    47   21   25 1   
    48   21   60 1   
    49   22   23 1   
    50   22   61 1   
    51   22   62 1   
    52   23   24 1   
    53   23   63 1   
    54   23   64 1   
    55   24   25 1   
    56   24   65 1   
    57   24   66 1   
    58   25   26 1   
    59   26   27 1   
    60   26   28 1   
    61   28   67 1   
    62   30   68 1   
    63   31   32 1   
    64   32   69 1   
    65   33   70 1   
    66   34   35 1   
    67   34   36 1   
    68   37   71 1   
    69   37   72 1   
    70   37   73 1   
@<TRIPOS>SUBSTRUCTURE
     1 I20         1 TEMP              0 ****  ****    0 ROOT
