@<TRIPOS>MOLECULE
I20
   76    77     1     0     0
SMALL
bcc


@<TRIPOS>ATOM
      1 C1         -1.0880    0.2400   -0.2360 c3        1 I20     -0.148100
      2 C2          0.1180   -0.3500    0.4680 c3        1 I20     -0.138700
      3 O5          2.6050   -0.1500    0.7510 o         1 I20     -0.893300
      4 C7          1.5950    0.4730   -1.6830 c3        1 I20     -0.487600
      5 C8          2.2560    1.7330   -2.2450 c3        1 I20     -0.110700
      6 C9          3.3040    1.3730   -3.2930 c3        1 I20     -0.022200
      7 C10         1.1800    2.7170   -2.7450 c         1 I20      0.659100
      8 C11         4.2350    2.4890   -3.5510 c2        1 I20     -0.172500
      9 C12         4.9340    2.6020   -4.8800 c3        1 I20     -0.034000
     10 C13         6.3670    3.0120   -4.6710 c2        1 I20     -0.124200
     11 C14         6.8140    3.6430   -3.5600 ce        1 I20     -0.163000
     12 C15         5.7890    4.1300   -2.6260 ce        1 I20     -0.087100
     13 C16         4.6990    3.3650   -2.6630 c1        1 I20     -0.109800
     14 C27         2.7030   -1.6800    4.3830 c3        1 I20     -0.112400
     15 N29         3.9660   -2.2790    2.2710 n3        1 I20     -0.962800
     16 C30         0.8920   -1.2550    2.7120 c         1 I20      0.579100
     17 C32         1.7800   -0.6510    3.7620 c3        1 I20     -0.150400
     18 C35         0.6910    5.8100   -7.4850 cx        1 I20      0.081100
     19 NZ          8.3840   -0.7770    3.0070 n1        1 I20     -0.220800
     20 CD          7.4790   -2.8350    4.3400 c3        1 I20      0.216600
     21 CG          8.4510   -4.0310    4.2760 c3        1 I20     -0.092400
     22 CB          7.5980   -5.2790    4.1010 c3        1 I20     -0.103400
     23 CA          6.1400   -4.8220    4.0160 c3        1 I20      0.119800
     24 N           6.1340   -3.3270    3.8090 n4        1 I20     -0.598200
     25 C           4.9720   -2.6560    4.4910 c         1 I20      0.533100
     26 O           4.8720   -2.8000    5.7000 o         1 I20     -0.421100
     27 C28         4.0370   -1.7870    3.6170 c3        1 I20      0.136500
     28 O31         0.7840   -2.4240    2.3800 o         1 I20     -0.425100
     29 N3          0.0250   -0.2500    1.9520 n4        1 I20     -0.643800
     30 P4          1.5580    0.4730   -0.0650 p5        1 I20      1.530100
     31 O6          1.2490    1.9200    0.5210 oh        1 I20     -0.825400
     32 N34         1.2970    3.3450   -3.9330 n         1 I20     -0.601000
     33 C37         1.5780    4.8550   -6.8390 c         1 I20      0.700600
     34 O39         0.4490    5.2020   -6.1400 os        1 I20     -0.468900
     35 O38         2.4740    4.0960   -6.5430 o         1 I20     -0.549500
     36 C36         0.9750    7.2690   -7.4930 c3        1 I20     -0.110100
     37 O33         0.1820    2.9290   -1.9990 o         1 I20     -0.710100
     38 H11         0.1700   -1.4540    0.2230 hx        1 I20      0.144700
     39 H12A       -1.3790   -0.3890   -1.1190 hc        1 I20      0.092367
     40 H13A       -2.0020    0.2840    0.4110 hc        1 I20      0.092367
     41 H2         -0.8730    1.2850   -0.5870 hc        1 I20      0.092367
     42 H71         2.1520   -0.4210   -2.0890 hc        1 I20      0.148700
     43 H72         0.5800    0.3870   -2.1700 hc        1 I20      0.148700
     44 H8          2.8050    1.0430   -4.2440 hc        1 I20      0.063700
     45 H91         2.7910    2.2810   -1.4110 hc        1 I20      0.092700
     46 H92         3.9080    0.4960   -2.9230 hc        1 I20      0.063700
     47 H12         4.9010    1.5930   -5.3740 hc        1 I20      0.092700
     48 H13         4.4420    3.3350   -5.5790 hc        1 I20      0.092700
     49 H14         7.0400    2.7930   -5.5150 ha        1 I20      0.152000
     50 H15         7.8650    3.9080   -3.3950 ha        1 I20      0.156000
     51 H16         5.9260    5.0720   -2.0860 ha        1 I20      0.167000
     52 H271        2.2030   -2.6850    4.4320 hc        1 I20      0.101700
     53 H272        2.9220   -1.3650    5.4410 hc        1 I20      0.101700
     54 H291        7.3220   -2.5300    5.4230 hx        1 I20      0.143700
     55 H292        3.1620   -2.8540    2.1170 hn        1 I20      0.416800
     56 H321        2.3880    0.1790    3.2960 hc        1 I20      0.125700
     57 H322        1.1290   -0.2020    4.5650 hc        1 I20      0.125700
     58 H35        -0.0280    5.4520   -8.2530 h1        1 I20      0.126700
     59 HB1         5.5970   -5.3040    3.1580 hx        1 I20      0.112700
     60 HB2         7.7240   -5.9820    4.9650 hc        1 I20      0.102700
     61 HA1         7.8910   -5.8340    3.1720 hc        1 I20      0.102700
     62 HA2         5.5980   -5.0520    4.9770 hx        1 I20      0.112700
     63 H28         4.5330   -0.7630    3.6210 h1        1 I20      0.114700
     64 HN3        -0.9540   -0.4050    2.2330 hn        1 I20      0.467800
     65 HO6         0.9420    2.6450   -0.0400 ho        1 I20      0.538000
     66 HN34        0.6030    4.0100   -4.2030 hn        1 I20      0.348500
     67 H361        0.0150    7.8380   -7.4000 hc        1 I20      0.075367
     68 H362        1.6420    7.5660   -6.6480 hc        1 I20      0.075367
     69 H363        1.4650    7.5480   -8.4590 hc        1 I20      0.075367
     70 HD          6.0840   -3.1360    2.7980 hn        1 I20      0.480800
     71 CE          7.9610   -1.6940    3.5830 c1        1 I20      0.129700
     72 HG1         9.0460   -4.0700    5.2260 hc        1 I20      0.107700
     73 H293        4.0020   -1.5350    1.5940 hn        1 I20      0.416800
     74 H32         0.2950    0.7100    2.2170 hn        1 I20      0.467800
     75 H342        2.1050    3.2550   -4.5070 hn        1 I20      0.348500
     76 HG2         9.1740   -3.9150    3.4280 hc        1 I20      0.107700
@<TRIPOS>BOND
     1    1    2 1   
     2    1   39 1   
     3    1   40 1   
     4    1   41 1   
     5    2   29 1   
     6    2   30 1   
     7    2   38 1   
     8    3   30 2   
     9    4    5 1   
    10    4   30 1   
    11    4   42 1   
    12    4   43 1   
    13    5    6 1   
    14    5    7 1   
    15    5   45 1   
    16    6    8 1   
    17    6   44 1   
    18    6   46 1   
    19    7   32 1   
    20    7   37 2   
    21    8    9 1   
    22    8   13 2   
    23    9   10 1   
    24    9   47 1   
    25    9   48 1   
    26   10   11 2   
    27   10   49 1   
    28   11   12 1   
    29   11   50 1   
    30   12   13 2   
    31   12   51 1   
    32   14   17 1   
    33   14   27 1   
    34   14   52 1   
    35   14   53 1   
    36   15   27 1   
    37   15   55 1   
    38   15   73 1   
    39   16   17 1   
    40   16   28 2   
    41   16   29 1   
    42   17   56 1   
    43   17   57 1   
    44   18   33 1   
    45   18   34 1   
    46   18   36 1   
    47   18   58 1   
    48   19   71 3   
    49   20   21 1   
    50   20   24 1   
    51   20   54 1   
    52   20   71 1   
    53   21   22 1   
    54   21   72 1   
    55   21   76 1   
    56   22   23 1   
    57   22   60 1   
    58   22   61 1   
    59   23   24 1   
    60   23   59 1   
    61   23   62 1   
    62   24   25 1   
    63   24   70 1   
    64   25   26 2   
    65   25   27 1   
    66   27   63 1   
    67   29   64 1   
    68   29   74 1   
    69   30   31 1   
    70   31   65 1   
    71   32   66 1   
    72   32   75 1   
    73   33   34 1   
    74   33   35 2   
    75   36   67 1   
    76   36   68 1   
    77   36   69 1   
@<TRIPOS>SUBSTRUCTURE
     1 I20         1 TEMP              0 ****  ****    0 ROOT
