@<TRIPOS>MOLECULE
I20
   73    74     1     0     0
SMALL
bcc


@<TRIPOS>ATOM
      1 C1         -0.2290    2.5450    0.2450 c3        1 I20     -0.115100
      2 C2         -0.3320    1.0280    0.1520 c3        1 I20     -0.183500
      3 O5          1.0160   -0.8130    1.4740 o         1 I20     -0.892300
      4 C7          2.0580    0.3590   -0.6810 c3        1 I20     -0.448600
      5 C8          3.5310    0.1700   -0.3570 c3        1 I20     -0.105700
      6 C9          4.0640   -1.1880   -0.8230 c3        1 I20     -0.036100
      7 C10         4.3740    1.3100   -0.9700 c         1 I20      0.643100
      8 C11         4.8500   -1.8860    0.2360 ca        1 I20     -0.106300
      9 C12         4.1960   -2.4380    1.3450 ca        1 I20     -0.127500
     10 C13         4.9240   -3.1190    2.3200 ca        1 I20     -0.140500
     11 C14         6.3060   -3.2550    2.1940 ca        1 I20     -0.142000
     12 C15         6.9590   -2.7080    1.0910 ca        1 I20     -0.140500
     13 C16         6.2380   -2.0250    0.1100 ca        1 I20     -0.127500
     14 C27        -4.9840   -0.4240    0.6370 c3        1 I20     -0.076400
     15 N29        -6.1510   -1.3420    2.6300 n3        1 I20     -0.887800
     16 C30        -2.7350    0.6630    0.5820 c         1 I20      0.658100
     17 C32        -3.7760   -0.0200    1.4560 c3        1 I20     -0.143400
     18 C35         6.6650    2.0650   -1.4940 c3        1 I20     -0.060300
     19 NZ         -8.5660   -1.4070   -3.3670 n1        1 I20     -0.362800
     20 CD         -9.0760   -0.0700   -1.1640 c3        1 I20      0.168800
     21 CG         -9.6660    1.3190   -1.5180 c3        1 I20     -0.085400
     22 CB         -8.6280    2.3470   -1.0810 c3        1 I20     -0.093400
     23 CA         -7.5300    1.5710   -0.3320 c3        1 I20      0.089000
     24 N          -7.8970    0.1680   -0.3360 n         1 I20     -0.468800
     25 C          -7.4560   -0.7740    0.5750 c         1 I20      0.622100
     26 O          -8.0240   -1.8840    0.6410 o         1 I20     -0.617100
     27 C28        -6.2550   -0.4480    1.4980 c3        1 I20      0.116500
     28 O31        -3.0720    1.4190   -0.3530 o         1 I20     -0.625100
     29 N3         -1.4130    0.4530    0.9040 n         1 I20     -0.546900
     30 P4          1.1460    0.4070    0.6690 p5        1 I20      1.489100
     31 O6          1.7690    1.4660    1.7100 oh        1 I20     -0.789400
     32 N34         5.7170    1.2990   -0.6990 n         1 I20     -0.492900
     33 C37         7.7240    1.1470   -2.2050 c         1 I20      0.910600
     34 O39         8.5020    1.7150   -3.0130 o         1 I20     -0.835800
     35 O38         7.7330   -0.0900   -1.9390 o         1 I20     -0.835800
     36 C36         7.4120    3.0990   -0.6600 c3        1 I20     -0.076100
     37 O33         3.8110    2.2360   -1.6000 o         1 I20     -0.654100
     38 H11        -0.0680    2.8580    1.3050 hc        1 I20      0.062033
     39 H12A        0.6510    2.8730   -0.3600 hc        1 I20      0.062033
     40 H13A       -1.1510    3.0390   -0.1450 hc        1 I20      0.062033
     41 H2         -0.5240    0.8010   -0.9430 h1        1 I20      0.096700
     42 H71         1.9600    1.2970   -1.3090 hc        1 I20      0.133200
     43 H72         1.7260   -0.4560   -1.3800 hc        1 I20      0.133200
     44 H8          3.6560    0.2420    0.7640 hc        1 I20      0.064700
     45 H91         3.2120   -1.8590   -1.1170 hc        1 I20      0.065200
     46 H92         4.6990   -1.0550   -1.7420 hc        1 I20      0.065200
     47 H12         3.1030   -2.3370    1.4510 ha        1 I20      0.181000
     48 H13         4.4040   -3.5480    3.1880 ha        1 I20      0.126500
     49 H14         6.8780   -3.7920    2.9640 ha        1 I20      0.115000
     50 H15         8.0500   -2.8060    0.9860 ha        1 I20      0.126500
     51 H16         6.7730   -1.5870   -0.7590 ha        1 I20      0.181000
     52 H271       -5.1300    0.3080   -0.2020 hc        1 I20      0.072200
     53 H272       -4.8140   -1.4330    0.1780 hc        1 I20      0.072200
     54 H291       -7.0470   -1.4580    3.0640 hn        1 I20      0.361300
     55 H292       -5.8200   -2.2430    2.3380 hn        1 I20      0.361300
     56 H321       -4.0690    0.7230    2.2470 hc        1 I20      0.072700
     57 H322       -3.3570   -0.9180    1.9820 hc        1 I20      0.072700
     58 H35         6.1000    2.6070   -2.3080 h1        1 I20      0.070700
     59 HG2       -10.6270    1.4620   -0.9650 hc        1 I20      0.062200
     60 HB1        -8.1900    2.8720   -1.9650 hc        1 I20      0.058700
     61 HB2        -9.0840    3.1180   -0.4140 hc        1 I20      0.058700
     62 HA1        -6.5370    1.7050   -0.8470 h1        1 I20      0.058700
     63 HA2        -7.4320    1.9500    0.7220 h1        1 I20      0.058700
     64 H28        -6.4200    0.5870    1.9280 h1        1 I20      0.072700
     65 HN3        -1.1640   -0.2530    1.5660 hn        1 I20      0.341500
     66 HO6         2.0550    1.0890    2.5400 ho        1 I20      0.477000
     67 HN34        6.1030    0.4340   -0.3670 hn        1 I20      0.319500
     68 H361        8.1650    3.5900   -1.3250 hc        1 I20      0.028367
     69 H362        6.7180    3.8730   -0.2540 hc        1 I20      0.028367
     70 H363        7.9500    2.6190    0.1920 hc        1 I20      0.028367
     71 HD         -9.8210   -0.6920   -0.5770 h1        1 I20      0.097700
     72 CE         -8.7780   -0.8120   -2.3920 c1        1 I20      0.206700
     73 HG1        -9.8800    1.3970   -2.6110 hc        1 I20      0.062200
@<TRIPOS>BOND
     1    1    2 1   
     2    1   38 1   
     3    1   39 1   
     4    1   40 1   
     5    2   29 1   
     6    2   30 1   
     7    2   41 1   
     8    3   30 2   
     9    4    5 1   
    10    4   30 1   
    11    4   42 1   
    12    4   43 1   
    13    5    6 1   
    14    5    7 1   
    15    5   44 1   
    16    6    8 1   
    17    6   45 1   
    18    6   46 1   
    19    7   32 1   
    20    7   37 2   
    21    8    9 ar  
    22    8   13 ar  
    23    9   10 ar  
    24    9   47 1   
    25   10   11 ar  
    26   10   48 1   
    27   11   12 ar  
    28   11   49 1   
    29   12   13 ar  
    30   12   50 1   
    31   13   51 1   
    32   14   17 1   
    33   14   27 1   
    34   14   52 1   
    35   14   53 1   
    36   15   27 1   
    37   15   54 1   
    38   15   55 1   
    39   16   17 1   
    40   16   28 2   
    41   16   29 1   
    42   17   56 1   
    43   17   57 1   
    44   18   32 1   
    45   18   33 1   
    46   18   36 1   
    47   18   58 1   
    48   19   72 3   
    49   20   21 1   
    50   20   24 1   
    51   20   71 1   
    52   20   72 1   
    53   21   22 1   
    54   21   59 1   
    55   21   73 1   
    56   22   23 1   
    57   22   60 1   
    58   22   61 1   
    59   23   24 1   
    60   23   62 1   
    61   23   63 1   
    62   24   25 1   
    63   25   26 2   
    64   25   27 1   
    65   27   64 1   
    66   29   65 1   
    67   30   31 1   
    68   31   66 1   
    69   32   67 1   
    70   33   34 1   
    71   33   35 1   
    72   36   68 1   
    73   36   69 1   
    74   36   70 1   
@<TRIPOS>SUBSTRUCTURE
     1 I20         1 TEMP              0 ****  ****    0 ROOT
