@<TRIPOS>MOLECULE
I21
   67    71     1     0     0
SMALL
bcc


@<TRIPOS>ATOM
      1 C3         29.9200   43.8150    0.8100 ca        1 I21     -0.146600
      2 C4         28.7150   44.4430    0.4680 ca        1 I21     -0.053000
      3 C5         27.6190   43.6810    0.0500 cp        1 I21     -0.070000
      4 C6         27.7350   42.2870   -0.0240 ca        1 I21     -0.079000
      5 C7         28.9390   41.6620    0.3070 ca        1 I21     -0.109300
      6 C8         30.0350   42.4250    0.7250 ca        1 I21     -0.046000
      7 C9         31.0490   44.6870    1.2440 c         1 I21      0.726100
      8 C10        29.0460   40.1790    0.1820 c3        1 I21      0.186700
      9 O3         29.8340   39.7110    1.2920 os        1 I21     -0.426900
     10 N2         32.1150   44.0900    1.9510 ne        1 I21     -0.667100
     11 C11        32.3770   44.2060    3.2060 cf        1 I21      0.611200
     12 C12        31.0380   37.9310    2.4700 c3        1 I21      0.155200
     13 C13        33.5770   43.5730    3.7950 cf        1 I21     -0.233600
     14 C27        34.1760   42.4340    3.4350 ce        1 I21     -0.063200
     15 N3         30.7710   38.7120    3.6720 n3        1 I21     -0.894800
     16 C14        32.5170   37.9730    1.9880 c3        1 I21     -0.074100
     17 C15        33.8120   41.5240    2.3560 ca        1 I21     -0.066800
     18 C16        33.3560   40.2370    2.6720 ca        1 I21     -0.123000
     19 C17        33.0180   39.3330    1.6600 ca        1 I21     -0.096300
     20 C18        33.1830   39.7130    0.3210 ca        1 I21     -0.117000
     21 C19        33.6570   40.9830    0.0040 ca        1 I21     -0.133000
     22 C20        33.9670   41.8930    1.0140 ca        1 I21     -0.083000
     23 C21        30.4750   45.0140    6.3640 ca        1 I21     -0.131500
     24 C22        31.2200   44.3240    5.4110 ca        1 I21     -0.099500
     25 C23        31.5810   44.9530    4.2130 ca        1 I21     -0.212900
     26 C24        31.2000   46.2800    3.9810 ca        1 I21     -0.099500
     27 C25        30.4620   46.9680    4.9440 ca        1 I21     -0.131500
     28 C26        30.0970   46.3380    6.1320 ca        1 I21     -0.106000
     29 C29        30.1770   38.3890    1.2860 c         1 I21      0.642100
     30 C30        30.6950   36.4470    2.7130 c3        1 I21     -0.091100
     31 O1         31.1050   45.8790    0.8910 o         1 I21     -0.561100
     32 O2         29.8060   37.6960    0.3370 o         1 I21     -0.548000
     33 C31        25.7890   44.0090   -1.5790 ca        1 I21     -0.127000
     34 C32        24.6010   44.6080   -1.9870 ca        1 I21     -0.107000
     35 C33        23.9620   45.5320   -1.1600 ca        1 I21     -0.133000
     36 C34        24.5110   45.8520    0.0780 ca        1 I21     -0.092000
     37 C35        25.7090   45.2520    0.4960 ca        1 I21     -0.006000
     38 C36        26.3630   44.3250   -0.3380 cp        1 I21      0.007000
     39 N1         26.6230   45.8740    2.8330 n1        1 I21     -0.359800
     40 H4         28.6430   45.5430    0.5220 ha        1 I21      0.163000
     41 H6         26.8690   41.6850   -0.3440 ha        1 I21      0.141000
     42 H8         30.9790   41.9130    0.9780 ha        1 I21      0.167000
     43 H101       28.0430   39.6780    0.2280 h1        1 I21      0.063200
     44 H102       29.5590   39.8930   -0.7760 h1        1 I21      0.063200
     45 H13        33.9780   44.1500    4.6500 ha        1 I21      0.144000
     46 H27        35.0550   42.0930    4.0180 ha        1 I21      0.132000
     47 HN31       31.4320   38.4670    4.3830 hn        1 I21      0.364800
     48 HN32       30.8340   39.6920    3.4730 hn        1 I21      0.364800
     49 H141       32.6010   37.3070    1.0880 hc        1 I21      0.065200
     50 H142       33.1550   37.5250    2.7980 hc        1 I21      0.065200
     51 H16        33.2740   39.9390    3.7280 ha        1 I21      0.125000
     52 H18        32.9340   39.0030   -0.4830 ha        1 I21      0.137000
     53 H19        33.7870   41.2730   -1.0490 ha        1 I21      0.138000
     54 H20        34.3290   42.9010    0.7590 ha        1 I21      0.152000
     55 H21        30.1830   44.5140    7.2990 ha        1 I21      0.137500
     56 H22        31.5210   43.2810    5.5930 ha        1 I21      0.147500
     57 H24        31.4750   46.7770    3.0350 ha        1 I21      0.147500
     58 H25        30.1600   48.0100    4.7570 ha        1 I21      0.137500
     59 H26        29.5060   46.8800    6.8850 ha        1 I21      0.136000
     60 H301       30.8170   35.8810    1.7590 hc        1 I21      0.054367
     61 H302       31.3750   36.0190    3.4860 hc        1 I21      0.054367
     62 H303       29.6390   36.3430    3.0590 hc        1 I21      0.054367
     63 H31        26.2950   43.2830   -2.2340 ha        1 I21      0.143000
     64 H32        24.1680   44.3530   -2.9660 ha        1 I21      0.140000
     65 H33        23.0240   46.0070   -1.4840 ha        1 I21      0.141000
     66 H34        24.0060   46.5770    0.7360 ha        1 I21      0.146000
     67 C37        26.2260   45.5890    1.7770 cg        1 I21      0.233800
@<TRIPOS>BOND
     1    1    2 ar  
     2    1    6 ar  
     3    1    7 1   
     4    2    3 ar  
     5    2   40 1   
     6    3    4 ar  
     7    3   38 1   
     8    4    5 ar  
     9    4   41 1   
    10    5    6 ar  
    11    5    8 1   
    12    6   42 1   
    13    7   10 1   
    14    7   31 2   
    15    8    9 1   
    16    8   43 1   
    17    8   44 1   
    18    9   29 1   
    19   10   11 2   
    20   11   13 1   
    21   11   25 1   
    22   12   15 1   
    23   12   16 1   
    24   12   29 1   
    25   12   30 1   
    26   13   14 2   
    27   13   45 1   
    28   14   17 1   
    29   14   46 1   
    30   15   47 1   
    31   15   48 1   
    32   16   19 1   
    33   16   49 1   
    34   16   50 1   
    35   17   18 ar  
    36   17   22 ar  
    37   18   19 ar  
    38   18   51 1   
    39   19   20 ar  
    40   20   21 ar  
    41   20   52 1   
    42   21   22 ar  
    43   21   53 1   
    44   22   54 1   
    45   23   24 ar  
    46   23   28 ar  
    47   23   55 1   
    48   24   25 ar  
    49   24   56 1   
    50   25   26 ar  
    51   26   27 ar  
    52   26   57 1   
    53   27   28 ar  
    54   27   58 1   
    55   28   59 1   
    56   29   32 2   
    57   30   60 1   
    58   30   61 1   
    59   30   62 1   
    60   33   34 ar  
    61   33   38 ar  
    62   33   63 1   
    63   34   35 ar  
    64   34   64 1   
    65   35   36 ar  
    66   35   65 1   
    67   36   37 ar  
    68   36   66 1   
    69   37   38 ar  
    70   37   67 1   
    71   39   67 3   
@<TRIPOS>SUBSTRUCTURE
     1 I21         1 TEMP              0 ****  ****    0 ROOT
