@<TRIPOS>MOLECULE
I21
   67    57     1     0     0
SMALL
bcc


@<TRIPOS>ATOM
      1 C3          1.3630    0.3000   -0.8760 c1        1 I21     -0.128000
      2 C4          2.7340    0.3340   -0.8350 c1        1 I21     -0.089333
      3 C5          3.4020    0.4280    0.3470 c1        1 I21     -0.042667
      4 C6          2.7210    0.4930    1.5540 c1        1 I21     -0.072000
      5 C7          1.3020    0.4640    1.6020 c1        1 I21     -0.102000
      6 C8          0.5230    0.3660    0.4140 c2        1 I21     -0.048000
      7 C9          0.6320    0.2640   -2.2720 c2        1 I21      0.326000
      8 C10         0.5900    0.4940    2.9710 c2        1 I21      0.027000
      9 O3         -0.7410   -0.0720    2.8390 os        1 I21     -0.282000
     10 N2         -0.8300    0.3340   -2.0710 n2        1 I21     -0.237000
     11 C11        -1.7410   -0.4110   -2.9780 c1        1 I21      0.154000
     12 C12        -3.0580    0.1430    3.4840 c3        1 I21      0.051000
     13 C13        -3.1170    0.2280   -3.4100 c1        1 I21     -0.120375
     14 C27        -3.9030    1.1340   -2.4140 c1        1 I21     -0.120375
     15 N3         -2.9590   -1.1500    2.9610 n3        1 I21     -0.322000
     16 C14        -4.0550    0.9520    2.6600 c3        1 I21     -0.116000
     17 C15        -3.2760    1.5230   -1.0830 c1        1 I21     -0.042667
     18 C16        -3.7550    0.9550    0.0960 c1        1 I21     -0.114000
     19 C17        -3.3580    1.4690    1.3270 c1        1 I21     -0.096000
     20 C18        -2.4890    2.5440    1.3800 c1        1 I21     -0.120375
     21 C19        -2.0110    3.1120    0.2010 c1        1 I21     -0.120375
     22 C20        -2.4050    2.6000   -1.0270 c1        1 I21     -0.089333
     23 C21        -0.9840   -4.1050   -3.5800 c1        1 I21     -0.120375
     24 C22        -1.3870   -2.9240   -2.9690 c1        1 I21     -0.099000
     25 C23        -1.2610   -1.7150   -3.6420 c2        1 I21     -0.128000
     26 C24        -0.7310   -1.6860   -4.9300 c2        1 I21     -0.100000
     27 C25        -0.3280   -2.8660   -5.5410 c1        1 I21     -0.134000
     28 C26        -0.4530   -4.0760   -4.8680 c1        1 I21     -0.120375
     29 C29        -1.7020    0.8150    3.4300 c2        1 I21      0.264000
     30 C30        -3.5380    0.0690    4.9380 c3        1 I21     -0.212000
     31 O1          1.0920   -0.4080   -3.1850 o         1 I21     -0.326000
     32 O2         -1.3620    1.5810    4.3220 o         1 I21     -0.357000
     33 C31         5.4880    1.6440    0.1820 c1        1 I21     -0.089333
     34 C32         6.8760    1.6670    0.2090 c1        1 I21     -0.120375
     35 C33         7.5860    0.4880    0.3980 c1        1 I21     -0.120375
     36 C34         6.9080   -0.7110    0.5610 c1        1 I21     -0.093000
     37 C35         5.5220   -0.7330    0.5350 c1        1 I21     -0.006000
     38 C36         4.8110    0.4460    0.3450 c1        1 I21     -0.042667
     39 C37         4.7840   -2.0430    0.6900 c1        1 I21     -0.095000
     40 N1          4.2310   -3.0280    0.8060 n1        1 I21     -0.038000
     41 H4          3.2430    0.2890   -1.6740 ha        1 I21      0.151667
     42 H6          3.2310    0.5610    2.3930 ha        1 I21      0.145000
     43 H8         -0.4570    0.3440    0.4170 ha        1 I21      0.165000
     44 H101        1.1040   -0.0300    3.6170 h4        1 I21      0.106500
     45 H102        0.5220    1.4140    3.2810 h4        1 I21      0.106500
     46 H13        -3.5130   -0.0020   -4.2830 ha        1 I21      0.139000
     47 H27        -4.7570    1.5290   -2.6850 ha        1 I21      0.139000
     48 HN31       -2.2470   -1.5730    3.3340 hn        1 I21      0.161000
     49 HN32       -2.8460   -1.1050    2.0550 hn        1 I21      0.161000
     50 H141       -4.8230    0.3860    2.4290 hc        1 I21      0.110500
     51 H142       -4.3620    1.7160    3.1830 hc        1 I21      0.110500
     52 H16        -4.3320    0.1740    0.0590 ha        1 I21      0.141000
     53 H18        -2.2120    2.9020    2.2400 ha        1 I21      0.139000
     54 H19        -1.3980    3.8700    0.2390 ha        1 I21      0.139000
     55 H20        -2.0670    3.0010   -1.8570 ha        1 I21      0.151667
     56 H21        -1.0730   -4.9620   -3.1020 ha        1 I21      0.139000
     57 H22        -1.7590   -2.9430   -2.0660 ha        1 I21      0.139000
     58 H24        -0.6430   -0.8320   -5.4050 ha        1 I21      0.162000
     59 H25         0.0450   -2.8460   -6.4460 ha        1 I21      0.139000
     60 H26        -0.1690   -4.9080   -5.2990 ha        1 I21      0.139000
     61 H301       -4.2360    0.7460    5.0870 hc        1 I21      0.094333
     62 H302       -2.7820    0.2380    5.5420 hc        1 I21      0.094333
     63 H303       -3.9040   -0.8210    5.1150 hc        1 I21      0.094333
     64 H31         4.9920    2.4680    0.0490 ha        1 I21      0.151667
     65 H32         7.3510    2.5060    0.0950 ha        1 I21      0.139000
     66 H33         8.5620    0.5040    0.4170 ha        1 I21      0.139000
     67 H34         7.4090   -1.5420    0.6950 ha        1 I21      0.146000
@<TRIPOS>BOND
     1    1    6 1   
     2    1    7 1   
     3    2    3 1   
     4    2   41 1   
     5    4    5 1   
     6    4   42 1   
     7    5    6 1   
     8    6   43 1   
     9    7   10 1   
    10    7   31 1   
    11    8    9 1   
    12    8   44 1   
    13    8   45 1   
    14    9   29 1   
    15   10   11 1   
    16   11   25 1   
    17   12   15 1   
    18   12   16 1   
    19   12   29 1   
    20   12   30 1   
    21   13   14 1   
    22   13   46 1   
    23   14   47 1   
    24   15   48 1   
    25   15   49 1   
    26   16   19 1   
    27   16   50 1   
    28   16   51 1   
    29   17   22 1   
    30   18   19 1   
    31   18   52 1   
    32   20   21 1   
    33   20   53 1   
    34   21   54 1   
    35   22   55 1   
    36   23   28 1   
    37   23   56 1   
    38   24   25 1   
    39   24   57 1   
    40   25   26 1   
    41   26   27 1   
    42   26   58 1   
    43   27   59 1   
    44   28   60 1   
    45   29   32 1   
    46   30   61 1   
    47   30   62 1   
    48   30   63 1   
    49   33   38 1   
    50   33   64 1   
    51   34   35 1   
    52   34   65 1   
    53   35   66 1   
    54   36   37 1   
    55   36   67 1   
    56   37   39 1   
    57   39   40 1   
@<TRIPOS>SUBSTRUCTURE
     1 I21         1 TEMP              0 ****  ****    0 ROOT
