@<TRIPOS>MOLECULE
I22
   31    30     1     0     0
SMALL
bcc


@<TRIPOS>ATOM
      1 O8          0.5380    2.9960   -1.2260 o         1 I22     -0.926833
      2 P1          0.9870    2.0240   -0.1470 p5        1 I22      1.334900
      3 O9          1.5150    2.7510    1.0610 o         1 I22     -0.926833
      4 O10         0.2220    0.7560    0.0460 o         1 I22     -0.926833
      5 O7          2.4540    1.5520   -0.9450 os        1 I22     -0.572200
      6 C7          3.5520    2.3480   -0.7460 c3        1 I22      0.196400
      7 C6          3.5780    3.5910   -1.6830 c3        1 I22      0.098100
      8 O6          2.8920    3.3290   -2.8860 oh        1 I22     -0.653800
      9 C5          2.9160    4.7800   -0.9510 c3        1 I22      0.035100
     10 O5          3.8410    5.3490   -0.0270 oh        1 I22     -0.659800
     11 C4          2.4490    5.8630   -1.9300 c3        1 I22      0.167100
     12 O4          1.2540    5.5110   -2.5870 oh        1 I22     -0.658800
     13 C3          2.2120    7.2180   -1.2020 c3        1 I22      0.036100
     14 O3          0.9520    7.7960   -1.4610 oh        1 I22     -0.606800
     15 C2          3.3080    8.1910   -1.5770 c         1 I22      0.530100
     16 O2          3.1640    9.1580   -2.3380 o         1 I22     -0.581100
     17 C1          4.6590    7.9040   -0.9660 c3        1 I22      0.017400
     18 O1          5.6000    8.9430   -1.1780 oh        1 I22     -0.624800
     19 H71         3.6000    2.6970    0.3240 h1        1 I22     -0.007800
     20 H72         4.4760    1.7400   -0.9760 h1        1 I22     -0.007800
     21 H6          4.6290    3.8540   -1.9730 h1        1 I22      0.013700
     22 HO6         2.0390    2.9110   -2.6150 ho        1 I22      0.476000
     23 H5          2.0050    4.3620   -0.3930 h1        1 I22      0.166700
     24 HO5         3.7530    4.8070    0.7690 ho        1 I22      0.427000
     25 H4          3.2190    6.0090   -2.7400 h1        1 I22      0.032700
     26 HO4         0.8780    4.6990   -2.1720 ho        1 I22      0.513000
     27 H3          2.2430    7.0560   -0.0840 h1        1 I22      0.097700
     28 HO3         0.5990    7.4060   -2.2740 ho        1 I22      0.429000
     29 H11         5.0540    6.9420   -1.3970 h1        1 I22      0.087700
     30 H12         4.5710    7.7830    0.1470 h1        1 I22      0.087700
     31 HO1         5.3520    9.3940   -1.9970 ho        1 I22      0.406000
@<TRIPOS>BOND
     1    1    2 1   
     2    2    3 1   
     3    2    4 1   
     4    2    5 1   
     5    5    6 1   
     6    6    7 1   
     7    6   19 1   
     8    6   20 1   
     9    7    8 1   
    10    7    9 1   
    11    7   21 1   
    12    8   22 1   
    13    9   10 1   
    14    9   11 1   
    15    9   23 1   
    16   10   24 1   
    17   11   12 1   
    18   11   13 1   
    19   11   25 1   
    20   12   26 1   
    21   13   14 1   
    22   13   15 1   
    23   13   27 1   
    24   14   28 1   
    25   15   16 2   
    26   15   17 1   
    27   17   18 1   
    28   17   29 1   
    29   17   30 1   
    30   18   31 1   
@<TRIPOS>SUBSTRUCTURE
     1 I22         1 TEMP              0 ****  ****    0 ROOT
