@<TRIPOS>MOLECULE
I22
   31    30     1     0     0
SMALL
bcc


@<TRIPOS>ATOM
      1 O8         -1.3620    5.4890    1.2790 o         1 I22     -0.926833
      2 P1          0.0370    5.1980    1.7640 p5        1 I22      1.334900
      3 O9          0.0170    4.9690    3.2690 o         1 I22     -0.926833
      4 O10         0.9370    6.3770    1.4450 o         1 I22     -0.926833
      5 O7          0.5890    3.8890    1.0370 os        1 I22     -0.572200
      6 C7         -0.2140    2.6910    1.0840 c3        1 I22      0.196400
      7 C6          0.5270    1.5470    0.3900 c3        1 I22      0.098100
      8 O6          1.7100    1.2640    1.0850 oh        1 I22     -0.653800
      9 C5         -0.3550    0.3080    0.3690 c3        1 I22      0.035100
     10 O5         -1.4680    0.5520   -0.4110 oh        1 I22     -0.659800
     11 C4          0.4310   -0.8640   -0.2130 c3        1 I22      0.167100
     12 O4          1.5000   -1.1480    0.6030 oh        1 I22     -0.658800
     13 C3         -0.4950   -2.1220   -0.3160 c3        1 I22      0.036100
     14 O3         -0.8070   -2.5740    0.9590 oh        1 I22     -0.606800
     15 C2          0.2140   -3.2060   -1.0690 c         1 I22      0.530100
     16 O2          1.3270   -3.5760   -0.7080 o         1 I22     -0.581100
     17 C1         -0.4850   -3.9180   -2.2000 c3        1 I22      0.017400
     18 O1          0.2080   -5.1020   -2.5110 oh        1 I22     -0.624800
     19 H71        -1.0710    2.8540    0.6230 h1        1 I22     -0.007800
     20 H72        -0.3850    2.4510    2.0110 h1        1 I22     -0.007800
     21 H6          0.7420    1.8090   -0.5260 h1        1 I22      0.013700
     22 HO6         2.3640    1.7710    0.7730 ho        1 I22      0.476000
     23 H5         -0.6380    0.0890    1.2880 h1        1 I22      0.166700
     24 HO5        -1.2130    0.9520   -1.1850 ho        1 I22      0.427000
     25 H4          0.7620   -0.6220   -1.1190 h1        1 I22      0.032700
     26 HO4         2.2300   -1.1900    0.1250 ho        1 I22      0.513000
     27 H3         -1.3170   -1.8850   -0.7860 h1        1 I22      0.097700
     28 HO3        -1.6170   -2.9530    0.9520 ho        1 I22      0.429000
     29 H11        -0.5070   -3.3400   -2.9800 h1        1 I22      0.087700
     30 H12        -1.4000   -4.1380   -1.9310 h1        1 I22      0.087700
     31 HO1        -0.2600   -5.5720   -3.0990 ho        1 I22      0.406000
@<TRIPOS>BOND
     1    1    2 1   
     2    2    3 1   
     3    2    4 1   
     4    2    5 1   
     5    5    6 1   
     6    6    7 1   
     7    6   19 1   
     8    6   20 1   
     9    7    8 1   
    10    7    9 1   
    11    7   21 1   
    12    8   22 1   
    13    9   10 1   
    14    9   11 1   
    15    9   23 1   
    16   10   24 1   
    17   11   12 1   
    18   11   13 1   
    19   11   25 1   
    20   12   26 1   
    21   13   14 1   
    22   13   15 1   
    23   13   27 1   
    24   14   28 1   
    25   15   16 2   
    26   15   17 1   
    27   17   18 1   
    28   17   29 1   
    29   17   30 1   
    30   18   31 1   
@<TRIPOS>SUBSTRUCTURE
     1 I22         1 TEMP              0 ****  ****    0 ROOT
