@<TRIPOS>MOLECULE
I22
   31    30     1     0     0
SMALL
bcc


@<TRIPOS>ATOM
      1 O8          3.0880    0.8250    1.5110 o         1 I22     -0.850000
      2 P1          2.8470    0.5910    0.0690 p5        1 I22      1.433800
      3 O9          4.2220    1.1330   -0.6340 oh        1 I22     -0.787400
      4 O10         2.4530   -0.7010   -0.5290 o         1 I22     -0.850000
      5 O7          1.8030    1.7300   -0.4890 os        1 I22     -0.607200
      6 C7          1.9820    3.0560   -0.0690 c3        1 I22      0.172400
      7 C6          2.1530    3.9640   -1.2940 c3        1 I22      0.064100
      8 O6          1.1490    3.6790   -2.2660 oh        1 I22     -0.655800
      9 C5          2.0230    5.4670   -0.8930 c3        1 I22      0.395800
     10 O5          2.7610    5.8090    0.1420 o         1 I22     -0.887500
     11 C4          2.4030    6.3290   -2.1670 c3        1 I22      0.044100
     12 O4          1.5110    6.2060   -3.2610 oh        1 I22     -0.648800
     13 C3          2.4420    7.8190   -1.7560 c3        1 I22      0.038100
     14 O3          1.5600    8.6320   -2.5060 oh        1 I22     -0.609800
     15 C2          3.8530    8.3520   -1.8130 c         1 I22      0.531100
     16 O2          4.2080    9.3140   -2.5140 o         1 I22     -0.611100
     17 C1          4.8470    7.6380   -0.9310 c3        1 I22      0.001400
     18 O1          5.9050    8.4850   -0.5210 oh        1 I22     -0.616800
     19 H71         2.8730    3.1440    0.6070 h1        1 I22      0.036700
     20 H72         1.0600    3.3760    0.4910 h1        1 I22      0.036700
     21 H6          3.1570    3.7680   -1.7620 h1        1 I22      0.014700
     22 HO6         1.0340    2.7200   -2.2690 ho        1 I22      0.410000
     23 H5          0.9050    5.6580   -0.7500 h1        1 I22     -0.078300
     24 HO5         4.6450    1.8080   -0.1160 ho        1 I22      0.424000
     25 H4          3.4090    6.0080   -2.5500 h1        1 I22      0.027700
     26 HO4         0.7780    5.6510   -2.9660 ho        1 I22      0.429000
     27 H3          2.0890    7.9050   -0.6830 h1        1 I22      0.123700
     28 HO3         1.5920    8.3220   -3.4200 ho        1 I22      0.406000
     29 H11         4.3470    7.2410    0.0040 h1        1 I22      0.110700
     30 H12         5.2640    6.7620   -1.5000 h1        1 I22      0.110700
     31 HO1         6.1420    9.0290   -1.2840 ho        1 I22      0.390000
@<TRIPOS>BOND
     1    1    2 1   
     2    2    3 1   
     3    2    4 1   
     4    2    5 1   
     5    3   24 1   
     6    5    6 1   
     7    6    7 1   
     8    6   19 1   
     9    6   20 1   
    10    7    8 1   
    11    7    9 1   
    12    7   21 1   
    13    8   22 1   
    14    9   10 1   
    15    9   11 1   
    16    9   23 1   
    17   11   12 1   
    18   11   13 1   
    19   11   25 1   
    20   12   26 1   
    21   13   14 1   
    22   13   15 1   
    23   13   27 1   
    24   14   28 1   
    25   15   16 2   
    26   15   17 1   
    27   17   18 1   
    28   17   29 1   
    29   17   30 1   
    30   18   31 1   
@<TRIPOS>SUBSTRUCTURE
     1 I22         1 TEMP              0 ****  ****    0 ROOT
