@<TRIPOS>MOLECULE
I22
   31    30     1     0     0
SMALL
bcc


@<TRIPOS>ATOM
      1 O8         -2.9890    1.1390    1.4560 o         1 I22     -0.912500
      2 P1         -3.9720    0.4840    0.5010 p5        1 I22      1.325900
      3 O9         -4.3150   -0.9340    0.8490 o         1 I22     -0.912500
      4 O10        -5.0480    1.3570   -0.0630 o         1 I22     -0.912500
      5 O7         -2.8760    0.2620   -0.8360 os        1 I22     -0.558200
      6 C7         -1.8370   -0.5780   -0.5500 c3        1 I22      0.205400
      7 C6         -0.4960    0.1980   -0.4970 c3        1 I22      0.096100
      8 O6         -0.4510    1.1460    0.5350 oh        1 I22     -0.721800
      9 C5          0.6730   -0.7990   -0.3120 c3        1 I22      0.088100
     10 O5          1.0260   -1.3930   -1.5600 oh        1 I22     -0.648800
     11 C4          1.9270   -0.0910    0.2300 c3        1 I22      0.149100
     12 O4          1.8230    0.1520    1.6220 oh        1 I22     -0.654800
     13 C3          3.2000   -0.9480    0.0500 c3        1 I22      0.056100
     14 O3          3.3380   -1.9330    1.0510 oh        1 I22     -0.590800
     15 C2          4.4320   -0.0700    0.0050 c         1 I22      0.519100
     16 O2          5.3110   -0.0720    0.8760 o         1 I22     -0.557100
     17 C1          4.5680    0.8330   -1.2000 c3        1 I22      0.019400
     18 O1          5.8910    1.3020   -1.3850 oh        1 I22     -0.613800
     19 H71        -1.9950   -1.1080    0.4330 h1        1 I22     -0.006800
     20 H72        -1.7290   -1.3550   -1.3680 h1        1 I22     -0.006800
     21 H6         -0.3370    0.7430   -1.4720 h1        1 I22      0.012700
     22 HO6        -1.3950    1.2560    0.8980 ho        1 I22      0.527000
     23 H5          0.3800   -1.6190    0.4010 h1        1 I22      0.057700
     24 HO5         0.2100   -1.4580   -2.0730 ho        1 I22      0.420000
     25 H4          2.0460    0.8900   -0.3090 h1        1 I22      0.043700
     26 HO4         0.9180    0.4710    1.7980 ho        1 I22      0.475000
     27 H3          3.1330   -1.5270   -0.9170 h1        1 I22      0.111700
     28 HO3         3.1640   -1.5060    1.9030 ho        1 I22      0.427000
     29 H11         4.3080    0.2820   -2.1430 h1        1 I22      0.075200
     30 H12         3.8770    1.7130   -1.0790 h1        1 I22      0.075200
     31 HO1         6.2800    1.4170   -0.5070 ho        1 I22      0.413000
@<TRIPOS>BOND
     1    1    2 1   
     2    2    3 1   
     3    2    4 1   
     4    2    5 1   
     5    5    6 1   
     6    6    7 1   
     7    6   19 1   
     8    6   20 1   
     9    7    8 1   
    10    7    9 1   
    11    7   21 1   
    12    8   22 1   
    13    9   10 1   
    14    9   11 1   
    15    9   23 1   
    16   10   24 1   
    17   11   12 1   
    18   11   13 1   
    19   11   25 1   
    20   12   26 1   
    21   13   14 1   
    22   13   15 1   
    23   13   27 1   
    24   14   28 1   
    25   15   16 2   
    26   15   17 1   
    27   17   18 1   
    28   17   29 1   
    29   17   30 1   
    30   18   31 1   
@<TRIPOS>SUBSTRUCTURE
     1 I22         1 TEMP              0 ****  ****    0 ROOT
