@<TRIPOS>MOLECULE
I23
   63    65     1     0     0
SMALL
bcc


@<TRIPOS>ATOM
      1 O28        -0.1530   -2.1050   -0.2380 o         1 I23     -0.418100
      2 C9          0.2100   -1.4050    0.6970 c         1 I23      0.534100
      3 N8          1.0870   -0.2310    0.3880 n4        1 I23     -0.672800
      4 C7          1.2510    0.0820   -1.0890 c3        1 I23      0.143500
      5 C6          2.3040   -0.8380   -1.7190 c3        1 I23     -0.096900
      6 C5          2.1760   -0.8640   -3.2290 c3        1 I23     -0.072400
      7 C4          3.0440    0.1540   -3.9370 c3        1 I23     -0.084400
      8 C3          3.0920    1.5190   -3.2850 c3        1 I23     -0.084400
      9 C2          1.7720    1.9670   -2.6950 c3        1 I23     -0.072400
     10 C1          1.6020    1.5670   -1.2440 c3        1 I23     -0.096900
     11 C10        -0.1630   -1.6500    2.1480 c3        1 I23     -0.123700
     12 C27        -0.7680   -0.4320    2.8320 c3        1 I23     -0.104900
     13 C26         0.1610    0.1960    3.8790 c3        1 I23      0.210800
     14 N13         1.5520    0.1220    3.5210 n3        1 I23     -0.833500
     15 C12         2.0570   -1.2170    3.3740 c3        1 I23      0.210800
     16 C11         1.0050   -2.2360    2.9260 c3        1 I23     -0.104900
     17 S14         2.4770    1.4570    3.2230 sy        1 I23      1.524200
     18 O15         2.8570    1.2850    1.8530 o         1 I23     -0.680800
     19 O25         1.6830    2.6040    3.4190 o         1 I23     -0.680800
     20 C16         3.7530    1.3610    4.2690 ca        1 I23     -0.442500
     21 C23         5.0520    0.9670    3.8710 ca        1 I23      0.063700
     22 C24         5.3670    0.5870    2.4690 c3        1 I23     -0.093800
     23 C22         6.1040    0.9420    4.7870 ca        1 I23     -0.170000
     24 C20         5.9080    1.3080    6.1220 ca        1 I23      0.036700
     25 C21         7.0330    1.2950    7.0820 c3        1 I23     -0.080800
     26 C19         4.6300    1.7050    6.5280 ca        1 I23     -0.170000
     27 C17         3.5690    1.7370    5.6240 ca        1 I23      0.063700
     28 C18         2.2520    2.2080    6.1280 c3        1 I23     -0.093800
     29 H1          0.7110    0.6030    0.8580 hn        1 I23      0.472800
     30 H2          0.2460   -0.1190   -1.5700 hx        1 I23      0.104700
     31 H3          2.1590   -1.8850   -1.3370 hc        1 I23      0.066700
     32 H4          3.3300   -0.4970   -1.4230 hc        1 I23      0.066700
     33 H5          2.4700   -1.8870   -3.5900 hc        1 I23      0.059200
     34 H6          1.1030   -0.7170   -3.5250 hc        1 I23      0.059200
     35 H7          2.6650    0.2590   -4.9890 hc        1 I23      0.054200
     36 H8          4.0940   -0.2400   -4.0070 hc        1 I23      0.054200
     37 H9          3.8820    1.5300   -2.4880 hc        1 I23      0.054200
     38 H10         3.4110    2.2660   -4.0620 hc        1 I23      0.054200
     39 H11         0.9190    1.5750   -3.3080 hc        1 I23      0.059200
     40 H12         1.7220    3.0900   -2.7370 hc        1 I23      0.059200
     41 H13         0.7740    2.1870   -0.8030 hc        1 I23      0.066700
     42 H14         2.5410    1.7980   -0.6680 hc        1 I23      0.066700
     43 H15        -0.9640   -2.4530    2.0870 hc        1 I23      0.120700
     44 H16        -1.7060   -0.7510    3.3650 hc        1 I23      0.077450
     45 H17        -1.0820    0.3370    2.0800 hc        1 I23      0.077450
     46 H18         0.0030   -0.3400    4.8610 h1        1 I23      0.068450
     47 H19        -0.1330    1.2770    4.0270 h1        1 I23      0.068450
     48 H20         2.4890   -1.5760    4.3550 h1        1 I23      0.068450
     49 H21         2.9040   -1.1980    2.6250 h1        1 I23      0.068450
     50 H22         1.5080   -3.0380    2.3250 hc        1 I23      0.077450
     51 H23         0.5740   -2.7280    3.8410 hc        1 I23      0.077450
     52 H24         6.4300    0.2550    2.3700 hc        1 I23      0.067700
     53 H25         4.7090   -0.2480    2.1220 hc        1 I23      0.067700
     54 H26         5.2080    1.4610    1.7840 hc        1 I23      0.067700
     55 H27         7.1100    0.6350    4.4560 ha        1 I23      0.155000
     56 H28         6.6760    1.0700    8.1180 hc        1 I23      0.066700
     57 H29         7.5270    2.3010    7.0930 hc        1 I23      0.066700
     58 H30         7.8000    0.5330    6.7950 hc        1 I23      0.066700
     59 H31         4.4640    2.0020    7.5770 ha        1 I23      0.155000
     60 H32         1.4370    1.4820    5.8870 hc        1 I23      0.067700
     61 H33         2.2720    2.3420    7.2380 hc        1 I23      0.067700
     62 H34         1.9940    3.1970    5.6640 hc        1 I23      0.067700
     63 H82         2.0290   -0.3870    0.7880 hn        1 I23      0.472800
@<TRIPOS>BOND
     1    1    2 2   
     2    2    3 1   
     3    2   11 1   
     4    3    4 1   
     5    3   29 1   
     6    3   63 1   
     7    4    5 1   
     8    4   10 1   
     9    4   30 1   
    10    5    6 1   
    11    5   31 1   
    12    5   32 1   
    13    6    7 1   
    14    6   33 1   
    15    6   34 1   
    16    7    8 1   
    17    7   35 1   
    18    7   36 1   
    19    8    9 1   
    20    8   37 1   
    21    8   38 1   
    22    9   10 1   
    23    9   39 1   
    24    9   40 1   
    25   10   41 1   
    26   10   42 1   
    27   11   12 1   
    28   11   16 1   
    29   11   43 1   
    30   12   13 1   
    31   12   44 1   
    32   12   45 1   
    33   13   14 1   
    34   13   46 1   
    35   13   47 1   
    36   14   15 1   
    37   14   17 1   
    38   15   16 1   
    39   15   48 1   
    40   15   49 1   
    41   16   50 1   
    42   16   51 1   
    43   17   18 2   
    44   17   19 2   
    45   17   20 1   
    46   20   21 ar  
    47   20   27 ar  
    48   21   22 1   
    49   21   23 ar  
    50   22   52 1   
    51   22   53 1   
    52   22   54 1   
    53   23   24 ar  
    54   23   55 1   
    55   24   25 1   
    56   24   26 ar  
    57   25   56 1   
    58   25   57 1   
    59   25   58 1   
    60   26   27 ar  
    61   26   59 1   
    62   27   28 1   
    63   28   60 1   
    64   28   61 1   
    65   28   62 1   
@<TRIPOS>SUBSTRUCTURE
     1 I23         1 TEMP              0 ****  ****    0 ROOT
