@<TRIPOS>MOLECULE
I23
   63    65     1     0     0
SMALL
bcc


@<TRIPOS>ATOM
      1 O28        -0.2790   -1.9520   -0.2470 o         1 I23     -0.418100
      2 C9          0.1150   -1.2640    0.6850 c         1 I23      0.534100
      3 N8          1.0700   -0.1540    0.3730 ny        1 I23     -0.672800
      4 C7          1.2740    0.1280   -1.1040 c3        1 I23      0.143500
      5 C6          2.2730   -0.8670   -1.7080 c3        1 I23     -0.096900
      6 C5          2.1640   -0.9040   -3.2200 c3        1 I23     -0.072400
      7 C4          3.1060    0.0450   -3.9280 c3        1 I23     -0.084400
      8 C3          3.2340    1.4130   -3.2930 c3        1 I23     -0.084400
      9 C2          1.9390    1.9540   -2.7260 c3        1 I23     -0.072400
     10 C1          1.7240    1.5850   -1.2730 c3        1 I23     -0.096900
     11 C10        -0.2930   -1.4650    2.1330 c3        1 I23     -0.123700
     12 C27        -0.8270   -0.2020    2.7930 c3        1 I23     -0.104900
     13 C26         0.1270    0.3790    3.8450 c3        1 I23      0.210800
     14 N13         1.5140    0.2110    3.5080 n3        1 I23     -0.833500
     15 C12         1.9340   -1.1600    3.3850 c3        1 I23      0.210800
     16 C11         0.8240   -2.1150    2.9350 c3        1 I23     -0.104900
     17 S14         2.5280    1.4790    3.2070 sy        1 I23      1.524200
     18 O15         2.9160    1.2640    1.8450 o         1 I23     -0.680800
     19 O25         1.8080    2.6780    3.3760 o         1 I23     -0.680800
     20 C16         3.7800    1.3150    4.2730 ca        1 I23     -0.442500
     21 C23         5.0570    0.8330    3.8990 ca        1 I23      0.063700
     22 C24         5.3660    0.4140    2.5070 c3        1 I23     -0.093800
     23 C22         6.0920    0.7530    4.8320 ca        1 I23     -0.170000
     24 C20         5.9010    1.1490    6.1590 ca        1 I23      0.036700
     25 C21         7.0090    1.0760    7.1360 c3        1 I23     -0.080800
     26 C19         4.6460    1.6330    6.5410 ca        1 I23     -0.170000
     27 C17         3.6020    1.7210    5.6200 ca        1 I23      0.063700
     28 C18         2.3120    2.2830    6.0980 c3        1 I23     -0.093800
     29 H1          1.9950   -0.3650    0.7890 hn        1 I23      0.472800
     30 H2          0.2650   -0.0140   -1.5970 hx        1 I23      0.104700
     31 H3          2.0550   -1.8970   -1.3150 hc        1 I23      0.066700
     32 H4          3.3160   -0.5900   -1.4020 hc        1 I23      0.066700
     33 H5          1.1070   -0.6910   -3.5320 hc        1 I23      0.059200
     34 H6          2.3940   -1.9490   -3.5630 hc        1 I23      0.059200
     35 H7          2.7480    0.1610   -4.9870 hc        1 I23      0.054200
     36 H8          4.1280   -0.4170   -3.9790 hc        1 I23      0.054200
     37 H9          4.0130    1.3830   -2.4850 hc        1 I23      0.054200
     38 H10         3.6120    2.1270   -4.0740 hc        1 I23      0.054200
     39 H11         1.9620    3.0770   -2.7830 hc        1 I23      0.059200
     40 H12         1.0700    1.6110   -3.3460 hc        1 I23      0.059200
     41 H13         0.9330    2.2640   -0.8520 hc        1 I23      0.066700
     42 H14         2.6680    1.7620   -0.6870 hc        1 I23      0.066700
     43 H15        -1.1430   -2.2150    2.0710 hc        1 I23      0.120700
     44 H16        -1.7900   -0.4510    3.3160 hc        1 I23      0.077450
     45 H17        -1.0800    0.5760    2.0270 hc        1 I23      0.077450
     46 H18        -0.0800   -0.1310    4.8320 h1        1 I23      0.068450
     47 H19        -0.0980    1.4790    3.9750 h1        1 I23      0.068450
     48 H20         2.7900   -1.2060    2.6490 h1        1 I23      0.068450
     49 H21         2.3270   -1.5320    4.3770 h1        1 I23      0.068450
     50 H22         0.3490   -2.5650    3.8500 hc        1 I23      0.077450
     51 H23         1.2820   -2.9560    2.3530 hc        1 I23      0.077450
     52 H24         4.6610   -0.3820    2.1610 hc        1 I23      0.067700
     53 H25         5.2740    1.2860    1.8090 hc        1 I23      0.067700
     54 H26         6.4070    0.0130    2.4280 hc        1 I23      0.067700
     55 H27         7.0800    0.3770    4.5190 ha        1 I23      0.155000
     56 H28         7.5610    2.0510    7.1490 hc        1 I23      0.066700
     57 H29         6.6230    0.8800    8.1670 hc        1 I23      0.066700
     58 H30         7.7330    0.2680    6.8660 hc        1 I23      0.066700
     59 H31         4.4840    1.9540    7.5830 ha        1 I23      0.155000
     60 H32         1.4540    1.6080    5.8540 hc        1 I23      0.067700
     61 H33         2.3240    2.4320    7.2070 hc        1 I23      0.067700
     62 H34         2.1240    3.2810    5.6170 hc        1 I23      0.067700
     63 H82         0.7430    0.7090    0.8280 hn        1 I23      0.472800
@<TRIPOS>BOND
     1    1    2 2   
     2    2    3 1   
     3    2   11 1   
     4    3    4 1   
     5    3   29 1   
     6    3   63 1   
     7    4    5 1   
     8    4   10 1   
     9    4   30 1   
    10    5    6 1   
    11    5   31 1   
    12    5   32 1   
    13    6    7 1   
    14    6   33 1   
    15    6   34 1   
    16    7    8 1   
    17    7   35 1   
    18    7   36 1   
    19    8    9 1   
    20    8   37 1   
    21    8   38 1   
    22    9   10 1   
    23    9   39 1   
    24    9   40 1   
    25   10   41 1   
    26   10   42 1   
    27   11   12 1   
    28   11   16 1   
    29   11   43 1   
    30   12   13 1   
    31   12   44 1   
    32   12   45 1   
    33   13   14 1   
    34   13   46 1   
    35   13   47 1   
    36   14   15 1   
    37   14   17 1   
    38   15   16 1   
    39   15   48 1   
    40   15   49 1   
    41   16   50 1   
    42   16   51 1   
    43   17   18 2   
    44   17   19 2   
    45   17   20 1   
    46   20   21 ar  
    47   20   27 ar  
    48   21   22 1   
    49   21   23 ar  
    50   22   52 1   
    51   22   53 1   
    52   22   54 1   
    53   23   24 ar  
    54   23   55 1   
    55   24   25 1   
    56   24   26 ar  
    57   25   56 1   
    58   25   57 1   
    59   25   58 1   
    60   26   27 ar  
    61   26   59 1   
    62   27   28 1   
    63   28   60 1   
    64   28   61 1   
    65   28   62 1   
@<TRIPOS>SUBSTRUCTURE
     1 I23         1 TEMP              0 ****  ****    0 ROOT
