@<TRIPOS>MOLECULE
I23
   62    64     1     0     0
SMALL
bcc


@<TRIPOS>ATOM
      1 O28         3.1650    1.8040    0.8690 o         1 I23     -0.607100
      2 C9          2.7820    0.8480    0.1660 c         1 I23      0.661100
      3 N8          3.6790   -0.0190   -0.4200 n         1 I23     -0.575900
      4 C7          5.1130    0.0740   -0.2260 c3        1 I23      0.100700
      5 C6          5.8550    0.1950   -1.5710 c3        1 I23     -0.088900
      6 C5          7.2310    0.8020   -1.3990 c3        1 I23     -0.072400
      7 C4          8.3400   -0.2120   -1.2120 c3        1 I23     -0.075900
      8 C3          7.9970   -1.3790   -0.3110 c3        1 I23     -0.075900
      9 C2          7.1300   -1.0120    0.8750 c3        1 I23     -0.072400
     10 C1          5.6490   -1.1200    0.5830 c3        1 I23     -0.088900
     11 C10         1.3010    0.5970   -0.1110 c3        1 I23     -0.132700
     12 C27         0.4700    1.7470    0.4320 c3        1 I23     -0.082400
     13 C26        -1.0210    1.4950    0.2090 c3        1 I23      0.221800
     14 N13        -1.4910    0.2030    0.6380 n3        1 I23     -0.810500
     15 C12        -0.6550   -0.9170    0.2950 c3        1 I23      0.221800
     16 C11         0.8420   -0.7010    0.5270 c3        1 I23     -0.082400
     17 S14        -2.8850    0.0200    1.4740 sy        1 I23      1.503200
     18 O15        -2.8090   -1.1540    2.2570 o         1 I23     -0.655800
     19 O25        -3.1530    1.1970    2.2080 o         1 I23     -0.655800
     20 C16        -4.0680   -0.1780    0.2640 ca        1 I23     -0.375500
     21 C23        -4.4120   -1.4600   -0.2210 ca        1 I23      0.051200
     22 C24        -3.7600   -2.7000    0.2720 c3        1 I23     -0.088300
     23 C22        -5.4100   -1.6200   -1.1880 ca        1 I23     -0.174500
     24 C20        -6.0960   -0.5190   -1.7010 ca        1 I23     -0.003300
     25 C21        -7.1630   -0.6970   -2.7130 c3        1 I23     -0.066800
     26 C19        -5.7680    0.7520   -1.2290 ca        1 I23     -0.174500
     27 C17        -4.7720    0.9270   -0.2620 ca        1 I23      0.051200
     28 C18        -4.5180    2.3210    0.1840 c3        1 I23     -0.088300
     29 H1          3.3420   -0.7920   -0.9390 hn        1 I23      0.303500
     30 H2          5.3050    1.0170    0.3740 h1        1 I23      0.091700
     31 H3          5.9330   -0.8140   -2.0520 hc        1 I23      0.042950
     32 H4          5.2640    0.8520   -2.2640 hc        1 I23      0.042950
     33 H5          7.4710    1.4140   -2.3110 hc        1 I23      0.043700
     34 H6          7.2260    1.5130   -0.5300 hc        1 I23      0.043700
     35 H7          8.6400   -0.6190   -2.2150 hc        1 I23      0.037200
     36 H8          9.2350    0.3240   -0.7970 hc        1 I23      0.037200
     37 H9          7.4870   -2.1770   -0.9130 hc        1 I23      0.037200
     38 H10         8.9580   -1.8250    0.0640 hc        1 I23      0.037200
     39 H11         7.3660   -1.7140    1.7210 hc        1 I23      0.043700
     40 H12         7.3770    0.0230    1.2280 hc        1 I23      0.043700
     41 H13         5.0960   -1.1680    1.5600 hc        1 I23      0.042950
     42 H14         5.4410   -2.0760    0.0340 hc        1 I23      0.042950
     43 H15         1.1510    0.5360   -1.2260 hc        1 I23      0.064700
     44 H16         0.6870    1.8780    1.5250 hc        1 I23      0.064200
     45 H17         0.7540    2.7010   -0.0820 hc        1 I23      0.064200
     46 H18        -1.5860    2.2910    0.7790 h1        1 I23      0.051450
     47 H19        -1.2430    1.6190   -0.8920 h1        1 I23      0.051450
     48 H20        -0.9690   -1.8070    0.9180 h1        1 I23      0.051450
     49 H21        -0.8100   -1.1710   -0.7950 h1        1 I23      0.051450
     50 H22         1.3860   -1.5760    0.0880 hc        1 I23      0.064200
     51 H23         1.0590   -0.6760    1.6270 hc        1 I23      0.064200
     52 H24        -3.9950   -2.8610    1.3570 hc        1 I23      0.063700
     53 H25        -4.1120   -3.5950   -0.2980 hc        1 I23      0.063700
     54 H26        -2.6490   -2.6370    0.1630 hc        1 I23      0.063700
     55 H27        -5.6610   -2.6290   -1.5490 ha        1 I23      0.138500
     56 H28        -8.1490   -0.8330   -2.2000 hc        1 I23      0.052033
     57 H29        -7.2360    0.1970   -3.3800 hc        1 I23      0.052033
     58 H30        -6.9700   -1.5990   -3.3450 hc        1 I23      0.052033
     59 H31        -6.3040    1.6300   -1.6230 ha        1 I23      0.138500
     60 H32        -4.7940    2.4420    1.2650 hc        1 I23      0.063700
     61 H33        -3.4380    2.5860    0.0700 hc        1 I23      0.063700
     62 H34        -5.1170    3.0520   -0.4130 hc        1 I23      0.063700
@<TRIPOS>BOND
     1    1    2 2   
     2    2    3 1   
     3    2   11 1   
     4    3    4 1   
     5    3   29 1   
     6    4    5 1   
     7    4   10 1   
     8    4   30 1   
     9    5    6 1   
    10    5   31 1   
    11    5   32 1   
    12    6    7 1   
    13    6   33 1   
    14    6   34 1   
    15    7    8 1   
    16    7   35 1   
    17    7   36 1   
    18    8    9 1   
    19    8   37 1   
    20    8   38 1   
    21    9   10 1   
    22    9   39 1   
    23    9   40 1   
    24   10   41 1   
    25   10   42 1   
    26   11   12 1   
    27   11   16 1   
    28   11   43 1   
    29   12   13 1   
    30   12   44 1   
    31   12   45 1   
    32   13   14 1   
    33   13   46 1   
    34   13   47 1   
    35   14   15 1   
    36   14   17 1   
    37   15   16 1   
    38   15   48 1   
    39   15   49 1   
    40   16   50 1   
    41   16   51 1   
    42   17   18 2   
    43   17   19 2   
    44   17   20 1   
    45   20   21 ar  
    46   20   27 ar  
    47   21   22 1   
    48   21   23 ar  
    49   22   52 1   
    50   22   53 1   
    51   22   54 1   
    52   23   24 ar  
    53   23   55 1   
    54   24   25 1   
    55   24   26 ar  
    56   25   56 1   
    57   25   57 1   
    58   25   58 1   
    59   26   27 ar  
    60   26   59 1   
    61   27   28 1   
    62   28   60 1   
    63   28   61 1   
    64   28   62 1   
@<TRIPOS>SUBSTRUCTURE
     1 I23         1 TEMP              0 ****  ****    0 ROOT
