@<TRIPOS>MOLECULE
I23
   62    58     1     0     0
SMALL
bcc


@<TRIPOS>ATOM
      1 O28        -0.8530    1.1490   -2.4190 o         1 I23     -0.368000
      2 C9         -0.0410    0.2730   -2.1950 c1        1 I23      0.305000
      3 N8          0.3020   -0.6670   -3.2230 n3        1 I23     -0.385000
      4 C7         -0.3150   -0.5730   -4.5170 c3        1 I23      0.024000
      5 C6         -1.2620   -1.7330   -4.7020 c3        1 I23     -0.168000
      6 C5         -2.2400   -1.4560   -5.8190 c3        1 I23     -0.151000
      7 C4         -1.8190   -2.1600   -7.0890 c3        1 I23     -0.154500
      8 C3         -0.3250   -2.0240   -7.3120 c3        1 I23     -0.154500
      9 C2          0.1460   -0.6220   -6.9730 c3        1 I23     -0.151000
     10 C1          0.7610   -0.5800   -5.5840 c3        1 I23     -0.168000
     11 C10         0.6940    0.2250   -0.8150 c2        1 I23     -0.121000
     12 C27        -0.2820    0.0540    0.3310 c3        1 I23     -0.165000
     13 C26         0.3860    0.1180    1.6920 c3        1 I23     -0.010500
     14 N13         1.1950    1.3000    1.8670 n3        1 I23     -0.833000
     15 C12         2.1480    1.5120    0.8010 c3        1 I23     -0.010500
     16 C11         1.5130    1.4740   -0.5770 c3        1 I23     -0.165000
     17 S14         1.5200    1.8690    3.3980 s4        1 I23      2.063800
     18 O15         2.9110    1.7250    3.7230 o         1 I23     -0.545400
     19 O25         1.3630    3.2990    3.4670 o         1 I23     -0.545400
     20 C16         0.4850    1.0450    4.5970 c1        1 I23     -0.822000
     21 C23         0.9570   -0.0810    5.2580 c1        1 I23      0.058000
     22 C24         2.3300   -0.6180    4.9400 c3        1 I23     -0.219000
     23 C22         0.2250   -0.6300    6.3000 c1        1 I23     -0.174000
     24 C20        -0.9760   -0.0550    6.6810 c1        1 I23      0.005000
     25 C21        -1.7330   -0.6050    7.8710 c2        1 I23     -0.192000
     26 C19        -1.4480    1.0690    6.0210 c1        1 I23     -0.175000
     27 C17        -0.7180    1.6200    4.9800 c1        1 I23      0.062000
     28 C18        -1.1560    2.9250    4.3630 c3        1 I23     -0.208000
     29 H1          0.9450   -1.2920   -3.0710 hn        1 I23      0.217000
     30 H2         -0.8180    0.2630   -4.5720 h1        1 I23      0.131000
     31 H3         -0.7460   -2.5380   -4.9170 hc        1 I23      0.082250
     32 H4         -1.7550   -1.8800   -3.8730 hc        1 I23      0.082250
     33 H5         -3.1260   -1.7720   -5.5550 hc        1 I23      0.083000
     34 H6         -2.2770   -0.4930   -5.9820 hc        1 I23      0.083000
     35 H7         -2.0490   -3.1110   -7.0230 hc        1 I23      0.076500
     36 H8         -2.2940   -1.7670   -7.8480 hc        1 I23      0.076500
     37 H9         -0.1210   -2.2130   -8.2520 hc        1 I23      0.076500
     38 H10         0.1440   -2.6650   -6.7460 hc        1 I23      0.076500
     39 H11         0.8140   -0.3400   -7.6290 hc        1 I23      0.083000
     40 H12        -0.6170   -0.0100   -7.0060 hc        1 I23      0.083000
     41 H13         1.3040    0.2290   -5.4970 hc        1 I23      0.082250
     42 H14         1.3310   -1.3640   -5.4600 hc        1 I23      0.082250
     43 H15         1.2610   -0.5610   -0.9260 ha        1 I23      0.103000
     44 H16        -0.7260   -0.8120    0.2390 hc        1 I23      0.103750
     45 H17        -0.9570    0.7610    0.2780 hc        1 I23      0.103750
     46 H18        -0.3060    0.1050    2.3830 h1        1 I23      0.090250
     47 H19         0.9530   -0.6700    1.8010 h1        1 I23      0.090250
     48 H20         2.5730    2.3850    0.9280 h1        1 I23      0.090250
     49 H21         2.8350    0.8170    0.8510 h1        1 I23      0.090250
     50 H22         2.2200    1.5190   -1.2490 hc        1 I23      0.103750
     51 H23         0.9340    2.2530   -0.6770 hc        1 I23      0.103750
     52 H24         3.0020    0.0660    5.1350 hc        1 I23      0.103667
     53 H25         2.5050   -1.4120    5.4870 hc        1 I23      0.103667
     54 H26         2.3750   -0.8580    3.9960 hc        1 I23      0.103667
     55 H27         0.5560   -1.4200    6.7640 ha        1 I23      0.138000
     56 H28        -1.5220   -1.5570    7.9820 ha        1 I23      0.091667
     57 H29        -2.6950   -0.4990    7.7230 ha        1 I23      0.091667
     58 H30        -1.4700   -0.1160    8.6780 ha        1 I23      0.091667
     59 H31        -2.2940    1.4730    6.2900 ha        1 I23      0.139000
     60 H32        -1.9530    3.2520    4.8240 hc        1 I23      0.104000
     61 H33        -0.4350    3.5860    4.4470 hc        1 I23      0.104000
     62 H34        -1.3620    2.7850    3.4130 hc        1 I23      0.104000
@<TRIPOS>BOND
     1    1    2 1   
     2    2    3 1   
     3    3    4 1   
     4    3   29 1   
     5    4    5 1   
     6    4   10 1   
     7    4   30 1   
     8    5    6 1   
     9    5   31 1   
    10    5   32 1   
    11    6    7 1   
    12    6   33 1   
    13    6   34 1   
    14    7    8 1   
    15    7   35 1   
    16    7   36 1   
    17    8    9 1   
    18    8   37 1   
    19    8   38 1   
    20    9   10 1   
    21    9   39 1   
    22    9   40 1   
    23   10   41 1   
    24   10   42 1   
    25   11   12 1   
    26   11   16 1   
    27   11   43 1   
    28   12   13 1   
    29   12   44 1   
    30   12   45 1   
    31   13   14 1   
    32   13   46 1   
    33   13   47 1   
    34   14   15 1   
    35   14   17 1   
    36   15   16 1   
    37   15   48 1   
    38   15   49 1   
    39   16   50 1   
    40   16   51 1   
    41   17   18 1   
    42   17   19 1   
    43   20   27 1   
    44   21   22 1   
    45   21   23 1   
    46   22   52 1   
    47   22   53 1   
    48   22   54 1   
    49   23   55 1   
    50   24   26 1   
    51   25   56 1   
    52   25   57 1   
    53   25   58 1   
    54   26   59 1   
    55   27   28 1   
    56   28   60 1   
    57   28   61 1   
    58   28   62 1   
@<TRIPOS>SUBSTRUCTURE
     1 I23         1 TEMP              0 ****  ****    0 ROOT
