@<TRIPOS>MOLECULE
I23
   63    65     1     0     0
SMALL
bcc


@<TRIPOS>ATOM
      1 O28        -0.3180   -1.9190   -0.2330 o         1 I23     -0.418100
      2 C9          0.0870   -1.2320    0.6950 c         1 I23      0.534100
      3 N8          1.0600   -0.1390    0.3750 n4        1 I23     -0.672800
      4 C7          1.2670    0.1310   -1.1040 c3        1 I23      0.143500
      5 C6          2.2500   -0.8830   -1.7020 c3        1 I23     -0.096900
      6 C5          2.1400   -0.9280   -3.2130 c3        1 I23     -0.072400
      7 C4          3.0950    0.0020   -3.9280 c3        1 I23     -0.084400
      8 C3          3.2450    1.3710   -3.3020 c3        1 I23     -0.084400
      9 C2          1.9590    1.9360   -2.7380 c3        1 I23     -0.072400
     10 C1          1.7390    1.5790   -1.2820 c3        1 I23     -0.096900
     11 C10        -0.3230   -1.4170    2.1440 c3        1 I23     -0.123700
     12 C27        -0.8370   -0.1410    2.7960 c3        1 I23     -0.104900
     13 C26         0.1270    0.4310    3.8440 c3        1 I23      0.210800
     14 N13         1.5120    0.2380    3.5070 n3        1 I23     -0.833500
     15 C12         1.9090   -1.1400    3.3930 c3        1 I23      0.210800
     16 C11         0.7840   -2.0790    2.9500 c3        1 I23     -0.104900
     17 S14         2.5460    1.4880    3.1980 sy        1 I23      1.524200
     18 O15         2.9280    1.2580    1.8370 o         1 I23     -0.680800
     19 O25         1.8450    2.6990    3.3610 o         1 I23     -0.680800
     20 C16         3.7960    1.3100    4.2640 ca        1 I23     -0.442500
     21 C23         5.0640    0.8050    3.8920 ca        1 I23      0.063700
     22 C24         5.3650    0.3740    2.5020 c3        1 I23     -0.093800
     23 C22         6.0980    0.7140    4.8240 ca        1 I23     -0.170000
     24 C20         5.9150    1.1210    6.1490 ca        1 I23      0.036700
     25 C21         7.0230    1.0360    7.1260 c3        1 I23     -0.080800
     26 C19         4.6680    1.6270    6.5290 ca        1 I23     -0.170000
     27 C17         3.6260    1.7270    5.6090 ca        1 I23      0.063700
     28 C18         2.3450    2.3130    6.0840 c3        1 I23     -0.093800
     29 H1          1.9810   -0.3620    0.7920 hn        1 I23      0.472800
     30 H2          0.2550    0.0010   -1.5950 hx        1 I23      0.104700
     31 H3          3.2970   -0.6200   -1.3990 hc        1 I23      0.066700
     32 H4          2.0170   -1.9080   -1.3030 hc        1 I23      0.066700
     33 H5          2.3530   -1.9800   -3.5510 hc        1 I23      0.059200
     34 H6          1.0850   -0.7020   -3.5270 hc        1 I23      0.059200
     35 H7          4.1110   -0.4760   -3.9770 hc        1 I23      0.054200
     36 H8          2.7390    0.1160   -4.9880 hc        1 I23      0.054200
     37 H9          4.0240    1.3340   -2.4940 hc        1 I23      0.054200
     38 H10         3.6330    2.0750   -4.0880 hc        1 I23      0.054200
     39 H11         1.0840    1.6020   -3.3560 hc        1 I23      0.059200
     40 H12         1.9990    3.0580   -2.8020 hc        1 I23      0.059200
     41 H13         0.9590    2.2730   -0.8650 hc        1 I23      0.066700
     42 H14         2.6860    1.7460   -0.6980 hc        1 I23      0.066700
     43 H15        -1.1850   -2.1540    2.0870 hc        1 I23      0.120700
     44 H16        -1.0770    0.6360    2.0250 hc        1 I23      0.077450
     45 H17        -1.8040   -0.3720    3.3210 hc        1 I23      0.077450
     46 H18        -0.0870   -0.0700    4.8340 h1        1 I23      0.068450
     47 H19        -0.0800    1.5350    3.9670 h1        1 I23      0.068450
     48 H20         2.7640   -1.2040    2.6560 h1        1 I23      0.068450
     49 H21         2.2970   -1.5120    4.3870 h1        1 I23      0.068450
     50 H22         0.3020   -2.5160    3.8680 hc        1 I23      0.077450
     51 H23         1.2280   -2.9320    2.3720 hc        1 I23      0.077450
     52 H24         4.6470   -0.4130    2.1610 hc        1 I23      0.067700
     53 H25         6.3990   -0.0450    2.4250 hc        1 I23      0.067700
     54 H26         5.2870    1.2430    1.7990 hc        1 I23      0.067700
     55 H27         7.0800    0.3200    4.5130 ha        1 I23      0.155000
     56 H28         7.5930    2.0010    7.1300 hc        1 I23      0.066700
     57 H29         6.6350    0.8550    8.1590 hc        1 I23      0.066700
     58 H30         7.7320    0.2120    6.8610 hc        1 I23      0.066700
     59 H31         4.5130    1.9570    7.5690 ha        1 I23      0.155000
     60 H32         1.4760    1.6500    5.8460 hc        1 I23      0.067700
     61 H33         2.1730    3.3100    5.5980 hc        1 I23      0.067700
     62 H34         2.3600    2.4670    7.1920 hc        1 I23      0.067700
     63 H82         0.7460    0.7320    0.8250 hn        1 I23      0.472800
@<TRIPOS>BOND
     1    1    2 2   
     2    2    3 1   
     3    2   11 1   
     4    3    4 1   
     5    3   29 1   
     6    3   63 1   
     7    4    5 1   
     8    4   10 1   
     9    4   30 1   
    10    5    6 1   
    11    5   31 1   
    12    5   32 1   
    13    6    7 1   
    14    6   33 1   
    15    6   34 1   
    16    7    8 1   
    17    7   35 1   
    18    7   36 1   
    19    8    9 1   
    20    8   37 1   
    21    8   38 1   
    22    9   10 1   
    23    9   39 1   
    24    9   40 1   
    25   10   41 1   
    26   10   42 1   
    27   11   12 1   
    28   11   16 1   
    29   11   43 1   
    30   12   13 1   
    31   12   44 1   
    32   12   45 1   
    33   13   14 1   
    34   13   46 1   
    35   13   47 1   
    36   14   15 1   
    37   14   17 1   
    38   15   16 1   
    39   15   48 1   
    40   15   49 1   
    41   16   50 1   
    42   16   51 1   
    43   17   18 2   
    44   17   19 2   
    45   17   20 1   
    46   20   21 ar  
    47   20   27 ar  
    48   21   22 1   
    49   21   23 ar  
    50   22   52 1   
    51   22   53 1   
    52   22   54 1   
    53   23   24 ar  
    54   23   55 1   
    55   24   25 1   
    56   24   26 ar  
    57   25   56 1   
    58   25   57 1   
    59   25   58 1   
    60   26   27 ar  
    61   26   59 1   
    62   27   28 1   
    63   28   60 1   
    64   28   61 1   
    65   28   62 1   
@<TRIPOS>SUBSTRUCTURE
     1 I23         1 TEMP              0 ****  ****    0 ROOT
