@<TRIPOS>MOLECULE
I24
   60    54     1     0     0
SMALL
bcc


@<TRIPOS>ATOM
      1 N1         -0.8220   -0.3760   -2.5450 n1        1 I24     -0.201000
      2 C2          0.5300   -0.3590   -2.5270 c1        1 I24      0.205000
      3 N3          1.2060   -0.3000   -1.3230 n1        1 I24     -0.320000
      4 C4          0.5250   -0.2600   -0.1750 c1        1 I24      0.247000
      5 C5         -1.5280   -0.3350   -1.3580 c1        1 I24      0.088000
      6 C6         -0.8680   -0.2780   -0.1880 c1        1 I24     -0.247000
      7 N7         -1.7890   -0.0880    0.8110 n1        1 I24     -0.151500
      8 C8         -3.0120   -0.0300    0.2480 c1        1 I24     -0.053000
      9 N9         -2.8630   -0.1820   -1.0960 n1        1 I24     -0.151500
     10 N10         1.3870   -0.4690    0.9290 n3        1 I24     -0.275000
     11 O11         1.4080   -0.9570   -3.5110 os        1 I24     -0.176000
     12 C12         1.6720    0.6380    1.8630 c3        1 I24     -0.039000
     13 C13         1.4910    0.1450    3.3120 c3        1 I24     -0.098000
     14 N14         1.7640    1.2370    4.2350 n3        1 I24     -0.252000
     15 C15         0.4550    1.7800    4.7890 c3        1 I24     -0.106500
     16 C16         0.6660    2.8340    5.8620 c3        1 I24     -0.036500
     17 O17         1.8310    2.7580    6.3550 os        1 I24     -0.282000
     18 C18         2.4610    1.7360    6.6250 c3        1 I24     -0.036500
     19 C19         2.2650    0.6680    5.5640 c3        1 I24     -0.106500
     20 C20         2.2500   -0.0190   -4.1860 c3        1 I24     -0.008000
     21 C21         3.5840   -0.6550   -4.4580 c3        1 I24     -0.191000
     22 C22         4.7060    0.3770   -4.2200 c3        1 I24     -0.156000
     23 C23         5.9600   -0.3460   -3.6840 c3        1 I24     -0.210000
     24 C24        -4.0330    0.3260   -1.7980 c2        1 I24      0.034000
     25 C25        -4.9660   -0.8380   -2.1440 c2        1 I24     -0.190000
     26 C26        -5.3640   -1.7250   -1.1510 c2        1 I24      0.126000
     27 C27        -6.2240   -2.7750   -1.4580 c1        1 I24     -0.182000
     28 C28        -6.6880   -2.9370   -2.7620 c1        1 I24     -0.127000
     29 C29        -6.2960   -2.0600   -3.7470 c1        1 I24     -0.127000
     30 C30        -5.4260   -0.9990   -3.4390 c1        1 I24      0.145000
     31 F31        -4.9550   -1.5480    0.0950 f         1 I24     -0.106000
     32 F32        -5.2030   -0.0730   -4.3190 f         1 I24     -0.080000
     33 H10         1.8180   -1.2980    1.0380 hn        1 I24      0.221000
     34 H8         -3.8430    0.1890    0.7110 DU        1 I24      0.209000
     35 H241       -3.7480    0.7780   -2.6270 ha        1 I24      0.128500
     36 H242       -4.5110    0.9690   -1.2190 ha        1 I24      0.128500
     37 H121        1.0460    1.3930    1.6880 h1        1 I24      0.116000
     38 H122        2.5740    0.9350    1.7370 h1        1 I24      0.116000
     39 H201        2.3690    0.7510   -3.6420 h1        1 I24      0.104000
     40 H202        1.8340    0.2430   -5.0380 h1        1 I24      0.104000
     41 H131        2.1400   -0.6260    3.4940 h1        1 I24      0.080000
     42 H132        0.5810   -0.1630    3.4360 h1        1 I24      0.080000
     43 H151       -0.0410    2.1640    4.0790 h1        1 I24      0.095750
     44 H152       -0.0760    1.0170    5.1810 h1        1 I24      0.095750
     45 H191        1.6250    0.0220    5.8880 h1        1 I24      0.095750
     46 H192        3.1330    0.2100    5.4100 h1        1 I24      0.095750
     47 H161        0.0070    2.7020    6.5730 h1        1 I24      0.089500
     48 H162        0.5400    3.7340    5.4640 h1        1 I24      0.089500
     49 H181        3.3890    1.9490    6.6850 h1        1 I24      0.089500
     50 H182        2.1570    1.3930    7.4810 h1        1 I24      0.089500
     51 H211        3.6160   -0.9640   -5.3860 hc        1 I24      0.097500
     52 H212        3.7090   -1.4180   -3.8570 hc        1 I24      0.097500
     53 H221        4.3950    1.0640   -3.5410 hc        1 I24      0.078500
     54 H222        4.9270    0.8350   -5.0830 hc        1 I24      0.078500
     55 H231        5.7490   -0.7660   -2.7830 hc        1 I24      0.073333
     56 H232        6.6910    0.3000   -3.5800 hc        1 I24      0.073333
     57 H233        6.2260   -1.0370   -4.3080 hc        1 I24      0.073333
     58 H27        -6.5100   -3.4100   -0.7430 ha        1 I24      0.157000
     59 H28        -7.2940   -3.6780   -2.9790 ha        1 I24      0.152500
     60 H29        -6.6290   -2.1780   -4.6800 ha        1 I24      0.152500
@<TRIPOS>BOND
     1    1    5 1   
     2    2    3 1   
     3    2   11 1   
     4    4    6 1   
     5    4   10 1   
     6    7    8 1   
     7    8    9 1   
     8   10   12 1   
     9   10   33 1   
    10   11   20 1   
    11   12   13 1   
    12   12   37 1   
    13   12   38 1   
    14   13   14 1   
    15   13   41 1   
    16   13   42 1   
    17   14   15 1   
    18   14   19 1   
    19   15   16 1   
    20   15   43 1   
    21   15   44 1   
    22   16   17 1   
    23   16   47 1   
    24   16   48 1   
    25   17   18 1   
    26   18   19 1   
    27   18   49 1   
    28   18   50 1   
    29   19   45 1   
    30   19   46 1   
    31   20   21 1   
    32   20   39 1   
    33   20   40 1   
    34   21   22 1   
    35   21   51 1   
    36   21   52 1   
    37   22   23 1   
    38   22   53 1   
    39   22   54 1   
    40   23   55 1   
    41   23   56 1   
    42   23   57 1   
    43   24   25 1   
    44   24   35 1   
    45   24   36 1   
    46   25   26 1   
    47   25   30 1   
    48   26   27 1   
    49   26   31 1   
    50   27   58 1   
    51   28   29 1   
    52   28   59 1   
    53   29   60 1   
    54   30   32 1   
@<TRIPOS>SUBSTRUCTURE
     1 I24         1 TEMP              0 ****  ****    0 ROOT
