@<TRIPOS>MOLECULE
I24
   61    64     1     0     0
SMALL
bcc


@<TRIPOS>ATOM
      1 N1          0.1390   -0.3700   -0.3070 nb        1 I24     -0.697000
      2 C2          1.4960   -0.5920   -0.2460 ca        1 I24      0.904300
      3 N3          2.2800   -0.8090    0.8790 nb        1 I24     -0.707000
      4 C4          1.6350   -0.8010    2.0680 ca        1 I24      0.572200
      5 C5         -0.4650   -0.3760    0.9020 ca        1 I24      0.496800
      6 C6          0.2520   -0.5890    2.1790 ca        1 I24     -0.186200
      7 N7         -0.6530   -0.5330    3.2490 nc        1 I24     -0.578100
      8 C8         -1.8470   -0.3050    2.6810 cd        1 I24      0.488700
      9 N9         -1.8040   -0.1790    1.2700 na        1 I24     -0.255000
     10 N10         2.4270   -1.0300    3.2950 n4        1 I24     -0.735700
     11 O11         2.2640   -0.6110   -1.3790 os        1 I24     -0.400100
     12 C12         3.3680    0.1000    3.5730 c3        1 I24      0.108800
     13 C13         4.0300   -0.0270    4.9600 c3        1 I24      0.138800
     14 N14         4.5830   -1.3510    5.1850 n3        1 I24     -0.769600
     15 C15         5.9040   -1.5190    4.5840 c3        1 I24      0.124300
     16 C16         6.5110   -2.8970    4.8780 c3        1 I24      0.124900
     17 O17         6.5160   -3.1710    6.2720 os        1 I24     -0.393600
     18 C18         5.2150   -3.1030    6.8370 c3        1 I24      0.124900
     19 C19         4.5700   -1.7310    6.5970 c3        1 I24      0.124300
     20 C20         1.6300   -0.4240   -2.6620 c3        1 I24      0.139400
     21 C21         0.8990   -1.6680   -3.1190 c3        1 I24     -0.117400
     22 C22         0.6840   -1.6260   -4.6180 c3        1 I24     -0.077400
     23 C23        -0.0960   -2.8260   -5.0900 c3        1 I24     -0.094100
     24 C24        -2.9300   -0.0200    0.3840 c3        1 I24      0.094600
     25 C25        -3.7130   -1.2750    0.1500 ca        1 I24     -0.221300
     26 C26        -4.7310   -1.6630    1.0480 ca        1 I24      0.170400
     27 C27        -5.5180   -2.8000    0.8030 ca        1 I24     -0.172000
     28 C28        -5.2820   -3.5620   -0.3390 ca        1 I24     -0.055000
     29 C29        -4.2770   -3.2140   -1.2360 ca        1 I24     -0.172000
     30 C30        -3.4890   -2.0740   -0.9900 ca        1 I24      0.170400
     31 F31        -4.9520   -0.9230    2.1620 f         1 I24     -0.132900
     32 F32        -2.5100   -1.7410   -1.8640 f         1 I24     -0.132900
     33 H10         2.9730   -1.9010    3.1950 hn        1 I24      0.477800
     34 H8         -2.8050   -0.2100    3.2220 h5        1 I24      0.109800
     35 H241       -3.6100    0.7570    0.8450 h1        1 I24      0.101700
     36 H242       -2.5460    0.3730   -0.6040 h1        1 I24      0.101700
     37 H121        2.7860    1.0630    3.5340 hx        1 I24      0.113200
     38 H122        4.1470    0.1070    2.7580 hx        1 I24      0.113200
     39 H201        0.9660    0.4760   -2.6480 h1        1 I24      0.080700
     40 H202        2.5350   -0.2230   -3.3060 h1        1 I24      0.080700
     41 H131        4.8090    0.7920    5.0020 h1        1 I24      0.076700
     42 H132        3.2600    0.1990    5.7520 h1        1 I24      0.076700
     43 H151        6.6240   -0.7300    4.9480 h1        1 I24      0.050950
     44 H152        5.7940   -1.4040    3.4700 h1        1 I24      0.050950
     45 H191        5.1090   -0.9680    7.2300 h1        1 I24      0.050950
     46 H192        3.4980   -1.7750    6.9370 h1        1 I24      0.050950
     47 H161        5.9530   -3.7030    4.3340 h1        1 I24      0.065950
     48 H162        7.5940   -2.9100    4.5840 h1        1 I24      0.065950
     49 H181        5.3760   -3.2610    7.9360 h1        1 I24      0.065950
     50 H182        4.5740   -3.9220    6.4180 h1        1 I24      0.065950
     51 H211        1.5000   -2.5760   -2.8470 hc        1 I24      0.062200
     52 H212       -0.0940   -1.7510   -2.6020 hc        1 I24      0.062200
     53 H221        0.1330   -0.6870   -4.8900 hc        1 I24      0.045700
     54 H222        1.6770   -1.5930   -5.1400 hc        1 I24      0.045700
     55 H231       -0.2440   -2.7780   -6.1960 hc        1 I24      0.040033
     56 H232       -1.0990   -2.8620   -4.5990 hc        1 I24      0.040033
     57 H233        0.4480   -3.7710   -4.8470 hc        1 I24      0.040033
     58 H27        -6.3130   -3.0750    1.5120 ha        1 I24      0.168500
     59 H28        -5.9020   -4.4530   -0.5350 ha        1 I24      0.162000
     60 H29        -4.0900   -3.8170   -2.1380 ha        1 I24      0.168500
     61 H102        1.7810   -1.1420    4.0890 hn        1 I24      0.477800
@<TRIPOS>BOND
     1    1    2 ar  
     2    1    5 ar  
     3    2    3 ar  
     4    2   11 1   
     5    3    4 ar  
     6    4    6 ar  
     7    4   10 1   
     8    5    6 ar  
     9    5    9 1   
    10    6    7 1   
    11    7    8 2   
    12    8    9 1   
    13    8   34 1   
    14    9   24 1   
    15   10   12 1   
    16   10   33 1   
    17   10   61 1   
    18   11   20 1   
    19   12   13 1   
    20   12   37 1   
    21   12   38 1   
    22   13   14 1   
    23   13   41 1   
    24   13   42 1   
    25   14   15 1   
    26   14   19 1   
    27   15   16 1   
    28   15   43 1   
    29   15   44 1   
    30   16   17 1   
    31   16   47 1   
    32   16   48 1   
    33   17   18 1   
    34   18   19 1   
    35   18   49 1   
    36   18   50 1   
    37   19   45 1   
    38   19   46 1   
    39   20   21 1   
    40   20   39 1   
    41   20   40 1   
    42   21   22 1   
    43   21   51 1   
    44   21   52 1   
    45   22   23 1   
    46   22   53 1   
    47   22   54 1   
    48   23   55 1   
    49   23   56 1   
    50   23   57 1   
    51   24   25 1   
    52   24   35 1   
    53   24   36 1   
    54   25   26 ar  
    55   25   30 ar  
    56   26   27 ar  
    57   26   31 1   
    58   27   28 ar  
    59   27   58 1   
    60   28   29 ar  
    61   28   59 1   
    62   29   30 ar  
    63   29   60 1   
    64   30   32 1   
@<TRIPOS>SUBSTRUCTURE
     1 I24         1 TEMP              0 ****  ****    0 ROOT
