@<TRIPOS>MOLECULE
I24
   60    63     1     0     0
SMALL
bcc


@<TRIPOS>ATOM
      1 N1          8.9700   49.9350   72.2840 nb        1 I24     -0.793000
      2 C2          9.6980   49.3630   73.2950 ca        1 I24      0.904300
      3 N3          9.7570   49.6870   74.6340 nb        1 I24     -0.792000
      4 C4          8.9980   50.7500   75.0510 ca        1 I24      0.772200
      5 C5          8.2070   50.9740   72.7250 ca        1 I24      0.488800
      6 C6          8.1670   51.4390   74.1040 ca        1 I24     -0.256200
      7 N7          7.2810   52.5220   74.2210 nc        1 I24     -0.530100
      8 C8          6.8000   52.7160   72.9870 cd        1 I24      0.394700
      9 N9          7.3390   51.8240   72.0190 na        1 I24     -0.270000
     10 N10         9.0560   51.1970   76.3530 nh        1 I24     -0.842900
     11 O11        10.5260   48.2880   73.0290 os        1 I24     -0.420100
     12 C12         9.7480   50.4580   77.3750 c3        1 I24      0.215800
     13 C13         9.7020   51.1380   78.7580 c3        1 I24      0.153800
     14 N14         8.3550   51.3540   79.2630 n3        1 I24     -0.736600
     15 C15         7.6880   50.1170   79.6500 c3        1 I24      0.131800
     16 C16         6.2980   50.3610   80.2500 c3        1 I24      0.126400
     17 O17         6.3430   51.3020   81.3160 os        1 I24     -0.415600
     18 C18         6.9180   52.5390   80.9120 c3        1 I24      0.126400
     19 C19         8.3240   52.3470   80.3310 c3        1 I24      0.131800
     20 C20        10.6250   47.8120   71.6800 c3        1 I24      0.144400
     21 C21         9.4340   46.9590   71.2920 c3        1 I24     -0.116400
     22 C22         9.7620   46.1150   70.0780 c3        1 I24     -0.076400
     23 C23         8.5640   45.3220   69.6240 c3        1 I24     -0.091100
     24 C24         6.9460   51.7090   70.6480 c3        1 I24      0.101600
     25 C25         5.6310   51.0180   70.4260 ca        1 I24     -0.194300
     26 C26         4.4180   51.7330   70.5160 ca        1 I24      0.169900
     27 C27         3.1830   51.1010   70.2870 ca        1 I24     -0.182500
     28 C28         3.1570   49.7460   69.9710 ca        1 I24     -0.070000
     29 C29         4.3340   49.0130   69.8750 ca        1 I24     -0.182500
     30 C30         5.5710   49.6470   70.1040 ca        1 I24      0.169900
     31 F31         4.4400   53.0530   70.8240 f         1 I24     -0.129900
     32 F32         6.7090   48.9230   70.0000 f         1 I24     -0.129900
     33 H10         8.3520   51.8430   76.6380 hn        1 I24      0.464800
     34 H8          6.0690   53.4800   72.6930 h5        1 I24      0.077800
     35 H241        6.8740   52.7550   70.2230 h1        1 I24      0.086200
     36 H242        7.7550   51.1480   70.0930 h1        1 I24      0.086200
     37 H121        9.3320   49.4110   77.4530 h1        1 I24      0.056700
     38 H122       10.8350   50.3680   77.0830 h1        1 I24      0.056700
     39 H201       10.7820   48.6550   70.9610 h1        1 I24      0.062200
     40 H202       11.5610   47.1870   71.7370 h1        1 I24      0.062200
     41 H131       10.3160   50.4910   79.4520 h1        1 I24      0.045700
     42 H132       10.2120   52.1410   78.6840 h1        1 I24      0.045700
     43 H151        7.5700   49.4850   78.7270 h1        1 I24      0.042700
     44 H152        8.3010   49.5320   80.3970 h1        1 I24      0.042700
     45 H191        9.0240   52.0710   81.1730 h1        1 I24      0.042700
     46 H192        8.6670   53.3280   79.9000 h1        1 I24      0.042700
     47 H161        5.5840   50.7190   79.4630 h1        1 I24      0.055200
     48 H162        5.9130   49.4200   80.7230 h1        1 I24      0.055200
     49 H181        6.2460   53.0410   80.1670 h1        1 I24      0.055200
     50 H182        6.9710   53.1440   81.8550 h1        1 I24      0.055200
     51 H211        9.1550   46.2960   72.1530 hc        1 I24      0.062700
     52 H212        8.5470   47.6090   71.0680 hc        1 I24      0.062700
     53 H221       10.1100   46.7810   69.2440 hc        1 I24      0.037700
     54 H222       10.6070   45.4180   70.3200 hc        1 I24      0.037700
     55 H231        8.2170   44.6350   70.4330 hc        1 I24      0.033367
     56 H232        7.7200   46.0050   69.3570 hc        1 I24      0.033367
     57 H233        8.8210   44.7100   68.7260 hc        1 I24      0.033367
     58 H27         2.2540   51.6840   70.3630 ha        1 I24      0.157000
     59 H28         2.1900   49.2490   69.7950 ha        1 I24      0.147000
     60 H29         4.3150   47.9420   69.6260 ha        1 I24      0.157000
@<TRIPOS>BOND
     1    1    2 ar  
     2    1    5 ar  
     3    2    3 ar  
     4    2   11 1   
     5    3    4 ar  
     6    4    6 ar  
     7    4   10 1   
     8    5    6 ar  
     9    5    9 1   
    10    6    7 1   
    11    7    8 2   
    12    8    9 1   
    13    8   34 1   
    14    9   24 1   
    15   10   12 1   
    16   10   33 1   
    17   11   20 1   
    18   12   13 1   
    19   12   37 1   
    20   12   38 1   
    21   13   14 1   
    22   13   41 1   
    23   13   42 1   
    24   14   15 1   
    25   14   19 1   
    26   15   16 1   
    27   15   43 1   
    28   15   44 1   
    29   16   17 1   
    30   16   47 1   
    31   16   48 1   
    32   17   18 1   
    33   18   19 1   
    34   18   49 1   
    35   18   50 1   
    36   19   45 1   
    37   19   46 1   
    38   20   21 1   
    39   20   39 1   
    40   20   40 1   
    41   21   22 1   
    42   21   51 1   
    43   21   52 1   
    44   22   23 1   
    45   22   53 1   
    46   22   54 1   
    47   23   55 1   
    48   23   56 1   
    49   23   57 1   
    50   24   25 1   
    51   24   35 1   
    52   24   36 1   
    53   25   26 ar  
    54   25   30 ar  
    55   26   27 ar  
    56   26   31 1   
    57   27   28 ar  
    58   27   58 1   
    59   28   29 ar  
    60   28   59 1   
    61   29   30 ar  
    62   29   60 1   
    63   30   32 1   
@<TRIPOS>SUBSTRUCTURE
     1 I24         1 TEMP              0 ****  ****    0 ROOT
