@<TRIPOS>MOLECULE
I24
   60    63     1     0     0
SMALL
bcc


@<TRIPOS>ATOM
      1 N1          0.0040    0.0610   -0.2980 nb        1 I24     -0.791000
      2 C2          1.3700    0.1670   -0.3240 ca        1 I24      0.902300
      3 N3          2.2830    0.0640    0.7030 nb        1 I24     -0.791000
      4 C4          1.7840   -0.1550    1.9620 ca        1 I24      0.771200
      5 C5         -0.4700   -0.1760    0.9580 ca        1 I24      0.487800
      6 C6          0.3660   -0.3040    2.1420 ca        1 I24     -0.255200
      7 N7         -0.4320   -0.5500    3.2700 nc        1 I24     -0.531100
      8 C8         -1.6890   -0.5700    2.8120 cd        1 I24      0.396700
      9 N9         -1.7890   -0.3310    1.4140 na        1 I24     -0.271000
     10 N10         2.6140   -0.1910    3.0600 nu        1 I24     -0.842900
     11 O11         2.0160    0.4480   -1.5150 os        1 I24     -0.421100
     12 C12         4.0470   -0.2010    2.9230 c3        1 I24      0.215800
     13 C13         4.7880   -0.2250    4.2750 c3        1 I24      0.153800
     14 N14         4.4590   -1.3710    5.1070 n3        1 I24     -0.736600
     15 C15         4.9960   -2.6230    4.5890 c3        1 I24      0.132300
     16 C16         4.7060   -3.8130    5.5110 c3        1 I24      0.126400
     17 O17         5.1290   -3.5600    6.8450 os        1 I24     -0.415600
     18 C18         4.5380   -2.3820    7.3780 c3        1 I24      0.126400
     19 C19         4.8250   -1.1570    6.5030 c3        1 I24      0.132300
     20 C20         1.2770    0.3130   -2.7360 c3        1 I24      0.140400
     21 C21         1.1300   -1.1430   -3.1340 c3        1 I24     -0.109400
     22 C22         0.1990   -1.2810   -4.3190 c3        1 I24     -0.078400
     23 C23         0.1970   -2.6890   -4.8560 c3        1 I24     -0.091100
     24 C24        -2.9840   -0.3170    0.6270 c3        1 I24      0.103600
     25 C25        -3.4690   -1.6710    0.1910 ca        1 I24     -0.193300
     26 C26        -4.1790   -2.5010    1.0830 ca        1 I24      0.170900
     27 C27        -4.6530   -3.7620    0.6800 ca        1 I24     -0.183500
     28 C28        -4.4180   -4.1980   -0.6200 ca        1 I24     -0.071000
     29 C29        -3.7270   -3.4000   -1.5250 ca        1 I24     -0.183500
     30 C30        -3.2520   -2.1370   -1.1220 ca        1 I24      0.170900
     31 F31        -4.4180   -2.0770    2.3480 f         1 I24     -0.130400
     32 F32        -2.5910   -1.3680   -2.0180 f         1 I24     -0.130400
     33 H10         2.2230   -0.5380    3.9080 hn        1 I24      0.464800
     34 H8         -2.5900   -0.7480    3.4130 h5        1 I24      0.078800
     35 H241       -2.7970    0.3200   -0.2880 h1        1 I24      0.085200
     36 H242       -3.7970    0.1660    1.2460 h1        1 I24      0.085200
     37 H121        4.3760   -1.0780    2.2940 h1        1 I24      0.056700
     38 H122        4.3650    0.7390    2.3850 h1        1 I24      0.056700
     39 H201        1.9400    0.8620   -3.4620 h1        1 I24      0.065200
     40 H202        0.2860    0.8290   -2.6770 h1        1 I24      0.065200
     41 H131        4.5250    0.7100    4.8480 h1        1 I24      0.045700
     42 H132        5.8910   -0.1790    4.0340 h1        1 I24      0.045700
     43 H151        6.1120   -2.5600    4.4290 h1        1 I24      0.042450
     44 H152        4.5120   -2.8200    3.5920 h1        1 I24      0.042450
     45 H191        4.2180   -0.2920    6.8910 h1        1 I24      0.042450
     46 H192        5.9180   -0.8920    6.6080 h1        1 I24      0.042450
     47 H161        5.3080   -4.7040    5.1900 h1        1 I24      0.055200
     48 H162        3.6130   -4.0630    5.5040 h1        1 I24      0.055200
     49 H181        5.0180   -2.2570    8.3840 h1        1 I24      0.055200
     50 H182        3.4320   -2.5350    7.4940 h1        1 I24      0.055200
     51 H211        0.7290   -1.7340   -2.2690 hc        1 I24      0.055200
     52 H212        2.1390   -1.5640   -3.3820 hc        1 I24      0.055200
     53 H221        0.5110   -0.5700   -5.1290 hc        1 I24      0.042200
     54 H222       -0.8410   -0.9950   -4.0050 hc        1 I24      0.042200
     55 H231       -0.5140   -2.7760   -5.7120 hc        1 I24      0.032367
     56 H232        1.2160   -2.9780   -5.2120 hc        1 I24      0.032367
     57 H233       -0.1140   -3.4110   -4.0620 hc        1 I24      0.032367
     58 H27        -5.2020   -4.3890    1.3970 ha        1 I24      0.157000
     59 H28        -4.7850   -5.1870   -0.9360 ha        1 I24      0.147000
     60 H29        -3.5420   -3.7420   -2.5540 ha        1 I24      0.157000
@<TRIPOS>BOND
     1    1    2 ar  
     2    1    5 ar  
     3    2    3 ar  
     4    2   11 1   
     5    3    4 ar  
     6    4    6 ar  
     7    4   10 1   
     8    5    6 ar  
     9    5    9 1   
    10    6    7 1   
    11    7    8 2   
    12    8    9 1   
    13    8   34 1   
    14    9   24 1   
    15   10   12 1   
    16   10   33 1   
    17   11   20 1   
    18   12   13 1   
    19   12   37 1   
    20   12   38 1   
    21   13   14 1   
    22   13   41 1   
    23   13   42 1   
    24   14   15 1   
    25   14   19 1   
    26   15   16 1   
    27   15   43 1   
    28   15   44 1   
    29   16   17 1   
    30   16   47 1   
    31   16   48 1   
    32   17   18 1   
    33   18   19 1   
    34   18   49 1   
    35   18   50 1   
    36   19   45 1   
    37   19   46 1   
    38   20   21 1   
    39   20   39 1   
    40   20   40 1   
    41   21   22 1   
    42   21   51 1   
    43   21   52 1   
    44   22   23 1   
    45   22   53 1   
    46   22   54 1   
    47   23   55 1   
    48   23   56 1   
    49   23   57 1   
    50   24   25 1   
    51   24   35 1   
    52   24   36 1   
    53   25   26 ar  
    54   25   30 ar  
    55   26   27 ar  
    56   26   31 1   
    57   27   28 ar  
    58   27   58 1   
    59   28   29 ar  
    60   28   59 1   
    61   29   30 ar  
    62   29   60 1   
    63   30   32 1   
@<TRIPOS>SUBSTRUCTURE
     1 I24         1 TEMP              0 ****  ****    0 ROOT
