@<TRIPOS>MOLECULE
I25
   66    67     1     0     0
SMALL
bcc


@<TRIPOS>ATOM
      1 O17         1.0380   -2.1560    0.4770 o         1 I25     -0.832300
      2 C15         2.1110   -2.1280    1.1370 c         1 I25      0.884600
      3 O16         3.0940   -2.8890    0.8790 o         1 I25     -0.832300
      4 C13         2.1810   -1.1820    2.3820 c3        1 I25      0.130800
      5 N14         3.3740   -0.3600    2.4260 nh        1 I25     -0.695600
      6 C1          3.6670    0.5290    1.4290 ca        1 I25      0.263600
      7 C6          4.9210    1.2160    1.4280 ca        1 I25     -0.209500
      8 C4          5.1970    2.1820    0.4830 ca        1 I25     -0.037000
      9 C3          4.2560    2.5010   -0.5110 ca        1 I25     -0.377900
     10 C18         4.5710    3.5320   -1.4980 ce        1 I25      0.624800
     11 N20         4.8790    4.7680   -1.4010 n2        1 I25     -0.746100
     12 N19         4.5350    2.9660   -2.9050 n4        1 I25     -0.831600
     13 C5          3.0190    1.8320   -0.5290 ca        1 I25     -0.037000
     14 C2          2.7240    0.8660    0.4070 ca        1 I25     -0.209500
     15 C11         2.0570   -2.0790    3.5880 ca        1 I25     -0.079300
     16 C8          2.8950   -3.1970    3.6660 ca        1 I25     -0.160000
     17 C9          1.0430   -1.8970    4.5280 ca        1 I25     -0.113000
     18 C10         0.8210   -2.8590    5.5260 ca        1 I25     -0.059300
     19 C21        -0.2400   -2.6360    6.5470 c3        1 I25     -0.046100
     20 C22        -1.6280   -2.7460    5.9640 c3        1 I25     -0.091100
     21 C12         1.5920   -4.0250    5.5510 ca        1 I25     -0.147000
     22 C7          2.6170   -4.1880    4.6100 ca        1 I25      0.063100
     23 O23         3.4380   -5.3130    4.6300 os        1 I25     -0.330900
     24 C24         2.8030   -6.5060    4.1650 c3        1 I25      0.125400
     25 C25         3.2630   -6.9140    2.7530 c3        1 I25     -0.088000
     26 C26         4.5300   -6.1920    2.3350 c3        1 I25     -0.099100
     27 C27         3.5580   -8.4180    2.7900 c3        1 I25     -0.099100
     28 C28         2.1510   -6.7500    1.6980 c3        1 I25      0.103800
     29 N29         1.7830   -5.3560    1.3040 n4        1 I25     -0.676400
     30 C31         1.7410   -5.2100   -0.1780 c3        1 I25      0.079100
     31 C30         0.4740   -4.9560    1.8790 c3        1 I25      0.079100
     32 H13         1.2890   -0.4870    2.3400 h1        1 I25      0.083700
     33 H14         4.1400   -0.7330    2.9460 hn        1 I25      0.439800
     34 H6          5.6770    0.9760    2.1910 ha        1 I25      0.170000
     35 H2          1.7620    0.3240    0.3490 ha        1 I25      0.170000
     36 H4          6.1670    2.7040    0.5070 ha        1 I25      0.129000
     37 H5          2.2600    2.0870   -1.2860 ha        1 I25      0.129000
     38 H20         4.8900    5.1710   -0.4870 hn        1 I25      0.481400
     39 H191        3.6300    2.5030   -3.0340 hn        1 I25      0.462800
     40 H192        5.2800    2.2670   -2.9790 hn        1 I25      0.462800
     41 H8          3.7440   -3.3010    2.9690 ha        1 I25      0.177000
     42 H9          0.4010   -1.0040    4.4850 ha        1 I25      0.148000
     43 H211       -0.1270   -3.3770    7.3840 hc        1 I25      0.057700
     44 H212       -0.1030   -1.6130    6.9930 hc        1 I25      0.057700
     45 H12         1.4110   -4.8050    6.3060 ha        1 I25      0.150000
     46 H221       -1.8110   -3.7730    5.5660 hc        1 I25      0.039367
     47 H222       -1.7660   -2.0150    5.1310 hc        1 I25      0.039367
     48 H223       -2.3900   -2.5340    6.7530 hc        1 I25      0.039367
     49 H241        1.6870   -6.4230    4.2140 h1        1 I25      0.061200
     50 H242        3.1440   -7.2830    4.9080 h1        1 I25      0.061200
     51 H261        4.3970   -5.0830    2.3260 hc        1 I25      0.055033
     52 H262        5.3450   -6.4230    3.0640 hc        1 I25      0.055033
     53 H263        4.8480   -6.5270    1.3180 hc        1 I25      0.055033
     54 H271        3.8890   -8.7770    1.7860 hc        1 I25      0.055033
     55 H272        4.3780   -8.6230    3.5210 hc        1 I25      0.055033
     56 H273        2.6510   -8.9900    3.0990 hc        1 I25      0.055033
     57 H281        2.4940   -7.2890    0.7660 hx        1 I25      0.087200
     58 H282        1.2230   -7.2710    2.0710 hx        1 I25      0.087200
     59 H311        2.7510   -5.4590   -0.5970 hx        1 I25      0.102867
     60 H312        0.9580   -5.8870   -0.6020 hx        1 I25      0.102867
     61 H313        1.5100   -4.1250   -0.4160 hx        1 I25      0.102867
     62 H301        0.5470   -4.9690    2.9990 hx        1 I25      0.102867
     63 H302        0.2330   -3.9090    1.5270 hx        1 I25      0.102867
     64 H303       -0.3260   -5.6610    1.5360 hx        1 I25      0.102867
     65 H193        4.6650    3.6870   -3.6220 hn        1 I25      0.462800
     66 H291        2.5060   -4.6770    1.6450 hn        1 I25      0.499800
@<TRIPOS>BOND
     1    1    2 1   
     2    2    3 1   
     3    2    4 1   
     4    4    5 1   
     5    4   15 1   
     6    4   32 1   
     7    5    6 1   
     8    5   33 1   
     9    6    7 ar  
    10    6   14 ar  
    11    7    8 ar  
    12    7   34 1   
    13    8    9 ar  
    14    8   36 1   
    15    9   10 1   
    16    9   13 ar  
    17   10   11 2   
    18   10   12 1   
    19   11   38 1   
    20   12   39 1   
    21   12   40 1   
    22   12   65 1   
    23   13   14 ar  
    24   13   37 1   
    25   14   35 1   
    26   15   16 ar  
    27   15   17 ar  
    28   16   22 ar  
    29   16   41 1   
    30   17   18 ar  
    31   17   42 1   
    32   18   19 1   
    33   18   21 ar  
    34   19   20 1   
    35   19   43 1   
    36   19   44 1   
    37   20   46 1   
    38   20   47 1   
    39   20   48 1   
    40   21   22 ar  
    41   21   45 1   
    42   22   23 1   
    43   23   24 1   
    44   24   25 1   
    45   24   49 1   
    46   24   50 1   
    47   25   26 1   
    48   25   27 1   
    49   25   28 1   
    50   26   51 1   
    51   26   52 1   
    52   26   53 1   
    53   27   54 1   
    54   27   55 1   
    55   27   56 1   
    56   28   29 1   
    57   28   57 1   
    58   28   58 1   
    59   29   30 1   
    60   29   31 1   
    61   29   66 1   
    62   30   59 1   
    63   30   60 1   
    64   30   61 1   
    65   31   62 1   
    66   31   63 1   
    67   31   64 1   
@<TRIPOS>SUBSTRUCTURE
     1 I25         1 TEMP              0 ****  ****    0 ROOT
