@<TRIPOS>MOLECULE
I25
   64    60     1     0     0
SMALL
bcc


@<TRIPOS>ATOM
      1 O17         4.4870   -1.6120    0.1100 o         1 I25     -0.553500
      2 C15         4.2390   -0.3870   -0.0010 c2        1 I25      0.326000
      3 O16         5.1430    0.4560    0.2070 o         1 I25     -0.553500
      4 C13         2.9010    0.0600   -0.4840 c3        1 I25     -0.080000
      5 N14         2.9960    1.3820   -0.9660 n3        1 I25     -0.253000
      6 C1          3.5330    1.6280   -2.2570 c2        1 I25      0.110000
      7 C6          3.0640    2.6850   -3.0070 c2        1 I25     -0.205000
      8 C4          3.6790    3.0140   -4.1990 c1        1 I25     -0.077000
      9 C3          4.7690    2.2800   -4.6430 c1        1 I25     -0.184000
     10 C18         5.5020    2.7030   -5.8910 c2        1 I25      0.136000
     11 N20         6.2310    3.8000   -5.8850 n1        1 I25     -0.339000
     12 N19         5.4040    1.9080   -7.0910 n3        1 I25     -0.336000
     13 C5          5.2390    1.2230   -3.8950 c1        1 I25     -0.081000
     14 C2          4.6230    0.8940   -2.7010 c1        1 I25     -0.183000
     15 C11         1.8810   -0.0010    0.6840 c2        1 I25     -0.019000
     16 C8          0.7720   -0.8280    0.5920 c2        1 I25     -0.128000
     17 C9          2.0430    0.8250    1.7980 c1        1 I25     -0.116000
     18 C10         1.0880    0.8180    2.8180 c1        1 I25     -0.075000
     19 C21         1.2420    1.7670    4.0220 c3        1 I25     -0.118000
     20 C22         0.8130    3.1710    3.6200 c3        1 I25     -0.206000
     21 C12        -0.0180   -0.0070    2.7250 c1        1 I25     -0.169000
     22 C7         -0.1830   -0.8330    1.6150 c1        1 I25      0.025000
     23 O23        -1.3160   -1.7130    1.5400 os        1 I25     -0.237000
     24 C24        -2.5740   -1.0690    1.8500 c3        1 I25     -0.017000
     25 C25        -3.7230   -1.7510    1.0480 c3        1 I25     -0.050000
     26 C26        -3.1400   -2.5460   -0.0820 c3        1 I25     -0.199500
     27 C27        -4.6720   -0.6630    0.4810 c3        1 I25     -0.199500
     28 C28        -4.5130   -2.6920    1.9790 c3        1 I25     -0.057000
     29 N29        -5.9340   -2.5770    1.6930 n3        1 I25     -0.282000
     30 C31        -6.3880   -3.7610    0.9560 c3        1 I25     -0.107500
     31 C30        -6.6440   -2.4740    2.8910 c3        1 I25     -0.107500
     32 H13         2.6000   -0.5360   -1.2150 h1        1 I25      0.104000
     33 H14         2.6560    2.0590   -0.4870 hn        1 I25      0.196000
     34 H6          2.3330    3.2360   -2.6680 ha        1 I25      0.125000
     35 H2          4.9530    0.1520   -2.1750 ha        1 I25      0.183000
     36 H4          3.3480    3.7590   -4.7260 ha        1 I25      0.119000
     37 H5          5.9950    0.7040   -4.2090 ha        1 I25      0.117000
     38 H20         6.2930    4.3030   -5.1290 DU        1 I25      0.144000
     39 H191        5.9060    1.1400   -7.1770 hn        1 I25      0.185500
     40 H192        4.8620    2.1850   -7.7860 hn        1 I25      0.185500
     41 H8          0.6990   -1.4600   -0.1410 ha        1 I25      0.142000
     42 H9          2.8360    1.4000    1.8700 ha        1 I25      0.184000
     43 H211        0.6740    1.4490    4.7680 hc        1 I25      0.081500
     44 H212        2.1760    1.7820    4.3080 hc        1 I25      0.081500
     45 H12        -0.6340   -0.0790    3.4800 ha        1 I25      0.121000
     46 H221        1.4740    3.5500    3.0080 hc        1 I25      0.070000
     47 H222        0.7480    3.7400    4.4260 hc        1 I25      0.070000
     48 H223       -0.0580    3.1320    3.1760 hc        1 I25      0.070000
     49 H241       -2.5220   -0.1190    1.6040 h1        1 I25      0.071500
     50 H242       -2.7540   -1.1490    2.8140 h1        1 I25      0.071500
     51 H261       -2.6060   -1.9630   -0.6480 hc        1 I25      0.075000
     52 H262       -2.5660   -3.2670    0.2830 hc        1 I25      0.075000
     53 H263       -3.8600   -2.9400   -0.6090 hc        1 I25      0.075000
     54 H271       -4.8220    0.0280    1.1630 hc        1 I25      0.075000
     55 H272       -4.2630   -0.2560   -0.3140 hc        1 I25      0.075000
     56 H273       -5.5350   -1.0750    0.2320 hc        1 I25      0.075000
     57 H281       -4.3460   -2.4430    2.9140 h1        1 I25      0.086000
     58 H282       -4.2240   -3.6140    1.8310 h1        1 I25      0.086000
     59 H311       -6.0190   -4.5660    1.3710 h1        1 I25      0.065167
     60 H312       -7.3830   -3.8030    0.9790 h1        1 I25      0.065167
     61 H313       -6.0840   -3.7030    0.0220 h1        1 I25      0.065167
     62 H301       -6.2240   -1.7980    3.4640 h1        1 I25      0.065167
     63 H302       -6.6390   -3.3380    3.3490 h1        1 I25      0.065167
     64 H303       -7.5640   -2.2110    2.7000 h1        1 I25      0.065167
@<TRIPOS>BOND
     1    1    2 1   
     2    2    3 1   
     3    2    4 1   
     4    4    5 1   
     5    4   15 1   
     6    4   32 1   
     7    5    6 1   
     8    5   33 1   
     9    6    7 1   
    10    6   14 1   
    11    7    8 1   
    12    7   34 1   
    13    8   36 1   
    14    9   10 1   
    15    9   13 1   
    16   10   11 1   
    17   10   12 1   
    18   12   39 1   
    19   12   40 1   
    20   13   37 1   
    21   14   35 1   
    22   15   16 1   
    23   15   17 1   
    24   16   22 1   
    25   16   41 1   
    26   17   42 1   
    27   18   19 1   
    28   18   21 1   
    29   19   20 1   
    30   19   43 1   
    31   19   44 1   
    32   20   46 1   
    33   20   47 1   
    34   20   48 1   
    35   21   45 1   
    36   22   23 1   
    37   23   24 1   
    38   24   25 1   
    39   24   49 1   
    40   24   50 1   
    41   25   26 1   
    42   25   27 1   
    43   25   28 1   
    44   26   51 1   
    45   26   52 1   
    46   26   53 1   
    47   27   54 1   
    48   27   55 1   
    49   27   56 1   
    50   28   29 1   
    51   28   57 1   
    52   28   58 1   
    53   29   30 1   
    54   29   31 1   
    55   30   59 1   
    56   30   60 1   
    57   30   61 1   
    58   31   62 1   
    59   31   63 1   
    60   31   64 1   
@<TRIPOS>SUBSTRUCTURE
     1 I25         1 TEMP              0 ****  ****    0 ROOT
