@<TRIPOS>MOLECULE
I25
   66    67     1     0     0
SMALL
bcc


@<TRIPOS>ATOM
      1 O17         0.6240   -3.5590   -0.1310 o         1 I25     -0.825800
      2 C15         1.8090   -3.2690    0.1680 c         1 I25      0.908600
      3 O16         2.7840   -4.0720    0.0360 o         1 I25     -0.825800
      4 C13         2.0760   -1.8840    0.8630 c3        1 I25      0.131800
      5 N14         3.2970   -1.3010    0.3600 nu        1 I25     -0.700600
      6 C1          3.5970    0.0190    0.3710 ca        1 I25      0.279600
      7 C6          4.8240    0.4800   -0.2150 ca        1 I25     -0.228000
      8 C4          5.1290    1.8210   -0.2550 ca        1 I25     -0.026500
      9 C3          4.2430    2.7760    0.2760 ca        1 I25     -0.393900
     10 C18         4.5980    4.1920    0.2270 ce        1 I25      0.626800
     11 N20         5.5720    4.8650    0.7070 n2        1 I25     -0.744100
     12 N19         3.5920    4.9770   -0.5930 nz        1 I25     -0.831600
     13 C5          3.0500    2.3450    0.8810 ca        1 I25     -0.026500
     14 C2          2.7280    1.0080    0.9390 ca        1 I25     -0.228000
     15 C11         2.1040   -2.2070    2.3400 ca        1 I25     -0.084300
     16 C8          2.9580   -3.2340    2.7580 ca        1 I25     -0.152000
     17 C9          1.2020   -1.6420    3.2390 ca        1 I25     -0.122000
     18 C10         1.1130   -2.1270    4.5530 ca        1 I25     -0.060300
     19 C21         0.1680   -1.4920    5.5150 c3        1 I25     -0.043100
     20 C22        -1.2730   -1.8080    5.1910 c3        1 I25     -0.092100
     21 C12         1.9000   -3.2110    4.9510 ca        1 I25     -0.146000
     22 C7          2.8100   -3.7640    4.0400 ca        1 I25      0.067100
     23 O23         3.6440   -4.8170    4.4120 os        1 I25     -0.331900
     24 C24         2.9900   -6.0880    4.4660 c3        1 I25      0.125400
     25 C25         3.3680   -7.0040    3.2880 c3        1 I25     -0.087000
     26 C26         4.5450   -6.4680    2.4940 c3        1 I25     -0.099100
     27 C27         3.7730   -8.3600    3.8790 c3        1 I25     -0.099100
     28 C28         2.1700   -7.3120    2.3660 c3        1 I25      0.102800
     29 N29         1.6300   -6.1870    1.5430 nx        1 I25     -0.674400
     30 C31         1.4530   -6.6000    0.1210 c3        1 I25      0.079600
     31 C30         0.3370   -5.6950    2.0820 c3        1 I25      0.079600
     32 H13         1.2080   -1.2010    0.6340 h1        1 I25      0.081700
     33 H14         3.9560   -1.9540   -0.0170 hn        1 I25      0.469800
     34 H6          5.5300   -0.2510   -0.6400 ha        1 I25      0.157000
     35 H2          1.8010    0.6920    1.4430 ha        1 I25      0.157000
     36 H4          6.0780    2.1480   -0.7110 ha        1 I25      0.129000
     37 H5          2.3700    3.0780    1.3450 ha        1 I25      0.129000
     38 H20         6.2400    4.3770    1.2680 hn        1 I25      0.481400
     39 H191        3.6500    4.6450   -1.5600 hn        1 I25      0.462467
     40 H192        3.7620    5.9870   -0.5640 hn        1 I25      0.462467
     41 H8          3.7170   -3.6320    2.0640 ha        1 I25      0.174000
     42 H9          0.5360   -0.8260    2.9180 ha        1 I25      0.137000
     43 H211        0.3980   -1.8350    6.5600 hc        1 I25      0.053700
     44 H212        0.3190   -0.3790    5.4920 hc        1 I25      0.053700
     45 H12         1.8190   -3.6250    5.9670 ha        1 I25      0.149000
     46 H221       -1.9490   -1.2820    5.9090 hc        1 I25      0.039700
     47 H222       -1.4650   -2.9050    5.2660 hc        1 I25      0.039700
     48 H223       -1.5270   -1.4760    4.1550 hc        1 I25      0.039700
     49 H241        3.3790   -6.5330    5.4260 h1        1 I25      0.059700
     50 H242        1.8790   -5.9740    4.5470 h1        1 I25      0.059700
     51 H261        4.3040   -5.5060    1.9820 hc        1 I25      0.055367
     52 H262        5.4010   -6.2760    3.1860 hc        1 I25      0.055367
     53 H263        4.8620   -7.2130    1.7240 hc        1 I25      0.055367
     54 H271        4.0340   -9.0800    3.0670 hc        1 I25      0.055367
     55 H272        4.6690   -8.2310    4.5330 hc        1 I25      0.055367
     56 H273        2.9410   -8.7880    4.4880 hc        1 I25      0.055367
     57 H281        1.3310   -7.7240    2.9960 hx        1 I25      0.087700
     58 H282        2.5000   -8.1270    1.6560 hx        1 I25      0.087700
     59 H311        0.7260   -7.4480    0.0630 hx        1 I25      0.103533
     60 H312        1.0770   -5.7020   -0.4590 hx        1 I25      0.103533
     61 H313        2.4500   -6.8970   -0.2970 hx        1 I25      0.103533
     62 H301       -0.0340   -4.8570    1.4180 hx        1 I25      0.103533
     63 H302       -0.4130   -6.5270    2.0890 hx        1 I25      0.103533
     64 H303        0.4920   -5.3080    3.1220 hx        1 I25      0.103533
     65 H193        2.6580    4.7700   -0.2250 hn        1 I25      0.462467
     66 H291        2.3050   -5.3870    1.5320 hn        1 I25      0.496800
@<TRIPOS>BOND
     1    1    2 1   
     2    2    3 1   
     3    2    4 1   
     4    4    5 1   
     5    4   15 1   
     6    4   32 1   
     7    5    6 1   
     8    5   33 1   
     9    6    7 ar  
    10    6   14 ar  
    11    7    8 ar  
    12    7   34 1   
    13    8    9 ar  
    14    8   36 1   
    15    9   10 1   
    16    9   13 ar  
    17   10   11 2   
    18   10   12 1   
    19   11   38 1   
    20   12   39 1   
    21   12   40 1   
    22   12   65 1   
    23   13   14 ar  
    24   13   37 1   
    25   14   35 1   
    26   15   16 ar  
    27   15   17 ar  
    28   16   22 ar  
    29   16   41 1   
    30   17   18 ar  
    31   17   42 1   
    32   18   19 1   
    33   18   21 ar  
    34   19   20 1   
    35   19   43 1   
    36   19   44 1   
    37   20   46 1   
    38   20   47 1   
    39   20   48 1   
    40   21   22 ar  
    41   21   45 1   
    42   22   23 1   
    43   23   24 1   
    44   24   25 1   
    45   24   49 1   
    46   24   50 1   
    47   25   26 1   
    48   25   27 1   
    49   25   28 1   
    50   26   51 1   
    51   26   52 1   
    52   26   53 1   
    53   27   54 1   
    54   27   55 1   
    55   27   56 1   
    56   28   29 1   
    57   28   57 1   
    58   28   58 1   
    59   29   30 1   
    60   29   31 1   
    61   29   66 1   
    62   30   59 1   
    63   30   60 1   
    64   30   61 1   
    65   31   62 1   
    66   31   63 1   
    67   31   64 1   
@<TRIPOS>SUBSTRUCTURE
     1 I25         1 TEMP              0 ****  ****    0 ROOT
