@<TRIPOS>MOLECULE
I25
   64    65     1     0     0
SMALL
bcc


@<TRIPOS>ATOM
      1 O17         1.0000    1.2410   -3.8840 o         1 I25     -0.812300
      2 C15         1.0760    0.1980   -3.1920 c         1 I25      0.922600
      3 O16         0.8410   -0.9800   -3.5740 o         1 I25     -0.812300
      4 C13         1.5490    0.3990   -1.6870 c3        1 I25      0.095800
      5 N14         2.3460   -0.7270   -1.2500 nh        1 I25     -0.723600
      6 C1          3.4830   -0.6070   -0.4960 ca        1 I25      0.238600
      7 C6          4.4050   -1.6930   -0.4130 ca        1 I25     -0.241000
      8 C4          5.5400   -1.6050    0.3730 ca        1 I25     -0.047500
      9 C3          5.8260   -0.4390    1.0950 ca        1 I25     -0.257900
     10 C18         7.0790   -0.3440    1.8950 ce        1 I25      0.670800
     11 N20         7.4440   -1.3400    2.6480 n2        1 I25     -0.845100
     12 N19         7.7490    0.9050    1.7840 nh        1 I25     -0.956800
     13 C5          4.9190    0.6260    1.0490 ca        1 I25     -0.047500
     14 C2          3.7730    0.5550    0.2750 ca        1 I25     -0.241000
     15 C11         0.3320    0.6030   -0.8210 ca        1 I25     -0.013300
     16 C8         -0.6710   -0.3680   -0.7920 ca        1 I25     -0.121000
     17 C9          0.1930    1.7740   -0.0660 ca        1 I25     -0.150000
     18 C10        -0.9400    1.9810    0.7240 ca        1 I25     -0.069300
     19 C21        -1.0730    3.2340    1.5190 c3        1 I25     -0.029100
     20 C22        -1.4010    4.4220    0.6470 c3        1 I25     -0.089100
     21 C12        -1.9420    1.0060    0.7770 ca        1 I25     -0.208000
     22 C7         -1.8000   -0.1590    0.0160 ca        1 I25      0.107100
     23 O23        -2.7140   -1.2020    0.0330 os        1 I25     -0.338900
     24 C24        -4.0370   -0.8470    0.4490 c3        1 I25      0.144400
     25 C25        -4.9730   -1.9780    0.0080 c3        1 I25     -0.051000
     26 C26        -5.1000   -1.9800   -1.5040 c3        1 I25     -0.086600
     27 C27        -4.4210   -3.3180    0.4740 c3        1 I25     -0.086600
     28 C28        -6.3510   -1.7870    0.6850 c3        1 I25      0.182800
     29 N29        -6.9930   -0.5160    0.3910 n3        1 I25     -0.755600
     30 C31        -8.0810   -0.6140   -0.5500 c3        1 I25      0.169600
     31 C30        -7.3080    0.2670    1.5590 c3        1 I25      0.169600
     32 H13         2.1730    1.3390   -1.6720 h1        1 I25      0.057700
     33 H14         2.2490   -1.5370   -1.8310 hn        1 I25      0.449800
     34 H6          4.2110   -2.6150   -0.9790 ha        1 I25      0.134500
     35 H2          3.0690    1.4000    0.2710 ha        1 I25      0.134500
     36 H4          6.2290   -2.4620    0.4270 ha        1 I25      0.125500
     37 H5          5.1030    1.5340    1.6440 ha        1 I25      0.125500
     38 H20         8.3050   -1.2230    3.1390 hn        1 I25      0.361400
     39 H191        7.4730    1.4490    0.9990 hn        1 I25      0.385300
     40 H192        8.7330    0.8830    1.9210 hn        1 I25      0.385300
     41 H8         -0.5810   -1.2710   -1.4180 ha        1 I25      0.177000
     42 H9          0.9770    2.5450   -0.1060 ha        1 I25      0.126000
     43 H211       -1.8730    3.1110    2.2980 hc        1 I25      0.034200
     44 H212       -0.1100    3.4270    2.0640 hc        1 I25      0.034200
     45 H12        -2.8270    1.1640    1.4070 ha        1 I25      0.120000
     46 H221       -0.6160    4.5570   -0.1370 hc        1 I25      0.032367
     47 H222       -2.3820    4.2770    0.1360 hc        1 I25      0.032367
     48 H223       -1.4540    5.3510    1.2640 hc        1 I25      0.032367
     49 H241       -4.0470   -0.7500    1.5680 h1        1 I25      0.038700
     50 H242       -4.3440    0.1240   -0.0190 h1        1 I25      0.038700
     51 H261       -4.0980   -2.1740   -1.9610 hc        1 I25      0.039867
     52 H262       -5.8110   -2.7760   -1.8330 hc        1 I25      0.039867
     53 H263       -5.4680   -0.9930   -1.8720 hc        1 I25      0.039867
     54 H271       -4.3080   -3.3300    1.5840 hc        1 I25      0.039867
     55 H272       -5.1040   -4.1480    0.1710 hc        1 I25      0.039867
     56 H273       -3.4170   -3.4890    0.0150 hc        1 I25      0.039867
     57 H281       -7.0030   -2.6500    0.3600 h1        1 I25      0.029700
     58 H282       -6.1950   -1.8930    1.7980 h1        1 I25      0.029700
     59 H311       -8.9780   -1.1560   -0.1390 h1        1 I25      0.026700
     60 H312       -8.3980    0.4200   -0.8470 h1        1 I25      0.026700
     61 H313       -7.7230   -1.1590   -1.4640 h1        1 I25      0.026700
     62 H301       -6.3690    0.4220    2.1540 h1        1 I25      0.026700
     63 H302       -7.6960    1.2680    1.2330 h1        1 I25      0.026700
     64 H303       -8.0790   -0.2110    2.2240 h1        1 I25      0.026700
@<TRIPOS>BOND
     1    1    2 1   
     2    2    3 1   
     3    2    4 1   
     4    4    5 1   
     5    4   15 1   
     6    4   32 1   
     7    5    6 1   
     8    5   33 1   
     9    6    7 ar  
    10    6   14 ar  
    11    7    8 ar  
    12    7   34 1   
    13    8    9 ar  
    14    8   36 1   
    15    9   10 1   
    16    9   13 ar  
    17   10   11 2   
    18   10   12 1   
    19   11   38 1   
    20   12   39 1   
    21   12   40 1   
    22   13   14 ar  
    23   13   37 1   
    24   14   35 1   
    25   15   16 ar  
    26   15   17 ar  
    27   16   22 ar  
    28   16   41 1   
    29   17   18 ar  
    30   17   42 1   
    31   18   19 1   
    32   18   21 ar  
    33   19   20 1   
    34   19   43 1   
    35   19   44 1   
    36   20   46 1   
    37   20   47 1   
    38   20   48 1   
    39   21   22 ar  
    40   21   45 1   
    41   22   23 1   
    42   23   24 1   
    43   24   25 1   
    44   24   49 1   
    45   24   50 1   
    46   25   26 1   
    47   25   27 1   
    48   25   28 1   
    49   26   51 1   
    50   26   52 1   
    51   26   53 1   
    52   27   54 1   
    53   27   55 1   
    54   27   56 1   
    55   28   29 1   
    56   28   57 1   
    57   28   58 1   
    58   29   30 1   
    59   29   31 1   
    60   30   59 1   
    61   30   60 1   
    62   30   61 1   
    63   31   62 1   
    64   31   63 1   
    65   31   64 1   
@<TRIPOS>SUBSTRUCTURE
     1 I25         1 TEMP              0 ****  ****    0 ROOT
