@<TRIPOS>MOLECULE
I25
   67    68     1     0     0
SMALL
bcc


@<TRIPOS>ATOM
      1 O17         1.4940   -3.2320    0.7240 o         1 I25     -0.803300
      2 C15         2.5580   -2.5790    0.8450 c         1 I25      0.923600
      3 O16         3.5880   -2.7260    0.1310 o         1 I25     -0.803300
      4 C13         2.6280   -1.5200    2.0090 c3        1 I25      0.049800
      5 N14         3.9250   -0.7330    1.9000 n4        1 I25     -0.645400
      6 C1          3.8170    0.4380    1.0320 ca        1 I25      0.027600
      7 C6          3.6760    1.7230    1.5850 ca        1 I25     -0.092500
      8 C4          3.6100    2.8310    0.7420 ca        1 I25     -0.082000
      9 C3          3.6820    2.6610   -0.6450 ca        1 I25     -0.225900
     10 C18         3.6950    3.8540   -1.5240 ce        1 I25      0.572800
     11 N20         4.5890    4.7420   -1.7200 n2        1 I25     -0.678100
     12 N19         2.4160    4.0070   -2.3040 n4        1 I25     -0.821600
     13 C5          3.8090    1.3810   -1.1960 ca        1 I25     -0.082000
     14 C2          3.8760    0.2650   -0.3650 ca        1 I25     -0.092500
     15 C11         2.5530   -2.1820    3.3490 ca        1 I25     -0.125300
     16 C8          2.6670   -3.5700    3.4300 ca        1 I25     -0.140000
     17 C9          2.3050   -1.4380    4.5080 ca        1 I25     -0.141000
     18 C10         2.1590   -2.0790    5.7450 ca        1 I25     -0.036300
     19 C21         1.9240   -1.2840    6.9830 c3        1 I25     -0.049100
     20 C22         0.5130   -1.4410    7.4990 c3        1 I25     -0.095100
     21 C12         2.2140   -3.4770    5.8190 ca        1 I25     -0.094000
     22 C7          2.4470   -4.2140    4.6520 ca        1 I25      0.105100
     23 O23         2.5160   -5.5980    4.7440 os        1 I25     -0.320900
     24 C24         1.6000   -6.2850    3.8760 c3        1 I25      0.120400
     25 C25         2.3450   -7.2370    2.9220 c3        1 I25     -0.083000
     26 C26         3.8070   -6.8720    2.7590 c3        1 I25     -0.101600
     27 C27         2.2750   -8.6510    3.5060 c3        1 I25     -0.101600
     28 C28         1.6180   -7.3120    1.5620 c3        1 I25      0.097800
     29 N29         1.6050   -6.0570    0.7460 n4        1 I25     -0.674400
     30 C31         2.7240   -5.9970   -0.2320 c3        1 I25      0.084600
     31 C30         0.3070   -5.8880    0.0380 c3        1 I25      0.084600
     32 H13         1.7700   -0.7990    1.8860 hx        1 I25      0.111700
     33 H14         4.2380   -0.4530    2.8360 hn        1 I25      0.472300
     34 H6          3.6230    1.8770    2.6780 ha        1 I25      0.202000
     35 H2          3.9700   -0.7550   -0.8020 ha        1 I25      0.202000
     36 H4          3.5120    3.8370    1.1840 ha        1 I25      0.170500
     37 H5          3.8830    1.2370   -2.2870 ha        1 I25      0.170500
     38 H20         5.4610    4.6860   -1.2330 hn        1 I25      0.500400
     39 H191        1.6490    4.1810   -1.6450 hn        1 I25      0.477133
     40 H192        2.2380    3.1340   -2.8110 hn        1 I25      0.477133
     41 H8          2.9180   -4.1630    2.5400 ha        1 I25      0.140000
     42 H9          2.1960   -0.3440    4.4510 ha        1 I25      0.128000
     43 H211        2.6490   -1.6220    7.7740 hc        1 I25      0.060200
     44 H212        2.1300   -0.1980    6.7880 hc        1 I25      0.060200
     45 H12         2.0750   -3.9950    6.7820 ha        1 I25      0.176000
     46 H221        0.3880   -0.8540    8.4420 hc        1 I25      0.048367
     47 H222        0.2900   -2.5140    7.7180 hc        1 I25      0.048367
     48 H223       -0.2290   -1.0720    6.7510 hc        1 I25      0.048367
     49 H241        0.9470   -6.8800    4.5750 h1        1 I25      0.063200
     50 H242        0.9520   -5.5580    3.3210 h1        1 I25      0.063200
     51 H261        3.9370   -5.8370    2.3650 hc        1 I25      0.059200
     52 H262        4.3130   -7.5920    2.0700 hc        1 I25      0.059200
     53 H263        4.3150   -6.9220    3.7550 hc        1 I25      0.059200
     54 H271        2.8410   -9.3680    2.8650 hc        1 I25      0.059200
     55 H272        1.2170   -8.9970    3.5870 hc        1 I25      0.059200
     56 H273        2.7300   -8.6500    4.5270 hc        1 I25      0.059200
     57 H281        2.1000   -8.1220    0.9420 hx        1 I25      0.101200
     58 H282        0.5470   -7.6090    1.7590 hx        1 I25      0.101200
     59 H311        2.4960   -6.6520   -1.1130 hx        1 I25      0.104700
     60 H312        3.6720   -6.3450    0.2570 hx        1 I25      0.104700
     61 H313        2.8450   -4.9220   -0.5620 hx        1 I25      0.104700
     62 H301        0.1550   -6.7320   -0.6830 hx        1 I25      0.104700
     63 H302       -0.5260   -5.8710    0.7890 hx        1 I25      0.104700
     64 H303        0.3300   -4.9020   -0.5060 hx        1 I25      0.104700
     65 H142        4.6170   -1.3870    1.4760 hn        1 I25      0.472300
     66 H193        2.4690    4.7880   -2.9750 hn        1 I25      0.477133
     67 H291        1.7070   -5.2370    1.3740 hn        1 I25      0.472800
@<TRIPOS>BOND
     1    1    2 1   
     2    2    3 1   
     3    2    4 1   
     4    4    5 1   
     5    4   15 1   
     6    4   32 1   
     7    5    6 1   
     8    5   33 1   
     9    5   65 1   
    10    6    7 ar  
    11    6   14 ar  
    12    7    8 ar  
    13    7   34 1   
    14    8    9 ar  
    15    8   36 1   
    16    9   10 1   
    17    9   13 ar  
    18   10   11 2   
    19   10   12 1   
    20   11   38 1   
    21   12   39 1   
    22   12   40 1   
    23   12   66 1   
    24   13   14 ar  
    25   13   37 1   
    26   14   35 1   
    27   15   16 ar  
    28   15   17 ar  
    29   16   22 ar  
    30   16   41 1   
    31   17   18 ar  
    32   17   42 1   
    33   18   19 1   
    34   18   21 ar  
    35   19   20 1   
    36   19   43 1   
    37   19   44 1   
    38   20   46 1   
    39   20   47 1   
    40   20   48 1   
    41   21   22 ar  
    42   21   45 1   
    43   22   23 1   
    44   23   24 1   
    45   24   25 1   
    46   24   49 1   
    47   24   50 1   
    48   25   26 1   
    49   25   27 1   
    50   25   28 1   
    51   26   51 1   
    52   26   52 1   
    53   26   53 1   
    54   27   54 1   
    55   27   55 1   
    56   27   56 1   
    57   28   29 1   
    58   28   57 1   
    59   28   58 1   
    60   29   30 1   
    61   29   31 1   
    62   29   67 1   
    63   30   59 1   
    64   30   60 1   
    65   30   61 1   
    66   31   62 1   
    67   31   63 1   
    68   31   64 1   
@<TRIPOS>SUBSTRUCTURE
     1 I25         1 TEMP              0 ****  ****    0 ROOT
