@<TRIPOS>MOLECULE
I26
   66    67     1     0     0
SMALL
bcc


@<TRIPOS>ATOM
      1 O17         3.5340   -1.0450    1.3900 o         1 I26     -0.831300
      2 C15         4.0850   -0.0180    1.8430 c         1 I26      0.923600
      3 O16         5.2740    0.3380    1.5890 o         1 I26     -0.831300
      4 C13         3.2860    0.9080    2.8500 c3        1 I26      0.097800
      5 N14         1.8870    0.5610    3.0090 nu        1 I26     -0.682600
      6 C1          1.5160   -0.6830    3.4660 ca        1 I26      0.275600
      7 C6          0.1720   -1.1320    3.2760 ca        1 I26     -0.193000
      8 C4         -0.2450   -2.3530    3.7630 ca        1 I26     -0.041000
      9 C3          0.6480   -3.1850    4.4550 ca        1 I26     -0.374900
     10 C18         0.2180   -4.5120    4.8960 ce        1 I26      0.626800
     11 N20         0.9710   -5.5860    4.1330 nz        1 I26     -0.833600
     12 N19        -0.6430   -4.9210    5.7450 n2        1 I26     -0.744100
     13 C5          1.9620   -2.7460    4.6910 ca        1 I26     -0.041000
     14 C2          2.3920   -1.5250    4.2180 ca        1 I26     -0.193000
     15 C11         3.5230    2.3340    2.4340 ca        1 I26     -0.049300
     16 C8          4.8400    2.8200    2.6110 ca        1 I26      0.112900
     17 C9          2.5930    3.1540    1.7950 ca        1 I26     -0.125000
     18 C10         2.9510    4.4130    1.2970 ca        1 I26     -0.052300
     19 C21         1.9180    5.2770    0.6590 c3        1 I26     -0.042100
     20 C22         0.9700    5.8670    1.6770 c3        1 I26     -0.092100
     21 C12         4.2780    4.8460    1.3710 ca        1 I26     -0.158000
     22 C7          5.2280    4.0330    1.9900 ca        1 I26      0.046100
     23 O23         6.5790    4.3280    2.1250 os        1 I26     -0.340900
     24 C24         7.2040    5.0330    1.0590 c3        1 I26      0.126400
     25 C25         7.6720    4.1230   -0.0900 c3        1 I26     -0.097000
     26 C26         6.5120    3.7760   -1.0030 c3        1 I26     -0.105600
     27 C27         8.6990    4.9230   -0.8930 c3        1 I26     -0.105600
     28 C28         8.4140    2.8870    0.4520 c3        1 I26      0.114800
     29 N29         7.5720    1.7240    0.8670 nx        1 I26     -0.658400
     30 C31         7.4540    0.7140   -0.2190 c3        1 I26      0.086100
     31 C30         8.1200    1.0760    2.0890 c3        1 I26      0.086100
     32 F20         5.7540    2.1390    3.3410 f         1 I26     -0.130900
     33 H13         3.7840    0.7620    3.8580 h1        1 I26      0.083700
     34 H14         1.2910    0.9280    2.2950 hn        1 I26      0.419800
     35 H6         -0.5410   -0.5030    2.7190 ha        1 I26      0.156500
     36 H2          3.4380   -1.2200    4.3810 ha        1 I26      0.156500
     37 H4         -1.2840   -2.6800    3.5940 ha        1 I26      0.128500
     38 H5          2.6590   -3.3740    5.2680 ha        1 I26      0.128500
     39 H19        -1.1380   -4.2300    6.2710 hn        1 I26      0.480400
     40 H201        1.9720   -5.3810    4.2140 hn        1 I26      0.463133
     41 H202        0.6990   -5.5150    3.1470 hn        1 I26      0.463133
     42 H9          1.5490    2.8340    1.6600 ha        1 I26      0.139000
     43 H211        2.4120    6.1080    0.0870 hc        1 I26      0.051700
     44 H212        1.3360    4.6660   -0.0830 hc        1 I26      0.051700
     45 H12         4.5620    5.8190    0.9450 ha        1 I26      0.147000
     46 H221        0.1950    6.4850    1.1620 hc        1 I26      0.042033
     47 H222        0.4560    5.0580    2.2510 hc        1 I26      0.042033
     48 H223        1.5190    6.5160    2.4000 hc        1 I26      0.042033
     49 H241        6.5480    5.8430    0.6510 h1        1 I26      0.073700
     50 H242        8.0980    5.4960    1.5660 h1        1 I26      0.073700
     51 H261        6.0990    4.7140   -1.4530 hc        1 I26      0.055033
     52 H262        6.8500    3.1190   -1.8400 hc        1 I26      0.055033
     53 H263        5.6830    3.2760   -0.4450 hc        1 I26      0.055033
     54 H271        8.9970    4.3620   -1.8120 hc        1 I26      0.055033
     55 H272        9.6110    5.1230   -0.2810 hc        1 I26      0.055033
     56 H273        8.2570    5.9000   -1.2040 hc        1 I26      0.055033
     57 H281        9.0100    3.2230    1.3500 hx        1 I26      0.090200
     58 H282        9.1350    2.5190   -0.3330 hx        1 I26      0.090200
     59 H311        8.4570    0.2620   -0.4240 hx        1 I26      0.102200
     60 H312        7.0580    1.2080   -1.1430 hx        1 I26      0.102200
     61 H313        6.7220   -0.0830    0.1130 hx        1 I26      0.102200
     62 H301        8.1730    1.8350    2.9140 hx        1 I26      0.102200
     63 H302        9.1350    0.6570    1.8730 hx        1 I26      0.102200
     64 H303        7.4020    0.2600    2.3940 hx        1 I26      0.102200
     65 H203        0.7760   -6.5300    4.4790 hn        1 I26      0.463133
     66 H291        6.6090    2.0390    1.1050 hn        1 I26      0.494800
@<TRIPOS>BOND
     1    1    2 1   
     2    2    3 1   
     3    2    4 1   
     4    4    5 1   
     5    4   15 1   
     6    4   33 1   
     7    5    6 1   
     8    5   34 1   
     9    6    7 ar  
    10    6   14 ar  
    11    7    8 ar  
    12    7   35 1   
    13    8    9 ar  
    14    8   37 1   
    15    9   10 1   
    16    9   13 ar  
    17   10   11 1   
    18   10   12 2   
    19   11   40 1   
    20   11   41 1   
    21   11   65 1   
    22   12   39 1   
    23   13   14 ar  
    24   13   38 1   
    25   14   36 1   
    26   15   16 ar  
    27   15   17 ar  
    28   16   22 ar  
    29   16   32 1   
    30   17   18 ar  
    31   17   42 1   
    32   18   19 1   
    33   18   21 ar  
    34   19   20 1   
    35   19   43 1   
    36   19   44 1   
    37   20   46 1   
    38   20   47 1   
    39   20   48 1   
    40   21   22 ar  
    41   21   45 1   
    42   22   23 1   
    43   23   24 1   
    44   24   25 1   
    45   24   49 1   
    46   24   50 1   
    47   25   26 1   
    48   25   27 1   
    49   25   28 1   
    50   26   51 1   
    51   26   52 1   
    52   26   53 1   
    53   27   54 1   
    54   27   55 1   
    55   27   56 1   
    56   28   29 1   
    57   28   57 1   
    58   28   58 1   
    59   29   30 1   
    60   29   31 1   
    61   29   66 1   
    62   30   59 1   
    63   30   60 1   
    64   30   61 1   
    65   31   62 1   
    66   31   63 1   
    67   31   64 1   
@<TRIPOS>SUBSTRUCTURE
     1 I26         1 TEMP              0 ****  ****    0 ROOT
