@<TRIPOS>MOLECULE
I26
   64    65     1     0     0
SMALL
bcc


@<TRIPOS>ATOM
      1 O17        -1.8400    1.9850   -3.6570 o         1 I26     -0.812800
      2 C15        -1.3860    0.8770   -3.2620 c         1 I26      0.917600
      3 O16        -0.8940   -0.0280   -3.9760 o         1 I26     -0.812800
      4 C13        -1.4550    0.5780   -1.7020 c3        1 I26      0.087800
      5 N14        -2.6520    1.1530   -1.1170 nh        1 I26     -0.716600
      6 C1         -3.5410    0.4100   -0.3700 ca        1 I26      0.220600
      7 C6         -4.8990    0.8250   -0.2590 ca        1 I26     -0.228000
      8 C4         -5.7920    0.1350    0.5440 ca        1 I26     -0.054500
      9 C3         -5.3880   -1.0010    1.2540 ca        1 I26     -0.244900
     10 C18        -6.3740   -1.7620    2.0720 ce        1 I26      0.670800
     11 N20        -6.2690   -3.1730    1.9510 nh        1 I26     -0.957800
     12 N19        -7.2000   -1.1210    2.8470 n2        1 I26     -0.845100
     13 C5         -4.0510   -1.4100    1.1760 ca        1 I26     -0.054500
     14 C2         -3.1410   -0.7280    0.3840 ca        1 I26     -0.228000
     15 C11        -0.2100    1.1380   -1.0620 ca        1 I26     -0.047300
     16 C8          0.6160    0.3460   -0.2390 ca        1 I26      0.108900
     17 C9          0.1550    2.4630   -1.3210 ca        1 I26     -0.094000
     18 C10         1.3140    3.0190   -0.7750 ca        1 I26     -0.088300
     19 C21         1.6850    4.4300   -1.0710 c3        1 I26     -0.031100
     20 C22         1.4820    5.3330    0.1230 c3        1 I26     -0.088100
     21 C12         2.1380    2.2380    0.0420 ca        1 I26     -0.164000
     22 C7          1.7960    0.9110    0.3050 ca        1 I26      0.053100
     23 O23         2.5390    0.1240    1.1730 os        1 I26     -0.337900
     24 C24         3.9420    0.0740    0.8700 c3        1 I26      0.141400
     25 C25         4.3860   -1.3920    0.7990 c3        1 I26     -0.061000
     26 C26         4.1720   -2.0590    2.1450 c3        1 I26     -0.088600
     27 C27         3.5810   -2.1250   -0.2650 c3        1 I26     -0.088600
     28 C28         5.8710   -1.4510    0.3740 c3        1 I26      0.179800
     29 N29         6.7840   -0.7640    1.2770 n3        1 I26     -0.755600
     30 C31         7.5550   -1.6520    2.1110 c3        1 I26      0.168100
     31 C30         7.5770    0.2570    0.6380 c3        1 I26      0.168100
     32 F20         0.3030   -0.9420    0.0430 f         1 I26     -0.140900
     33 H13        -1.4560   -0.5440   -1.5860 h1        1 I26      0.070700
     34 H14        -3.0540    1.8620   -1.7040 hn        1 I26      0.437800
     35 H6         -5.2470    1.7050   -0.8190 ha        1 I26      0.140000
     36 H2         -2.0930   -1.0650    0.3540 ha        1 I26      0.140000
     37 H4         -6.8340    0.4850    0.6180 ha        1 I26      0.127000
     38 H5         -3.7020   -2.2770    1.7590 ha        1 I26      0.127000
     39 H19        -7.8510   -1.6850    3.3520 hn        1 I26      0.362400
     40 H201       -5.7560   -3.4800    1.1560 hn        1 I26      0.386800
     41 H202       -7.1060   -3.6870    2.1050 hn        1 I26      0.386800
     42 H9         -0.4910    3.0500   -2.0010 ha        1 I26      0.180000
     43 H211        2.7630    4.4690   -1.3880 hc        1 I26      0.044200
     44 H212        1.0730    4.8090   -1.9330 hc        1 I26      0.044200
     45 H12         3.0530    2.6600    0.4790 ha        1 I26      0.126000
     46 H221        1.7930    6.3760   -0.1260 hc        1 I26      0.029700
     47 H222        0.4080    5.3450    0.4270 hc        1 I26      0.029700
     48 H223        2.0890    4.9770    0.9910 hc        1 I26      0.029700
     49 H241        4.1740    0.5930   -0.0950 h1        1 I26      0.046700
     50 H242        4.4560    0.6000    1.7180 h1        1 I26      0.046700
     51 H261        3.0800   -2.0610    2.3870 hc        1 I26      0.040533
     52 H262        4.5410   -3.1120    2.1210 hc        1 I26      0.040533
     53 H263        4.7100   -1.5060    2.9510 hc        1 I26      0.040533
     54 H271        3.7810   -1.6970   -1.2760 hc        1 I26      0.040533
     55 H272        3.8450   -3.2090   -0.2750 hc        1 I26      0.040533
     56 H273        2.4880   -2.0190   -0.0480 hc        1 I26      0.040533
     57 H281        6.1460   -2.5430    0.2810 h1        1 I26      0.033700
     58 H282        5.9420   -1.0050   -0.6600 h1        1 I26      0.033700
     59 H311        8.3090   -2.2600    1.5390 h1        1 I26      0.026367
     60 H312        8.1020   -1.0450    2.8800 h1        1 I26      0.026367
     61 H313        6.8550   -2.3550    2.6360 h1        1 I26      0.026367
     62 H301        6.8880    0.9860    0.1330 h1        1 I26      0.026367
     63 H302        8.1670    0.8030    1.4210 h1        1 I26      0.026367
     64 H303        8.2950   -0.1470   -0.1280 h1        1 I26      0.026367
@<TRIPOS>BOND
     1    1    2 1   
     2    2    3 1   
     3    2    4 1   
     4    4    5 1   
     5    4   15 1   
     6    4   33 1   
     7    5    6 1   
     8    5   34 1   
     9    6    7 ar  
    10    6   14 ar  
    11    7    8 ar  
    12    7   35 1   
    13    8    9 ar  
    14    8   37 1   
    15    9   10 1   
    16    9   13 ar  
    17   10   11 1   
    18   10   12 2   
    19   11   40 1   
    20   11   41 1   
    21   12   39 1   
    22   13   14 ar  
    23   13   38 1   
    24   14   36 1   
    25   15   16 ar  
    26   15   17 ar  
    27   16   22 ar  
    28   16   32 1   
    29   17   18 ar  
    30   17   42 1   
    31   18   19 1   
    32   18   21 ar  
    33   19   20 1   
    34   19   43 1   
    35   19   44 1   
    36   20   46 1   
    37   20   47 1   
    38   20   48 1   
    39   21   22 ar  
    40   21   45 1   
    41   22   23 1   
    42   23   24 1   
    43   24   25 1   
    44   24   49 1   
    45   24   50 1   
    46   25   26 1   
    47   25   27 1   
    48   25   28 1   
    49   26   51 1   
    50   26   52 1   
    51   26   53 1   
    52   27   54 1   
    53   27   55 1   
    54   27   56 1   
    55   28   29 1   
    56   28   57 1   
    57   28   58 1   
    58   29   30 1   
    59   29   31 1   
    60   30   59 1   
    61   30   60 1   
    62   30   61 1   
    63   31   62 1   
    64   31   63 1   
    65   31   64 1   
@<TRIPOS>SUBSTRUCTURE
     1 I26         1 TEMP              0 ****  ****    0 ROOT
