@<TRIPOS>MOLECULE
I26
   67    68     1     0     0
SMALL
bcc


@<TRIPOS>ATOM
      1 O17         0.3280    0.4520    0.9210 o         1 I26     -0.758800
      2 C15         1.4820   -0.0440    0.9270 c         1 I26      0.939600
      3 O16         2.0410   -0.8080    0.1250 o         1 I26     -0.758800
      4 C13         2.3450    0.2900    2.2490 c3        1 I26     -0.004200
      5 N14         1.4260    0.1270    3.4460 n4        1 I26     -0.628400
      6 C1          0.8580   -1.2230    3.4670 ca        1 I26      0.036600
      7 C6          1.5890   -2.2920    4.0140 ca        1 I26     -0.078000
      8 C4          1.1010   -3.5920    3.8850 ca        1 I26     -0.083500
      9 C3         -0.1070   -3.8200    3.2190 ca        1 I26     -0.225900
     10 C18        -0.5770   -5.2080    3.0020 ce        1 I26      0.578800
     11 N20        -0.5120   -5.5820    1.5430 n4        1 I26     -0.822600
     12 N19        -1.0070   -6.0990    3.8060 n2        1 I26     -0.689100
     13 C5         -0.8690   -2.7510    2.7380 ca        1 I26     -0.083500
     14 C2         -0.3910   -1.4470    2.8560 ca        1 I26     -0.078000
     15 C11         2.8900    1.6750    2.1970 ca        1 I26     -0.147300
     16 C8          4.2550    1.9200    2.4620 ca        1 I26      0.125900
     17 C9          2.0660    2.7350    1.8060 ca        1 I26     -0.086000
     18 C10         2.5600    4.0400    1.6990 ca        1 I26     -0.052300
     19 C21         1.6630    5.1550    1.2840 c3        1 I26     -0.050100
     20 C22         1.3920    6.1190    2.4130 c3        1 I26     -0.093100
     21 C12         3.9090    4.2880    1.9680 ca        1 I26     -0.116000
     22 C7          4.7530    3.2370    2.3330 ca        1 I26      0.046100
     23 O23         6.0770    3.4550    2.6980 os        1 I26     -0.316900
     24 C24         6.8930    4.0710    1.7020 c3        1 I26      0.129400
     25 C25         7.8010    3.0280    1.0260 c3        1 I26     -0.096000
     26 C26         8.3920    2.0910    2.0620 c3        1 I26     -0.104600
     27 C27         6.9810    2.2170    0.0270 c3        1 I26     -0.104600
     28 C28         8.8870    3.7510    0.2050 c3        1 I26      0.102800
     29 N29         9.9580    4.4210    1.0210 n4        1 I26     -0.679400
     30 C31        11.2010    3.6050    1.0660 c3        1 I26      0.081100
     31 C30        10.2550    5.7840    0.5050 c3        1 I26      0.081100
     32 F20         5.0840    0.9180    2.8370 f         1 I26     -0.132900
     33 H13         3.1650   -0.4750    2.3420 hx        1 I26      0.105700
     34 H14         0.6590    0.8080    3.3110 hn        1 I26      0.455800
     35 H6          2.5550   -2.1270    4.5220 ha        1 I26      0.197500
     36 H2         -0.9630   -0.6110    2.3970 ha        1 I26      0.197500
     37 H4          1.6860   -4.4310    4.2980 ha        1 I26      0.166500
     38 H5         -1.8460   -2.9160    2.2550 ha        1 I26      0.166500
     39 H19        -1.0740   -5.8870    4.7810 hn        1 I26      0.494400
     40 H201       -1.0180   -4.8700    1.0030 hn        1 I26      0.477467
     41 H202        0.4730   -5.5860    1.2510 hn        1 I26      0.477467
     42 H9          1.0130    2.5190    1.5340 ha        1 I26      0.191000
     43 H211        0.6900    4.7400    0.9030 hc        1 I26      0.066200
     44 H212        2.1410    5.7060    0.4280 hc        1 I26      0.066200
     45 H12         4.3070    5.3130    1.8950 ha        1 I26      0.155000
     46 H221        0.7460    6.9550    2.0500 hc        1 I26      0.044367
     47 H222        2.3450    6.5520    2.8030 hc        1 I26      0.044367
     48 H223        0.8670    5.6090    3.2560 hc        1 I26      0.044367
     49 H241        6.2790    4.6060    0.9310 h1        1 I26      0.054200
     50 H242        7.5020    4.8150    2.2850 h1        1 I26      0.054200
     51 H261        9.1040    1.3740    1.5870 hc        1 I26      0.061200
     52 H262        7.5610    1.5030    2.5340 hc        1 I26      0.061200
     53 H263        8.9090    2.6480    2.8790 hc        1 I26      0.061200
     54 H271        6.1080    1.7600    0.5580 hc        1 I26      0.061200
     55 H272        6.5980    2.8650   -0.7970 hc        1 I26      0.061200
     56 H273        7.5960    1.3960   -0.4130 hc        1 I26      0.061200
     57 H281        9.3850    3.0030   -0.4770 hx        1 I26      0.107200
     58 H282        8.3890    4.5350   -0.4360 hx        1 I26      0.107200
     59 H311       10.9570    2.5830    1.4650 hx        1 I26      0.107367
     60 H312       11.6330    3.5160    0.0330 hx        1 I26      0.107367
     61 H313       11.9490    4.1050    1.7400 hx        1 I26      0.107367
     62 H301       10.5960    5.7160   -0.5630 hx        1 I26      0.107367
     63 H302       11.0690    6.2470    1.1270 hx        1 I26      0.107367
     64 H303        9.3300    6.4170    0.5670 hx        1 I26      0.107367
     65 H142        1.9180    0.3220    4.3200 hn        1 I26      0.455800
     66 H203       -0.9240   -6.5080    1.3640 hn        1 I26      0.477467
     67 H291        9.6080    4.5130    1.9860 hn        1 I26      0.452800
@<TRIPOS>BOND
     1    1    2 1   
     2    2    3 1   
     3    2    4 1   
     4    4    5 1   
     5    4   15 1   
     6    4   33 1   
     7    5    6 1   
     8    5   34 1   
     9    5   65 1   
    10    6    7 ar  
    11    6   14 ar  
    12    7    8 ar  
    13    7   35 1   
    14    8    9 ar  
    15    8   37 1   
    16    9   10 1   
    17    9   13 ar  
    18   10   11 1   
    19   10   12 2   
    20   11   40 1   
    21   11   41 1   
    22   11   66 1   
    23   12   39 1   
    24   13   14 ar  
    25   13   38 1   
    26   14   36 1   
    27   15   16 ar  
    28   15   17 ar  
    29   16   22 ar  
    30   16   32 1   
    31   17   18 ar  
    32   17   42 1   
    33   18   19 1   
    34   18   21 ar  
    35   19   20 1   
    36   19   43 1   
    37   19   44 1   
    38   20   46 1   
    39   20   47 1   
    40   20   48 1   
    41   21   22 ar  
    42   21   45 1   
    43   22   23 1   
    44   23   24 1   
    45   24   25 1   
    46   24   49 1   
    47   24   50 1   
    48   25   26 1   
    49   25   27 1   
    50   25   28 1   
    51   26   51 1   
    52   26   52 1   
    53   26   53 1   
    54   27   54 1   
    55   27   55 1   
    56   27   56 1   
    57   28   29 1   
    58   28   57 1   
    59   28   58 1   
    60   29   30 1   
    61   29   31 1   
    62   29   67 1   
    63   30   59 1   
    64   30   60 1   
    65   30   61 1   
    66   31   62 1   
    67   31   63 1   
    68   31   64 1   
@<TRIPOS>SUBSTRUCTURE
     1 I26         1 TEMP              0 ****  ****    0 ROOT
