@<TRIPOS>MOLECULE
I26
   66    67     1     0     0
SMALL
bcc


@<TRIPOS>ATOM
      1 O17         3.5300   -1.0910    1.3920 o         1 I26     -0.831300
      2 C15         4.0700   -0.0580    1.8450 c         1 I26      0.923600
      3 O16         5.2520    0.3170    1.5800 o         1 I26     -0.831300
      4 C13         3.2680    0.8520    2.8640 c3        1 I26      0.097800
      5 N14         1.8770    0.4820    3.0350 nh        1 I26     -0.682600
      6 C1          1.5290   -0.7690    3.4930 ca        1 I26      0.275600
      7 C6          0.1900   -1.2370    3.3150 ca        1 I26     -0.193000
      8 C4         -0.2040   -2.4660    3.8030 ca        1 I26     -0.041000
      9 C3          0.7090   -3.2860    4.4830 ca        1 I26     -0.374900
     10 C18         0.3040   -4.6200    4.9250 ce        1 I26      0.626800
     11 N20         1.0650   -5.6800    4.1500 n4        1 I26     -0.833600
     12 N19        -0.5420   -5.0450    5.7820 n2        1 I26     -0.744100
     13 C5          2.0190   -2.8270    4.7060 ca        1 I26     -0.041000
     14 C2          2.4260   -1.5990    4.2320 ca        1 I26     -0.193000
     15 C11         3.4800    2.2830    2.4500 ca        1 I26     -0.050300
     16 C8          4.7900    2.7880    2.6180 ca        1 I26      0.111900
     17 C9          2.5310    3.0910    1.8230 ca        1 I26     -0.124000
     18 C10         2.8650    4.3570    1.3280 ca        1 I26     -0.052300
     19 C21         1.8240    5.2190    0.7010 c3        1 I26     -0.041100
     20 C22         1.4420    6.3780    1.5910 c3        1 I26     -0.092100
     21 C12         4.1880    4.8090    1.3920 ca        1 I26     -0.159000
     22 C7          5.1540    4.0100    1.9990 ca        1 I26      0.047100
     23 O23         6.5020    4.3230    2.1220 os        1 I26     -0.340900
     24 C24         7.1060    5.0430    1.0550 c3        1 I26      0.126400
     25 C25         7.5780    4.1460   -0.1030 c3        1 I26     -0.097000
     26 C26         6.4150    3.7870   -1.0080 c3        1 I26     -0.105600
     27 C27         8.5860    4.9650   -0.9110 c3        1 I26     -0.105600
     28 C28         8.3420    2.9190    0.4270 c3        1 I26      0.114800
     29 N29         7.5220    1.7410    0.8440 n4        1 I26     -0.658400
     30 C31         7.4080    0.7350   -0.2470 c3        1 I26      0.086100
     31 C30         8.0910    1.0950    2.0570 c3        1 I26      0.086100
     32 F20         5.7210    2.1180    3.3370 f         1 I26     -0.130900
     33 H13         3.7780    0.7090    3.8660 h1        1 I26      0.083700
     34 H14         1.2670    0.8430    2.3280 hn        1 I26      0.419800
     35 H6         -0.5380   -0.6170    2.7680 ha        1 I26      0.156500
     36 H2          3.4680   -1.2790    4.3860 ha        1 I26      0.156500
     37 H4         -1.2390   -2.8080    3.6440 ha        1 I26      0.128500
     38 H5          2.7320   -3.4470    5.2740 ha        1 I26      0.128500
     39 H19        -1.0420   -4.3630    6.3150 hn        1 I26      0.480400
     40 H201        0.8880   -6.6280    4.4960 hn        1 I26      0.463133
     41 H202        0.7820   -5.6120    3.1680 hn        1 I26      0.463133
     42 H9          1.4920    2.7510    1.6980 ha        1 I26      0.139000
     43 H211        2.2120    5.6130   -0.2780 hc        1 I26      0.051700
     44 H212        0.9090    4.6100    0.4700 hc        1 I26      0.051700
     45 H12         4.4470    5.7890    0.9660 ha        1 I26      0.147000
     46 H221        0.6800    7.0160    1.0800 hc        1 I26      0.042033
     47 H222        1.0110    6.0130    2.5540 hc        1 I26      0.042033
     48 H223        2.3360    7.0070    1.8220 hc        1 I26      0.042033
     49 H241        6.4340    5.8450    0.6570 h1        1 I26      0.073700
     50 H242        7.9980    5.5180    1.5550 h1        1 I26      0.073700
     51 H261        5.9840    4.7200   -1.4490 hc        1 I26      0.055033
     52 H262        5.5990    3.2720   -0.4450 hc        1 I26      0.055033
     53 H263        6.7560    3.1390   -1.8510 hc        1 I26      0.055033
     54 H271        8.8840    4.4130   -1.8350 hc        1 I26      0.055033
     55 H272        9.5000    5.1750   -0.3050 hc        1 I26      0.055033
     56 H273        8.1270    5.9370   -1.2130 hc        1 I26      0.055033
     57 H281        9.0620    2.5650   -0.3670 hx        1 I26      0.090200
     58 H282        8.9420    3.2590    1.3210 hx        1 I26      0.090200
     59 H311        6.6920   -0.0750    0.0880 hx        1 I26      0.102200
     60 H312        6.9960    1.2280   -1.1650 hx        1 I26      0.102200
     61 H313        8.4160    0.2990   -0.4630 hx        1 I26      0.102200
     62 H301        7.3880    0.2670    2.3640 hx        1 I26      0.102200
     63 H302        9.1100    0.6930    1.8300 hx        1 I26      0.102200
     64 H303        8.1400    1.8510    2.8860 hx        1 I26      0.102200
     65 H203        2.0630   -5.4600    4.2220 hn        1 I26      0.463133
     66 H291        6.5560    2.0410    1.0920 hn        1 I26      0.493800
@<TRIPOS>BOND
     1    1    2 1   
     2    2    3 1   
     3    2    4 1   
     4    4    5 1   
     5    4   15 1   
     6    4   33 1   
     7    5    6 1   
     8    5   34 1   
     9    6    7 ar  
    10    6   14 ar  
    11    7    8 ar  
    12    7   35 1   
    13    8    9 ar  
    14    8   37 1   
    15    9   10 1   
    16    9   13 ar  
    17   10   11 1   
    18   10   12 2   
    19   11   40 1   
    20   11   41 1   
    21   11   65 1   
    22   12   39 1   
    23   13   14 ar  
    24   13   38 1   
    25   14   36 1   
    26   15   16 ar  
    27   15   17 ar  
    28   16   22 ar  
    29   16   32 1   
    30   17   18 ar  
    31   17   42 1   
    32   18   19 1   
    33   18   21 ar  
    34   19   20 1   
    35   19   43 1   
    36   19   44 1   
    37   20   46 1   
    38   20   47 1   
    39   20   48 1   
    40   21   22 ar  
    41   21   45 1   
    42   22   23 1   
    43   23   24 1   
    44   24   25 1   
    45   24   49 1   
    46   24   50 1   
    47   25   26 1   
    48   25   27 1   
    49   25   28 1   
    50   26   51 1   
    51   26   52 1   
    52   26   53 1   
    53   27   54 1   
    54   27   55 1   
    55   27   56 1   
    56   28   29 1   
    57   28   57 1   
    58   28   58 1   
    59   29   30 1   
    60   29   31 1   
    61   29   66 1   
    62   30   59 1   
    63   30   60 1   
    64   30   61 1   
    65   31   62 1   
    66   31   63 1   
    67   31   64 1   
@<TRIPOS>SUBSTRUCTURE
     1 I26         1 TEMP              0 ****  ****    0 ROOT
