@<TRIPOS>MOLECULE
I29
   71    67     1     0     0
SMALL
bcc


@<TRIPOS>ATOM
      1 N1          1.5240   -0.0670   -0.1840 n         1 I29     -0.307000
      2 C5          2.9910   -0.0070   -0.1990 c3        1 I29      0.098000
      3 C57         3.4600    1.2730   -0.8600 c3        1 I29     -0.236000
      4 C51         3.5380   -1.1580   -0.8870 c1        1 I29     -0.072000
      5 C4          3.4080   -0.0230    1.3030 c3        1 I29      0.042000
      6 C47         4.4650    0.9650    1.8230 c3        1 I29     -0.202000
      7 C41         3.9920   -1.2900    1.5060 c1        1 I29     -0.053000
      8 N3          2.2110   -0.0840    1.9130 n2        1 I29     -0.196000
      9 C2          1.1990   -0.1090    1.1090 c2        1 I29      0.078000
     10 C21        -0.1100   -0.7760    1.5510 c3        1 I29     -0.166000
     11 C56         3.0250   -2.4350   -1.0220 c1        1 I29     -0.083000
     12 C55         3.6800   -3.3660   -1.8180 c1        1 I29     -0.126000
     13 C54         4.8460   -3.0160   -2.4760 c1        1 I29     -0.055000
     14 CL5         5.6580   -4.1800   -3.4960 cl        1 I29     -0.017500
     15 C53         5.3590   -1.7390   -2.3420 c2        1 I29     -0.128500
     16 C52         4.7050   -0.8080   -1.5460 c1        1 I29     -0.115000
     17 C42         3.2470   -2.3970    1.8700 c1        1 I29     -0.091000
     18 C43         3.8860   -3.5480    2.3310 c1        1 I29     -0.126000
     19 C44         5.2760   -3.5820    2.4260 c1        1 I29     -0.055000
     20 CL4         6.0820   -5.0480    2.9410 cl        1 I29     -0.017500
     21 C45         6.0240   -2.4700    2.0610 c2        1 I29     -0.128500
     22 C46         5.3870   -1.3240    1.6010 c1        1 I29     -0.115000
     23 C10         0.5750   -0.0810   -1.3960 c2        1 I29      0.380000
     24 O10         1.0320   -0.0390   -2.5280 o         1 I29     -0.339000
     25 N10        -0.9100   -0.0700   -1.1900 n         1 I29     -0.297000
     26 C14        -1.8460   -0.0120   -2.2690 c3        1 I29     -0.050500
     27 C13        -2.8710    1.1070   -2.0850 c3        1 I29     -0.101000
     28 N12        -3.4970    1.0600   -0.8070 n3        1 I29     -0.255000
     29 C12        -2.5310    1.0000    0.2790 c3        1 I29     -0.101000
     30 C11        -1.5120   -0.1160    0.0840 c3        1 I29     -0.050500
     31 C16        -5.8610    1.8100   -0.7180 c3        1 I29     -0.138000
     32 C17        -6.7450    2.9220   -0.1120 c3        1 I29     -0.861000
     33 S17        -8.3840    2.2930    0.1630 s4        1 I29      2.038800
     34 C19        -9.2100    3.2550    1.3940 c2        1 I29     -0.950000
     35 O17        -8.3550    0.8970    0.5210 o         1 I29     -0.537900
     36 O18        -9.1400    2.2520   -1.0630 o         1 I29     -0.537900
     37 C15        -4.3500    2.2390   -0.6390 c3        1 I29     -0.057000
     38 H1          2.9270    2.0360   -0.5190 hc        1 I29      0.092333
     39 H2          4.4070    1.4190   -0.6550 hc        1 I29      0.092333
     40 H3          3.3440    1.2020   -1.8250 hc        1 I29      0.092333
     41 H4          4.0480    1.8340    1.9820 hc        1 I29      0.086000
     42 H5          5.1840    1.0620    1.1520 hc        1 I29      0.086000
     43 H6          4.8450    0.6240    2.6630 hc        1 I29      0.086000
     44 H10         0.0690   -1.3770    2.3150 hc        1 I29      0.108000
     45 H11        -0.4800   -1.2940    0.8080 hc        1 I29      0.108000
     46 H12        -0.7550   -0.0840    1.8230 hc        1 I29      0.108000
     47 H13         2.2100   -2.6810   -0.5610 ha        1 I29      0.161000
     48 H14         3.3190   -4.2630   -1.9120 ha        1 I29      0.148000
     49 H15         6.1780   -1.4940   -2.8050 ha        1 I29      0.145500
     50 H16         5.0640    0.0840   -1.4530 ha        1 I29      0.133000
     51 H17         2.2710   -2.3730    1.8030 ha        1 I29      0.145000
     52 H18         3.3600   -4.3300    2.5880 ha        1 I29      0.148000
     53 H19         7.0060   -2.4950    2.1280 ha        1 I29      0.145500
     54 H20         5.9160   -0.5380    1.3420 ha        1 I29      0.133000
     55 H21        -2.3140   -0.8620   -2.3260 h1        1 I29      0.110750
     56 H22        -1.3610    0.1380   -3.1000 h1        1 I29      0.110750
     57 H23        -2.4220    1.9650   -2.1840 h1        1 I29      0.083750
     58 H24        -3.5550    1.0260   -2.7750 h1        1 I29      0.083750
     59 H26        -2.0560    1.8600    0.3310 h1        1 I29      0.083750
     60 H27        -3.0090    0.8490    1.1210 h1        1 I29      0.083750
     61 H28        -1.9620   -0.9780    0.1910 h1        1 I29      0.110750
     62 H29        -0.8210   -0.0340    0.7620 h1        1 I29      0.110750
     63 H30        -6.1130    1.6660   -1.6610 hc        1 I29      0.110500
     64 H31        -5.9910    0.9750   -0.2140 hc        1 I29      0.110500
     65 H32        -6.7860    3.6810   -0.7310 h1        1 I29      0.148500
     66 H33        -6.3620    3.2160    0.7380 h1        1 I29      0.148500
     67 H34        -9.3570    4.1630    1.0550 ha        1 I29      0.156667
     68 H35       -10.0660    2.8450    1.6050 ha        1 I29      0.156667
     69 H36        -8.6570    3.2940    2.2040 ha        1 I29      0.156667
     70 H37        -4.1560    2.8880   -1.3530 h1        1 I29      0.072000
     71 H38        -4.1730    2.6460    0.2250 h1        1 I29      0.072000
@<TRIPOS>BOND
     1    1    2 1   
     2    1    9 1   
     3    1   23 1   
     4    2    3 1   
     5    2    4 1   
     6    2    5 1   
     7    3   38 1   
     8    3   39 1   
     9    3   40 1   
    10    4   11 1   
    11    5    6 1   
    12    5    7 1   
    13    5    8 1   
    14    6   41 1   
    15    6   42 1   
    16    6   43 1   
    17    7   17 1   
    18    8    9 1   
    19    9   10 1   
    20   10   44 1   
    21   10   45 1   
    22   10   46 1   
    23   11   47 1   
    24   12   13 1   
    25   12   48 1   
    26   13   15 1   
    27   15   16 1   
    28   15   49 1   
    29   16   50 1   
    30   17   51 1   
    31   18   19 1   
    32   18   52 1   
    33   19   21 1   
    34   21   22 1   
    35   21   53 1   
    36   22   54 1   
    37   23   24 1   
    38   23   25 1   
    39   25   26 1   
    40   25   30 1   
    41   26   27 1   
    42   26   55 1   
    43   26   56 1   
    44   27   28 1   
    45   27   57 1   
    46   27   58 1   
    47   28   29 1   
    48   28   37 1   
    49   29   30 1   
    50   29   59 1   
    51   29   60 1   
    52   30   61 1   
    53   30   62 1   
    54   31   32 1   
    55   31   37 1   
    56   31   63 1   
    57   31   64 1   
    58   32   33 1   
    59   32   65 1   
    60   32   66 1   
    61   33   35 1   
    62   33   36 1   
    63   34   67 1   
    64   34   68 1   
    65   34   69 1   
    66   37   70 1   
    67   37   71 1   
@<TRIPOS>SUBSTRUCTURE
     1 I29         1 TEMP              0 ****  ****    0 ROOT
