@<TRIPOS>MOLECULE
I29
   71    74     1     0     0
SMALL
bcc


@<TRIPOS>ATOM
      1 N1          0.6840   -0.6660   -0.6910 n         1 I29     -0.413300
      2 C5          1.8200   -0.3060    0.2160 c3        1 I29      0.124700
      3 C57         2.1860    1.1740    0.1250 c3        1 I29     -0.114100
      4 C51         3.0140   -1.1830   -0.1140 ca        1 I29     -0.072300
      5 C4          1.2310   -0.6730    1.6940 c3        1 I29      0.171500
      6 C47         0.9270    0.5940    2.5130 c3        1 I29     -0.088100
      7 C41         2.1970   -1.5010    2.5100 ca        1 I29     -0.063300
      8 N3         -0.0440   -1.3730    1.4090 n2        1 I29     -0.607900
      9 C2         -0.3320   -1.2790    0.1370 c2        1 I29      0.455900
     10 C21        -1.5770   -1.8120   -0.5000 c3        1 I29     -0.133400
     11 C56         4.3060   -0.6510   -0.2170 ca        1 I29     -0.107500
     12 C55         5.3910   -1.4620   -0.5470 ca        1 I29     -0.128500
     13 C54         5.1930   -2.8240   -0.7820 ca        1 I29      0.021400
     14 CL5         6.5110   -3.8150   -1.1920 cl        1 I29     -0.091400
     15 C53         3.9120   -3.3750   -0.6780 ca        1 I29     -0.128500
     16 C52         2.8360   -2.5560   -0.3470 ca        1 I29     -0.107500
     17 C42         3.4520   -0.9610    2.8310 ca        1 I29     -0.106000
     18 C43         4.3460   -1.6530    3.6410 ca        1 I29     -0.128000
     19 C44         3.9880   -2.9070    4.1470 ca        1 I29      0.020400
     20 CL4         5.0730   -3.7600    5.1400 cl        1 I29     -0.096400
     21 C45         2.7430   -3.4590    3.8390 ca        1 I29     -0.128000
     22 C46         1.8530   -2.7550    3.0270 ca        1 I29     -0.106000
     23 C10         0.2460    0.2860   -1.6800 c         1 I29      0.750100
     24 O10        -0.8300    0.9060   -1.5190 o         1 I29     -0.615100
     25 N10         1.0500    0.5390   -2.8080 n         1 I29     -0.420800
     26 C14         2.0000   -0.4310   -3.3100 c3        1 I29      0.070500
     27 C13         1.4660   -1.2740   -4.4890 c3        1 I29      0.139300
     28 N12         0.8930   -0.4600   -5.5530 n3        1 I29     -0.731600
     29 C12        -0.0660    0.5180   -5.0610 c3        1 I29      0.139300
     30 C11         0.4660    1.3420   -3.8700 c3        1 I29      0.070500
     31 C16         0.0060   -0.4960   -7.8880 c3        1 I29     -0.060400
     32 C17        -0.3200   -1.4440   -9.0230 c3        1 I29     -0.321600
     33 S17        -0.8370   -0.5950  -10.4140 s6        1 I29      1.341000
     34 C19        -1.3160   -1.9150  -11.3540 c3        1 I29     -0.370300
     35 O17        -1.9560    0.1880  -10.1050 o         1 I29     -0.650800
     36 O18         0.2550    0.0390  -11.0170 o         1 I29     -0.650800
     37 C15         0.3640   -1.2860   -6.6300 c3        1 I29      0.180800
     38 H1          2.6880    1.3960   -0.8490 hc        1 I29      0.057367
     39 H2          2.8860    1.4450    0.9510 hc        1 I29      0.057367
     40 H3          1.2770    1.8200    0.2020 hc        1 I29      0.057367
     41 H4          0.2310    1.2720    1.9640 hc        1 I29      0.050367
     42 H5          1.8690    1.1430    2.7450 hc        1 I29      0.050367
     43 H6          0.4450    0.3040    3.4790 hc        1 I29      0.050367
     44 H10        -2.1990   -2.3600    0.2490 hc        1 I29      0.071367
     45 H11        -2.1710   -0.9570   -0.9120 hc        1 I29      0.071367
     46 H12        -1.3100   -2.5090   -1.3310 hc        1 I29      0.071367
     47 H13         4.4990    0.4170   -0.0330 ha        1 I29      0.142500
     48 H14         6.3980   -1.0250   -0.6200 ha        1 I29      0.148500
     49 H15         3.7520   -4.4500   -0.8510 ha        1 I29      0.148500
     50 H16         1.8350   -3.0070   -0.2560 ha        1 I29      0.142500
     51 H17         3.7460    0.0200    2.4250 ha        1 I29      0.144500
     52 H18         5.3270   -1.2160    3.8810 ha        1 I29      0.146500
     53 H19         2.4570   -4.4440    4.2370 ha        1 I29      0.146500
     54 H20         0.8730   -3.2090    2.8130 ha        1 I29      0.144500
     55 H21         2.9000    0.1540   -3.6590 h1        1 I29      0.077200
     56 H22         2.3370   -1.1390   -2.5030 h1        1 I29      0.077200
     57 H23         0.7260   -2.0280   -4.0920 h1        1 I29      0.042950
     58 H24         2.3380   -1.8410   -4.9210 h1        1 I29      0.042950
     59 H26        -1.0420    0.0350   -4.7620 h1        1 I29      0.042950
     60 H27        -0.2800    1.2390   -5.8990 h1        1 I29      0.042950
     61 H28        -0.3810    1.9660   -3.4690 h1        1 I29      0.077200
     62 H29         1.2820    2.0300   -4.2320 h1        1 I29      0.077200
     63 H30         0.8650    0.1640   -8.1850 hc        1 I29      0.070200
     64 H31        -0.8840    0.1600   -7.6890 hc        1 I29      0.070200
     65 H32         0.5910   -2.0630   -9.2410 h1        1 I29      0.109700
     66 H33        -1.1000   -2.1680   -8.6680 h1        1 I29      0.109700
     67 H34        -0.5490   -2.7240  -11.4150 h1        1 I29      0.117033
     68 H35        -2.2590   -2.3910  -10.9890 h1        1 I29      0.117033
     69 H36        -1.5160   -1.6040  -12.4120 h1        1 I29      0.117033
     70 H37         1.1610   -2.0370   -6.8990 h1        1 I29      0.032700
     71 H38        -0.5500   -1.8650   -6.3020 h1        1 I29      0.032700
@<TRIPOS>BOND
     1    1    2 1   
     2    1    9 1   
     3    1   23 1   
     4    2    3 1   
     5    2    4 1   
     6    2    5 1   
     7    3   38 1   
     8    3   39 1   
     9    3   40 1   
    10    4   11 ar  
    11    4   16 ar  
    12    5    6 1   
    13    5    7 1   
    14    5    8 1   
    15    6   41 1   
    16    6   42 1   
    17    6   43 1   
    18    7   17 ar  
    19    7   22 ar  
    20    8    9 2   
    21    9   10 1   
    22   10   44 1   
    23   10   45 1   
    24   10   46 1   
    25   11   12 ar  
    26   11   47 1   
    27   12   13 ar  
    28   12   48 1   
    29   13   14 1   
    30   13   15 ar  
    31   15   16 ar  
    32   15   49 1   
    33   16   50 1   
    34   17   18 ar  
    35   17   51 1   
    36   18   19 ar  
    37   18   52 1   
    38   19   20 1   
    39   19   21 ar  
    40   21   22 ar  
    41   21   53 1   
    42   22   54 1   
    43   23   24 2   
    44   23   25 1   
    45   25   26 1   
    46   25   30 1   
    47   26   27 1   
    48   26   55 1   
    49   26   56 1   
    50   27   28 1   
    51   27   57 1   
    52   27   58 1   
    53   28   29 1   
    54   28   37 1   
    55   29   30 1   
    56   29   59 1   
    57   29   60 1   
    58   30   61 1   
    59   30   62 1   
    60   31   32 1   
    61   31   37 1   
    62   31   63 1   
    63   31   64 1   
    64   32   33 1   
    65   32   65 1   
    66   32   66 1   
    67   33   34 1   
    68   33   35 2   
    69   33   36 2   
    70   34   67 1   
    71   34   68 1   
    72   34   69 1   
    73   37   70 1   
    74   37   71 1   
@<TRIPOS>SUBSTRUCTURE
     1 I29         1 TEMP              0 ****  ****    0 ROOT
