@<TRIPOS>MOLECULE
I29
   71    74     1     0     0
SMALL
bcc


@<TRIPOS>ATOM
      1 N1          0.6880   -0.6570   -0.6880 n         1 I29     -0.413300
      2 C5          1.8310   -0.2950    0.2100 c3        1 I29      0.124700
      3 C57         2.2030    1.1820    0.1070 c3        1 I29     -0.114100
      4 C51         3.0180   -1.1800   -0.1200 ca        1 I29     -0.072300
      5 C4          1.2480   -0.6500    1.6940 c3        1 I29      0.171500
      6 C47         0.9530    0.6240    2.5050 c3        1 I29     -0.088100
      7 C41         2.2150   -1.4750    2.5110 ca        1 I29     -0.063300
      8 N3         -0.0310   -1.3480    1.4200 n2        1 I29     -0.607900
      9 C2         -0.3250   -1.2600    0.1500 c2        1 I29      0.455900
     10 C21        -1.5760   -1.7930   -0.4770 c3        1 I29     -0.133400
     11 C56         4.3120   -0.6550   -0.2330 ca        1 I29     -0.107500
     12 C55         5.3920   -1.4730   -0.5630 ca        1 I29     -0.128500
     13 C54         5.1870   -2.8360   -0.7880 ca        1 I29      0.021400
     14 CL5         6.4980   -3.8350   -1.1990 cl        1 I29     -0.091400
     15 C53         3.9040   -3.3800   -0.6740 ca        1 I29     -0.128500
     16 C52         2.8330   -2.5530   -0.3430 ca        1 I29     -0.107500
     17 C42         3.4740   -0.9370    2.8210 ca        1 I29     -0.106000
     18 C43         4.3700   -1.6270    3.6320 ca        1 I29     -0.128000
     19 C44         4.0100   -2.8760    4.1480 ca        1 I29      0.020400
     20 CL4         5.0970   -3.7260    5.1420 cl        1 I29     -0.096400
     21 C45         2.7610   -3.4250    3.8510 ca        1 I29     -0.128000
     22 C46         1.8690   -2.7240    3.0390 ca        1 I29     -0.106000
     23 C10         0.2480    0.2910   -1.6800 c         1 I29      0.750100
     24 O10        -0.8260    0.9150   -1.5180 o         1 I29     -0.615100
     25 N10         1.0470    0.5360   -2.8130 n         1 I29     -0.420800
     26 C14         1.9940   -0.4380   -3.3140 c3        1 I29      0.071000
     27 C13         1.4540   -1.2850   -4.4870 c3        1 I29      0.139300
     28 N12         0.8800   -0.4760   -5.5530 n3        1 I29     -0.731600
     29 C12        -0.0770    0.5060   -5.0620 c3        1 I29      0.139300
     30 C11         0.4600    1.3350   -3.8770 c3        1 I29      0.071000
     31 C16        -0.0120   -0.5200   -7.8870 c3        1 I29     -0.060400
     32 C17        -0.3420   -1.4710   -9.0160 c3        1 I29     -0.321600
     33 S17        -0.8590   -0.6270  -10.4100 s6        1 I29      1.341000
     34 C19        -1.3370   -1.9500  -11.3460 c3        1 I29     -0.370300
     35 O17        -1.9780    0.1560  -10.1040 o         1 I29     -0.650800
     36 O18         0.2330    0.0050  -11.0150 o         1 I29     -0.650800
     37 C15         0.3470   -1.3050   -6.6260 c3        1 I29      0.180800
     38 H1          1.2980    1.8330    0.1840 hc        1 I29      0.057367
     39 H2          2.9080    1.4560    0.9280 hc        1 I29      0.057367
     40 H3          2.7010    1.3950   -0.8710 hc        1 I29      0.057367
     41 H4          1.8980    1.1710    2.7290 hc        1 I29      0.050367
     42 H5          0.2570    1.3010    1.9550 hc        1 I29      0.050367
     43 H6          0.4750    0.3430    3.4760 hc        1 I29      0.050367
     44 H10        -2.1700   -0.9390   -0.8910 hc        1 I29      0.071367
     45 H11        -1.3160   -2.4960   -1.3060 hc        1 I29      0.071367
     46 H12        -2.1950   -2.3350    0.2790 hc        1 I29      0.071367
     47 H13         4.5120    0.4130   -0.0570 ha        1 I29      0.142500
     48 H14         6.4010   -1.0410   -0.6450 ha        1 I29      0.148500
     49 H15         3.7380   -4.4550   -0.8390 ha        1 I29      0.148500
     50 H16         1.8310   -3.0000   -0.2440 ha        1 I29      0.142500
     51 H17         3.7690    0.0400    2.4070 ha        1 I29      0.144500
     52 H18         5.3530   -1.1920    3.8630 ha        1 I29      0.146500
     53 H19         2.4740   -4.4070    4.2580 ha        1 I29      0.146500
     54 H20         0.8870   -3.1770    2.8330 ha        1 I29      0.144500
     55 H21         2.8930    0.1430   -3.6690 h1        1 I29      0.077200
     56 H22         2.3320   -1.1440   -2.5050 h1        1 I29      0.077200
     57 H23         0.7140   -2.0370   -4.0850 h1        1 I29      0.042950
     58 H24         2.3240   -1.8560   -4.9200 h1        1 I29      0.042950
     59 H26        -0.2920    1.2240   -5.9030 h1        1 I29      0.042950
     60 H27        -1.0520    0.0260   -4.7580 h1        1 I29      0.042950
     61 H28         1.2760    2.0200   -4.2450 h1        1 I29      0.077200
     62 H29        -0.3840    1.9620   -3.4760 h1        1 I29      0.077200
     63 H30        -0.9000    0.1390   -7.6880 hc        1 I29      0.070200
     64 H31         0.8480    0.1370   -8.1880 hc        1 I29      0.070200
     65 H32        -1.1230   -2.1920   -8.6570 h1        1 I29      0.109700
     66 H33         0.5670   -2.0940   -9.2330 h1        1 I29      0.109700
     67 H34        -2.2770   -2.4290  -10.9770 h1        1 I29      0.117033
     68 H35        -0.5680   -2.7580  -11.4080 h1        1 I29      0.117033
     69 H36        -1.5420   -1.6430  -12.4040 h1        1 I29      0.117033
     70 H37        -0.5680   -1.8800   -6.2930 h1        1 I29      0.032700
     71 H38         1.1410   -2.0590   -6.8920 h1        1 I29      0.032700
@<TRIPOS>BOND
     1    1    2 1   
     2    1    9 1   
     3    1   23 1   
     4    2    3 1   
     5    2    4 1   
     6    2    5 1   
     7    3   38 1   
     8    3   39 1   
     9    3   40 1   
    10    4   11 ar  
    11    4   16 ar  
    12    5    6 1   
    13    5    7 1   
    14    5    8 1   
    15    6   41 1   
    16    6   42 1   
    17    6   43 1   
    18    7   17 ar  
    19    7   22 ar  
    20    8    9 2   
    21    9   10 1   
    22   10   44 1   
    23   10   45 1   
    24   10   46 1   
    25   11   12 ar  
    26   11   47 1   
    27   12   13 ar  
    28   12   48 1   
    29   13   14 1   
    30   13   15 ar  
    31   15   16 ar  
    32   15   49 1   
    33   16   50 1   
    34   17   18 ar  
    35   17   51 1   
    36   18   19 ar  
    37   18   52 1   
    38   19   20 1   
    39   19   21 ar  
    40   21   22 ar  
    41   21   53 1   
    42   22   54 1   
    43   23   24 2   
    44   23   25 1   
    45   25   26 1   
    46   25   30 1   
    47   26   27 1   
    48   26   55 1   
    49   26   56 1   
    50   27   28 1   
    51   27   57 1   
    52   27   58 1   
    53   28   29 1   
    54   28   37 1   
    55   29   30 1   
    56   29   59 1   
    57   29   60 1   
    58   30   61 1   
    59   30   62 1   
    60   31   32 1   
    61   31   37 1   
    62   31   63 1   
    63   31   64 1   
    64   32   33 1   
    65   32   65 1   
    66   32   66 1   
    67   33   34 1   
    68   33   35 2   
    69   33   36 2   
    70   34   67 1   
    71   34   68 1   
    72   34   69 1   
    73   37   70 1   
    74   37   71 1   
@<TRIPOS>SUBSTRUCTURE
     1 I29         1 TEMP              0 ****  ****    0 ROOT
