@<TRIPOS>MOLECULE
I29
   71    74     1     0     0
SMALL
bcc


@<TRIPOS>ATOM
      1 N1          0.6900   -0.6420   -0.6930 n         1 I29     -0.413300
      2 C5          1.8340   -0.2960    0.2100 c3        1 I29      0.124700
      3 C57         2.2280    1.1750    0.1080 c3        1 I29     -0.114100
      4 C51         3.0100   -1.1980   -0.1140 ca        1 I29     -0.072300
      5 C4          1.2390   -0.6410    1.6920 c3        1 I29      0.171500
      6 C47         0.9590    0.6370    2.5010 c3        1 I29     -0.088100
      7 C41         2.1900   -1.4800    2.5140 ca        1 I29     -0.063300
      8 N3         -0.0490   -1.3200    1.4130 n2        1 I29     -0.607900
      9 C2         -0.3360   -1.2290    0.1410 c2        1 I29      0.455900
     10 C21        -1.5910   -1.7440   -0.4910 c3        1 I29     -0.133400
     11 C56         4.3120   -0.6910   -0.2210 ca        1 I29     -0.107500
     12 C55         5.3810   -1.5250   -0.5460 ca        1 I29     -0.128500
     13 C54         5.1580   -2.8850   -0.7700 ca        1 I29      0.021400
     14 Cl5         6.4570   -3.9030   -1.1740 cl        1 I29     -0.091400
     15 C53         3.8670   -3.4100   -0.6610 ca        1 I29     -0.128500
     16 C52         2.8070   -2.5690   -0.3360 ca        1 I29     -0.107500
     17 C42         3.4550   -0.9610    2.8290 ca        1 I29     -0.106000
     18 C43         4.3370   -1.6640    3.6440 ca        1 I29     -0.128000
     19 C44         3.9560   -2.9070    4.1600 ca        1 I29      0.020400
     20 Cl4         5.0260   -3.7720    5.1580 cl        1 I29     -0.096400
     21 C45         2.7010   -3.4380    3.8570 ca        1 I29     -0.128000
     22 C46         1.8230   -2.7240    3.0410 ca        1 I29     -0.106000
     23 C10         0.2690    0.3100   -1.6880 c         1 I29      0.750100
     24 O10        -0.7950    0.9520   -1.5310 o         1 I29     -0.615100
     25 N10         1.0770    0.5410   -2.8180 n         1 I29     -0.420800
     26 C14         2.0090   -0.4500   -3.3140 c3        1 I29      0.070500
     27 C13         1.4590   -1.2910   -4.4870 c3        1 I29      0.139300
     28 N12         0.9010   -0.4750   -5.5570 n3        1 I29     -0.731600
     29 C12        -0.0400    0.5240   -5.0710 c3        1 I29      0.139300
     30 C11         0.5070    1.3470   -3.8860 c3        1 I29      0.070500
     31 C16         0.0140   -0.5110   -7.8920 c3        1 I29     -0.060400
     32 C17        -0.3300   -1.4600   -9.0190 c3        1 I29     -0.321600
     33 S17        -0.8300   -0.6110  -10.4170 s6        1 I29      1.341000
     34 C19        -1.3340   -1.9290  -11.3480 c3        1 I29     -0.370300
     35 O17        -1.9340    0.1950  -10.1140 o         1 I29     -0.650800
     36 O18         0.2740   -0.0030  -11.0240 o         1 I29     -0.650800
     37 C15         0.3560   -1.2980   -6.6280 c3        1 I29      0.180800
     38 H1          1.3310    1.8390    0.1810 hc        1 I29      0.057367
     39 H2          2.9330    1.4400    0.9320 hc        1 I29      0.057367
     40 H3          2.7330    1.3810   -0.8680 hc        1 I29      0.057367
     41 H4          0.2760    1.3250    1.9470 hc        1 I29      0.050367
     42 H5          1.9110    1.1710    2.7290 hc        1 I29      0.050367
     43 H6          0.4730    0.3640    3.4700 hc        1 I29      0.050367
     44 H10        -2.1700   -0.8810   -0.9090 hc        1 I29      0.071367
     45 H11        -1.3380   -2.4520   -1.3180 hc        1 I29      0.071367
     46 H12        -2.2230   -2.2760    0.2620 hc        1 I29      0.071367
     47 H13         4.5260    0.3740   -0.0460 ha        1 I29      0.142500
     48 H14         6.3970   -1.1080   -0.6230 ha        1 I29      0.148500
     49 H15         3.6870   -4.4830   -0.8260 ha        1 I29      0.148500
     50 H16         1.7980   -3.0010   -0.2410 ha        1 I29      0.142500
     51 H17         3.7670    0.0110    2.4160 ha        1 I29      0.144500
     52 H18         5.3260   -1.2430    3.8800 ha        1 I29      0.146500
     53 H19         2.3970   -4.4150    4.2630 ha        1 I29      0.146500
     54 H20         0.8350   -3.1620    2.8310 ha        1 I29      0.144500
     55 H21         2.3330   -1.1590   -2.5030 h1        1 I29      0.077200
     56 H22         2.9190    0.1160   -3.6680 h1        1 I29      0.077200
     57 H23         2.3200   -1.8770   -4.9150 h1        1 I29      0.042950
     58 H24         0.7050   -2.0290   -4.0850 h1        1 I29      0.042950
     59 H26        -0.2410    1.2430   -5.9140 h1        1 I29      0.042950
     60 H27        -1.0250    0.0610   -4.7680 h1        1 I29      0.042950
     61 H28        -0.3280    1.9890   -3.4890 h1        1 I29      0.077200
     62 H29         1.3350    2.0170   -4.2530 h1        1 I29      0.077200
     63 H30         0.8850    0.1310   -8.1930 hc        1 I29      0.070200
     64 H31        -0.8640    0.1640   -7.6970 hc        1 I29      0.070200
     65 H32         0.5680   -2.0990   -9.2320 h1        1 I29      0.109700
     66 H33        -1.1240   -2.1670   -8.6600 h1        1 I29      0.109700
     67 H34        -1.5290   -1.6220  -12.4080 h1        1 I29      0.117033
     68 H35        -2.2850   -2.3850  -10.9790 h1        1 I29      0.117033
     69 H36        -0.5820   -2.7530  -11.4030 h1        1 I29      0.117033
     70 H37         1.1390   -2.0660   -6.8910 h1        1 I29      0.032700
     71 H38        -0.5690   -1.8570   -6.2960 h1        1 I29      0.032700
@<TRIPOS>BOND
     1    1    2 1   
     2    1    9 1   
     3    1   23 1   
     4    2    3 1   
     5    2    4 1   
     6    2    5 1   
     7    3   38 1   
     8    3   39 1   
     9    3   40 1   
    10    4   11 ar  
    11    4   16 ar  
    12    5    6 1   
    13    5    7 1   
    14    5    8 1   
    15    6   41 1   
    16    6   42 1   
    17    6   43 1   
    18    7   17 ar  
    19    7   22 ar  
    20    8    9 2   
    21    9   10 1   
    22   10   44 1   
    23   10   45 1   
    24   10   46 1   
    25   11   12 ar  
    26   11   47 1   
    27   12   13 ar  
    28   12   48 1   
    29   13   14 1   
    30   13   15 ar  
    31   15   16 ar  
    32   15   49 1   
    33   16   50 1   
    34   17   18 ar  
    35   17   51 1   
    36   18   19 ar  
    37   18   52 1   
    38   19   20 1   
    39   19   21 ar  
    40   21   22 ar  
    41   21   53 1   
    42   22   54 1   
    43   23   24 2   
    44   23   25 1   
    45   25   26 1   
    46   25   30 1   
    47   26   27 1   
    48   26   55 1   
    49   26   56 1   
    50   27   28 1   
    51   27   57 1   
    52   27   58 1   
    53   28   29 1   
    54   28   37 1   
    55   29   30 1   
    56   29   59 1   
    57   29   60 1   
    58   30   61 1   
    59   30   62 1   
    60   31   32 1   
    61   31   37 1   
    62   31   63 1   
    63   31   64 1   
    64   32   33 1   
    65   32   65 1   
    66   32   66 1   
    67   33   34 1   
    68   33   35 2   
    69   33   36 2   
    70   34   67 1   
    71   34   68 1   
    72   34   69 1   
    73   37   70 1   
    74   37   71 1   
@<TRIPOS>SUBSTRUCTURE
     1 I29         1 TEMP              0 ****  ****    0 ROOT
