@<TRIPOS>MOLECULE
I2C
   59    62     1     0     0
SMALL
bcc


@<TRIPOS>ATOM
      1 O8          4.2710   -7.7920   -0.0260 o         1 I2C     -0.633100
      2 C8          3.4570   -7.3600   -0.8540 c         1 I2C      0.623900
      3 N1          3.7570   -4.1490    0.1190 nb        1 I2C     -0.770000
      4 C2          4.2600   -3.4020    1.1330 ca        1 I2C      0.650600
      5 O2          4.9220   -2.2370    0.8190 oh        1 I2C     -0.607300
      6 C3          4.2200   -3.7560    2.5090 ca        1 I2C     -0.243600
      7 C3M         4.9030   -2.9000    3.5020 c3        1 I2C     -0.053800
      8 C7          2.5990   -6.1490   -0.6570 c3        1 I2C     -0.257700
      9 C6          3.0830   -5.2690    0.4620 ca        1 I2C      0.446600
     10 C5          2.8700   -5.6720    1.7970 ca        1 I2C     -0.332600
     11 C5M         1.9640   -6.8050    2.0880 c3        1 I2C     -0.052800
     12 C4          3.4990   -4.9260    2.8400 ca        1 I2C      0.278100
     13 O3P         3.5670   -5.4890    4.0540 os        1 I2C     -0.533500
     14 P1          2.7970   -5.0200    5.5230 p5        1 I2C      1.459800
     15 O2P         2.0440   -3.8140    5.2050 o         1 I2C     -0.788000
     16 O1P         3.9190   -5.2880    6.4380 o         1 I2C     -0.788000
     17 O5'         1.8110   -6.3180    5.7090 os        1 I2C     -0.563200
     18 C5'         2.3700   -7.5900    5.6150 c3        1 I2C      0.195400
     19 C4'         2.7570   -8.2020    6.9700 c3        1 I2C      0.077100
     20 O4'         2.5540   -9.6290    6.8880 os        1 I2C     -0.411600
     21 C3'         4.2240   -7.9530    7.3810 c3        1 I2C      0.115100
     22 O3'         4.2790   -7.2060    8.5740 oh        1 I2C     -0.622800
     23 C2'         4.8370   -9.3470    7.6370 c3        1 I2C      0.123100
     24 O2'         5.0870   -9.6620    8.9830 oh        1 I2C     -0.585800
     25 C1'         3.7680  -10.3480    7.0880 c3        1 I2C      0.206800
     26 N9A         4.1650  -11.0350    5.8640 na        1 I2C     -0.173900
     27 C4A         4.5640  -10.4670    4.6490 cc        1 I2C      0.039800
     28 N3A         4.8570   -9.1480    4.3520 nc        1 I2C     -0.542100
     29 C2A         5.0460   -8.9030    3.0550 cd        1 I2C      0.534800
     30 N2A         5.2020   -7.4640    2.6940 nz        1 I2C     -0.813600
     31 N1A         5.1040   -9.8460    2.0250 ns        1 I2C     -0.493400
     32 C8A         3.9580  -12.4010    5.5770 cc        1 I2C      0.448400
     33 N7A         4.2210  -12.7320    4.2890 nd        1 I2C     -0.593000
     34 C5A         4.5890  -11.5380    3.6810 cd        1 I2C      0.249800
     35 C6A         4.8920  -11.2370    2.2900 c         1 I2C      0.645000
     36 O6A         4.9760  -12.0120    1.3330 o         1 I2C     -0.553500
     37 H8          3.3120   -7.8870   -1.8260 h4        1 I2C      0.021200
     38 HO2         4.8560   -2.0740   -0.1370 ho        1 I2C      0.441000
     39 H3M         4.1490   -2.2910    4.0660 hc        1 I2C      0.064033
     40 H3MA        5.6100   -2.1930    3.0010 hc        1 I2C      0.064033
     41 H3MB        5.4870   -3.5180    4.2290 hc        1 I2C      0.064033
     42 H7          2.5620   -5.5810   -1.6300 hc        1 I2C      0.104700
     43 H7A         1.5490   -6.4900   -0.4370 hc        1 I2C      0.104700
     44 H5M         0.9040   -6.5000    1.8920 hc        1 I2C      0.049033
     45 H5MA        2.0280   -7.1340    3.1540 hc        1 I2C      0.049033
     46 H5MB        2.2010   -7.6870    1.4390 hc        1 I2C      0.049033
     47 H5'         3.2720   -7.5340    4.9500 h1        1 I2C      0.029200
     48 H5'A        1.5890   -8.2560    5.1470 h1        1 I2C      0.029200
     49 H4'         2.0510   -7.8420    7.7680 h1        1 I2C      0.104700
     50 H3'         4.7990   -7.4350    6.5670 h1        1 I2C      0.094700
     51 HO3'        4.3160   -6.2690    8.3120 ho        1 I2C      0.475000
     52 H2'         5.8260   -9.4580    7.1160 h1        1 I2C      0.088700
     53 HO2'        4.5430   -9.0900    9.5430 ho        1 I2C      0.439000
     54 H1'         3.5360  -11.1530    7.8480 h2        1 I2C      0.110700
     55 HN2A        6.1490   -7.2930    2.3520 hn        1 I2C      0.496800
     56 HN2B        4.5090   -7.2140    1.9550 hn        1 I2C      0.496800
     57 HN1A        5.1680   -9.5580    1.0670 hn        1 I2C      0.363500
     58 H8A         3.6320  -13.1090    6.3510 h5        1 I2C      0.085100
     59 H2A3        5.0070   -6.8630    3.5260 hn        1 I2C      0.496800
@<TRIPOS>BOND
     1    1    2 2   
     2    2    8 1   
     3    2   37 1   
     4    3    4 ar  
     5    3    9 ar  
     6    4    5 1   
     7    4    6 ar  
     8    5   38 1   
     9    6    7 1   
    10    6   12 ar  
    11    7   39 1   
    12    7   40 1   
    13    7   41 1   
    14    8    9 1   
    15    8   42 1   
    16    8   43 1   
    17    9   10 ar  
    18   10   11 1   
    19   10   12 ar  
    20   11   44 1   
    21   11   45 1   
    22   11   46 1   
    23   12   13 1   
    24   13   14 1   
    25   14   15 1   
    26   14   16 1   
    27   14   17 1   
    28   17   18 1   
    29   18   19 1   
    30   18   47 1   
    31   18   48 1   
    32   19   20 1   
    33   19   21 1   
    34   19   49 1   
    35   20   25 1   
    36   21   22 1   
    37   21   23 1   
    38   21   50 1   
    39   22   51 1   
    40   23   24 1   
    41   23   25 1   
    42   23   52 1   
    43   24   53 1   
    44   25   26 1   
    45   25   54 1   
    46   26   27 1   
    47   26   32 1   
    48   27   28 1   
    49   27   34 2   
    50   28   29 2   
    51   29   30 1   
    52   29   31 1   
    53   30   55 1   
    54   30   56 1   
    55   30   59 1   
    56   31   35 1   
    57   31   57 1   
    58   32   33 2   
    59   32   58 1   
    60   33   34 1   
    61   34   35 1   
    62   35   36 2   
@<TRIPOS>SUBSTRUCTURE
     1 I2C         1 TEMP              0 ****  ****    0 ROOT
