@<TRIPOS>MOLECULE
I2C
   59    62     1     0     0
SMALL
bcc


@<TRIPOS>ATOM
      1 O8          4.2970   -7.8060   -0.0210 o         1 I2C     -0.633100
      2 C8          3.5040   -7.3500   -0.8570 c         1 I2C      0.623900
      3 N1          3.8900   -4.1490    0.1190 nb        1 I2C     -0.770000
      4 C2          4.4050   -3.4170    1.1370 ca        1 I2C      0.650600
      5 O2          5.1040   -2.2720    0.8300 oh        1 I2C     -0.607300
      6 C3          4.3410   -3.7690    2.5130 ca        1 I2C     -0.243600
      7 C3M         5.0400   -2.9340    3.5120 c3        1 I2C     -0.053800
      8 C7          2.6810   -6.1140   -0.6690 c3        1 I2C     -0.257700
      9 C6          3.1800   -5.2490    0.4550 ca        1 I2C      0.446600
     10 C5          2.9430   -5.6440    1.7880 ca        1 I2C     -0.332600
     11 C5M         2.0010   -6.7500    2.0710 c3        1 I2C     -0.052800
     12 C4          3.5840   -4.9170    2.8370 ca        1 I2C      0.278100
     13 O3P         3.6220   -5.4810    4.0520 os        1 I2C     -0.533500
     14 P1          2.8540   -4.9890    5.5130 p5        1 I2C      1.459800
     15 O2P         2.1410   -3.7610    5.1880 o         1 I2C     -0.788000
     16 O1P         3.9580   -5.2910    6.4390 o         1 I2C     -0.788000
     17 O5'         1.8270   -6.2560    5.6900 os        1 I2C     -0.563200
     18 C5'         2.3480   -7.5450    5.6010 c3        1 I2C      0.195400
     19 C4'         2.7040   -8.1680    6.9600 c3        1 I2C      0.077100
     20 O4'         2.4580   -9.5880    6.8760 os        1 I2C     -0.411600
     21 C3'         4.1740   -7.9640    7.3850 c3        1 I2C      0.115100
     22 O3'         4.2400   -7.2180    8.5790 oh        1 I2C     -0.622800
     23 C2'         4.7420   -9.3750    7.6470 c3        1 I2C      0.123100
     24 O2'         4.9680   -9.6970    8.9950 oh        1 I2C     -0.585800
     25 C1'         3.6470  -10.3440    7.0880 c3        1 I2C      0.206800
     26 N9A         4.0350  -11.0430    5.8680 na        1 I2C     -0.173900
     27 C4A         4.4630  -10.4880    4.6560 cc        1 I2C      0.039800
     28 N3A         4.7990   -9.1780    4.3630 nc        1 I2C     -0.542100
     29 C2A         5.0070   -8.9390    3.0670 cd        1 I2C      0.534800
     30 N2A         5.2100   -7.5060    2.7070 n4        1 I2C     -0.813600
     31 N1A         5.0460   -9.8840    2.0370 n         1 I2C     -0.493400
     32 C8A         3.7900  -12.4020    5.5780 cc        1 I2C      0.448400
     33 N7A         4.0550  -12.7410    4.2930 nd        1 I2C     -0.593000
     34 C5A         4.4650  -11.5590    3.6890 cd        1 I2C      0.249800
     35 C6A         4.7900  -11.2680    2.3000 c         1 I2C      0.645000
     36 O6A         4.8590  -12.0450    1.3450 o         1 I2C     -0.553500
     37 H8          3.3530   -7.8730   -1.8300 h4        1 I2C      0.021200
     38 HO2         5.0520   -2.1080   -0.1270 ho        1 I2C      0.441000
     39 H3M         5.5990   -3.5680    4.2440 hc        1 I2C      0.064033
     40 H3MA        5.7720   -2.2470    3.0170 hc        1 I2C      0.064033
     41 H3MB        4.2990   -2.3020    4.0690 hc        1 I2C      0.064033
     42 H7          1.6180   -6.4240   -0.4590 hc        1 I2C      0.104700
     43 H7A         2.6700   -5.5460   -1.6410 hc        1 I2C      0.104700
     44 H5M         0.9520   -6.4140    1.8650 hc        1 I2C      0.049033
     45 H5MA        2.2170   -7.6390    1.4240 hc        1 I2C      0.049033
     46 H5MB        2.0440   -7.0810    3.1370 hc        1 I2C      0.049033
     47 H5'         1.5510   -8.1870    5.1260 h1        1 I2C      0.029200
     48 H5'A        3.2580   -7.5170    4.9450 h1        1 I2C      0.029200
     49 H4'         2.0020   -7.7870    7.7520 h1        1 I2C      0.104700
     50 H3'         4.7710   -7.4630    6.5770 h1        1 I2C      0.094700
     51 HO3'        4.3080   -6.2830    8.3170 ho        1 I2C      0.475000
     52 H2'         5.7320   -9.5170    7.1360 h1        1 I2C      0.088700
     53 HO2'        4.4370   -9.1080    9.5500 ho        1 I2C      0.439000
     54 H1'         3.3840  -11.1420    7.8460 h2        1 I2C      0.110700
     55 HN2A        6.1650   -7.3640    2.3750 hn        1 I2C      0.496800
     56 HN2B        5.0250   -6.8980    3.5380 hn        1 I2C      0.496800
     57 HN1A        5.1290   -9.5980    1.0800 hn        1 I2C      0.363500
     58 H8A         3.4350  -13.0990    6.3490 h5        1 I2C      0.085100
     59 H2A3        4.5330   -7.2350    1.9620 hn        1 I2C      0.496800
@<TRIPOS>BOND
     1    1    2 2   
     2    2    8 1   
     3    2   37 1   
     4    3    4 ar  
     5    3    9 ar  
     6    4    5 1   
     7    4    6 ar  
     8    5   38 1   
     9    6    7 1   
    10    6   12 ar  
    11    7   39 1   
    12    7   40 1   
    13    7   41 1   
    14    8    9 1   
    15    8   42 1   
    16    8   43 1   
    17    9   10 ar  
    18   10   11 1   
    19   10   12 ar  
    20   11   44 1   
    21   11   45 1   
    22   11   46 1   
    23   12   13 1   
    24   13   14 1   
    25   14   15 1   
    26   14   16 1   
    27   14   17 1   
    28   17   18 1   
    29   18   19 1   
    30   18   47 1   
    31   18   48 1   
    32   19   20 1   
    33   19   21 1   
    34   19   49 1   
    35   20   25 1   
    36   21   22 1   
    37   21   23 1   
    38   21   50 1   
    39   22   51 1   
    40   23   24 1   
    41   23   25 1   
    42   23   52 1   
    43   24   53 1   
    44   25   26 1   
    45   25   54 1   
    46   26   27 1   
    47   26   32 1   
    48   27   28 1   
    49   27   34 2   
    50   28   29 2   
    51   29   30 1   
    52   29   31 1   
    53   30   55 1   
    54   30   56 1   
    55   30   59 1   
    56   31   35 1   
    57   31   57 1   
    58   32   33 2   
    59   32   58 1   
    60   33   34 1   
    61   34   35 1   
    62   35   36 2   
@<TRIPOS>SUBSTRUCTURE
     1 I2C         1 TEMP              0 ****  ****    0 ROOT
