@<TRIPOS>MOLECULE
I2C
   58    61     1     0     0
SMALL
bcc


@<TRIPOS>ATOM
      1 O8          8.9190    1.3750    1.2560 o         1 I2C     -0.565100
      2 C8          7.6940    1.5040    1.3290 c         1 I2C      0.589900
      3 N1          5.2940    2.0590   -0.0440 nb        1 I2C     -0.724000
      4 C2          4.0700    2.4110   -0.5010 ca        1 I2C      0.628600
      5 O2          4.0280    3.7010   -1.0000 oh        1 I2C     -0.618300
      6 C3          2.9160    1.5860   -0.4680 ca        1 I2C     -0.305600
      7 C3M         1.6080    2.0960   -0.9290 c3        1 I2C     -0.046800
      8 C7          6.7560    0.3840    0.9950 c3        1 I2C     -0.246700
      9 C6          5.4130    0.8110    0.4760 ca        1 I2C      0.432600
     10 C5          4.3560   -0.1190    0.5310 ca        1 I2C     -0.249600
     11 C5M         4.5560   -1.4830    1.0650 c3        1 I2C     -0.041800
     12 C4          3.0810    0.2780    0.0400 ca        1 I2C      0.292100
     13 O3P         2.0110   -0.5240    0.1730 os        1 I2C     -0.498500
     14 P1          1.5800   -1.7560   -0.8820 p5        1 I2C      1.453800
     15 O2P         2.7830   -2.4280   -1.3750 o         1 I2C     -0.815500
     16 O1P         0.4540   -1.2000   -1.6630 o         1 I2C     -0.815500
     17 O5'         0.8650   -2.6790    0.2780 os        1 I2C     -0.561200
     18 C5'        -0.3140   -2.1800    0.8310 c3        1 I2C      0.184400
     19 C4'        -1.5300   -3.0310    0.4260 c3        1 I2C      0.080100
     20 O4'        -2.7330   -2.2950    0.7080 os        1 I2C     -0.424600
     21 C3'        -1.5640   -3.3840   -1.0690 c3        1 I2C      0.091100
     22 O3'        -1.9920   -4.7060   -1.3130 oh        1 I2C     -0.593800
     23 C2'        -2.5410   -2.3660   -1.6970 c3        1 I2C      0.077100
     24 O2'        -3.5530   -3.0080   -2.4530 oh        1 I2C     -0.609800
     25 C1'        -3.2650   -1.6990   -0.4870 c3        1 I2C      0.246800
     26 N9A        -3.1530   -0.2590   -0.4570 na        1 I2C     -0.207900
     27 C4A        -4.1090    0.6100    0.0860 cc        1 I2C      0.091800
     28 N3A        -5.3410    0.3170    0.6480 nc        1 I2C     -0.644100
     29 C2A        -6.0450    1.3930    1.0510 cd        1 I2C      0.635800
     30 N2A        -7.3720    1.2030    1.5490 nh        1 I2C     -0.874800
     31 N1A        -5.5870    2.7240    0.9750 n         1 I2C     -0.504400
     32 C8A        -2.0740    0.5650   -0.8700 cc        1 I2C      0.426400
     33 N7A        -2.3000    1.8740   -0.6530 nd        1 I2C     -0.619000
     34 C5A        -3.5610    1.9340   -0.0560 cd        1 I2C      0.189800
     35 C6A        -4.3350    3.0700    0.3980 c         1 I2C      0.648000
     36 O6A        -4.0470    4.2770    0.3530 o         1 I2C     -0.621500
     37 H8          7.2340    2.4540    1.6790 h4        1 I2C      0.016200
     38 HO2         3.1840    3.7980   -1.4650 ho        1 I2C      0.424000
     39 H3M         1.5750    2.1400   -2.0470 hc        1 I2C      0.051033
     40 H3MA        0.7690    1.4400   -0.5850 hc        1 I2C      0.051033
     41 H3MB        1.4190    3.1230   -0.5240 hc        1 I2C      0.051033
     42 H7          7.2280   -0.2980    0.2350 hc        1 I2C      0.082700
     43 H7A         6.6050   -0.2140    1.9380 hc        1 I2C      0.082700
     44 H5M         4.5540   -1.4710    2.1840 hc        1 I2C      0.047700
     45 H5MA        3.7290   -2.1550    0.7050 hc        1 I2C      0.047700
     46 H5MB        5.5250   -1.9140    0.7120 hc        1 I2C      0.047700
     47 H5'        -0.2180   -2.2230    1.9520 h1        1 I2C      0.045200
     48 H5'A       -0.4800   -1.1130    0.5110 h1        1 I2C      0.045200
     49 H4'        -1.5940   -3.9530    1.0620 h1        1 I2C      0.078700
     50 H3'        -0.5370   -3.3040   -1.5270 h1        1 I2C      0.133700
     51 HO3'       -2.8600   -4.8060   -0.8990 ho        1 I2C      0.400000
     52 H2'        -1.9770   -1.6360   -2.3390 h1        1 I2C      0.114700
     53 HO2'       -3.1030   -3.6470   -3.0240 ho        1 I2C      0.422000
     54 H1'        -4.3660   -1.9610   -0.4810 h2        1 I2C      0.111700
     55 HN2A       -7.6310    0.2370    1.5880 hn        1 I2C      0.398300
     56 HN2B       -7.5220    1.6610    2.4240 hn        1 I2C      0.398300
     57 HN1A       -6.1840    3.4700    1.2510 hn        1 I2C      0.327500
     58 H8A        -1.1550    0.1370   -1.3290 h5        1 I2C      0.142100
@<TRIPOS>BOND
     1    1    2 2   
     2    2    8 1   
     3    2   37 1   
     4    3    4 ar  
     5    3    9 ar  
     6    4    5 1   
     7    4    6 ar  
     8    5   38 1   
     9    6    7 1   
    10    6   12 ar  
    11    7   39 1   
    12    7   40 1   
    13    7   41 1   
    14    8    9 1   
    15    8   42 1   
    16    8   43 1   
    17    9   10 ar  
    18   10   11 1   
    19   10   12 ar  
    20   11   44 1   
    21   11   45 1   
    22   11   46 1   
    23   12   13 1   
    24   13   14 1   
    25   14   15 1   
    26   14   16 1   
    27   14   17 1   
    28   17   18 1   
    29   18   19 1   
    30   18   47 1   
    31   18   48 1   
    32   19   20 1   
    33   19   21 1   
    34   19   49 1   
    35   20   25 1   
    36   21   22 1   
    37   21   23 1   
    38   21   50 1   
    39   22   51 1   
    40   23   24 1   
    41   23   25 1   
    42   23   52 1   
    43   24   53 1   
    44   25   26 1   
    45   25   54 1   
    46   26   27 1   
    47   26   32 1   
    48   27   28 1   
    49   27   34 2   
    50   28   29 2   
    51   29   30 1   
    52   29   31 1   
    53   30   55 1   
    54   30   56 1   
    55   31   35 1   
    56   31   57 1   
    57   32   33 2   
    58   32   58 1   
    59   33   34 1   
    60   34   35 1   
    61   35   36 2   
@<TRIPOS>SUBSTRUCTURE
     1 I2C         1 TEMP              0 ****  ****    0 ROOT
