@<TRIPOS>MOLECULE
I2C
   59    62     1     0     0
SMALL
bcc


@<TRIPOS>ATOM
      1 O8          4.1810   -7.7200   -0.0400 o         1 I2C     -0.633100
      2 C8          3.3530   -7.2640   -0.8410 c         1 I2C      0.623900
      3 N1          3.7090   -4.0760    0.1860 nb        1 I2C     -0.770000
      4 C2          4.2430   -3.3540    1.2030 ca        1 I2C      0.650600
      5 O2          4.9100   -2.1900    0.8960 oh        1 I2C     -0.607300
      6 C3          4.2290   -3.7340    2.5720 ca        1 I2C     -0.243600
      7 C3M         4.9430   -2.9050    3.5660 c3        1 I2C     -0.053800
      8 C7          2.5130   -6.0480   -0.6020 c3        1 I2C     -0.257700
      9 C6          3.0310   -5.1960    0.5230 ca        1 I2C      0.446600
     10 C5          2.8440   -5.6220    1.8550 ca        1 I2C     -0.332600
     11 C5M         1.9330   -6.7520    2.1440 c3        1 I2C     -0.052800
     12 C4          3.5040   -4.9030    2.8970 ca        1 I2C      0.278100
     13 O3P         3.5930   -5.4900    4.0980 os        1 I2C     -0.533500
     14 P1          2.8620   -5.0420    5.5930 p5        1 I2C      1.459800
     15 O2P         2.1150   -3.8230    5.3150 o         1 I2C     -0.788000
     16 O1P         4.0010   -5.3400    6.4760 o         1 I2C     -0.788000
     17 O5'         1.8660   -6.3330    5.7760 os        1 I2C     -0.563200
     18 C5'         2.4090   -7.6090    5.6450 c3        1 I2C      0.195400
     19 C4'         2.8200   -8.2520    6.9780 c3        1 I2C      0.077100
     20 O4'         2.6000   -9.6740    6.8740 os        1 I2C     -0.411600
     21 C3'         4.2990   -8.0260    7.3610 c3        1 I2C      0.115100
     22 O3'         4.3890   -7.3030    8.5670 oh        1 I2C     -0.622800
     23 C2'         4.9020   -9.4310    7.5760 c3        1 I2C      0.123100
     24 O2'         5.1780   -9.7750    8.9090 oh        1 I2C     -0.585800
     25 C1'         3.8100  -10.4100    7.0320 c3        1 I2C      0.206800
     26 N9A         4.1720  -11.0770    5.7870 na        1 I2C     -0.173900
     27 C4A         4.5490  -10.4900    4.5740 cc        1 I2C      0.039800
     28 N3A         4.8510   -9.1680    4.2960 nc        1 I2C     -0.542100
     29 C2A         5.0120   -8.8990    3.0000 cd        1 I2C      0.534800
     30 N2A         5.1760   -7.4550    2.6630 n4        1 I2C     -0.813600
     31 N1A         5.0370   -9.8230    1.9500 n         1 I2C     -0.493400
     32 C8A         3.9440  -12.4350    5.4770 cc        1 I2C      0.448400
     33 N7A         4.1750  -12.7430    4.1780 nd        1 I2C     -0.593000
     34 C5A         4.5420  -11.5410    3.5850 cd        1 I2C      0.249800
     35 C6A         4.8160  -11.2170    2.1930 c         1 I2C      0.645000
     36 O6A         4.8700  -11.9740    1.2200 o         1 I2C     -0.553500
     37 H8          3.1810   -7.7700   -1.8200 h4        1 I2C      0.021200
     38 HO2         4.8230   -2.0080   -0.0540 ho        1 I2C      0.441000
     39 H3M         4.2090   -2.2990    4.1580 hc        1 I2C      0.064033
     40 H3MA        5.5370   -3.5420    4.2670 hc        1 I2C      0.064033
     41 H3MB        5.6460   -2.1950    3.0620 hc        1 I2C      0.064033
     42 H7          2.4600   -5.4620   -1.5620 hc        1 I2C      0.104700
     43 H7A         1.4640   -6.3830   -0.3650 hc        1 I2C      0.104700
     44 H5M         2.0170   -7.1020    3.2020 hc        1 I2C      0.049033
     45 H5MA        2.1460   -7.6230    1.4730 hc        1 I2C      0.049033
     46 H5MB        0.8720   -6.4320    1.9780 hc        1 I2C      0.049033
     47 H5'         3.2970   -7.5500    4.9610 h1        1 I2C      0.029200
     48 H5'A        1.6110   -8.2580    5.1820 h1        1 I2C      0.029200
     49 H4'         2.1360   -7.9010    7.8000 h1        1 I2C      0.104700
     50 H3'         4.8610   -7.4980    6.5450 h1        1 I2C      0.094700
     51 HO3'        4.4300   -6.3620    8.3220 ho        1 I2C      0.475000
     52 H2'         5.8780   -9.5420    7.0310 h1        1 I2C      0.088700
     53 HO2'        4.6530   -9.2080    9.4930 ho        1 I2C      0.439000
     54 H1'         3.5860  -11.2280    7.7820 h2        1 I2C      0.110700
     55 HN2A        6.1170   -7.2880    2.3040 hn        1 I2C      0.496800
     56 HN2B        5.0060   -6.8680    3.5110 hn        1 I2C      0.496800
     57 HN1A        5.0830   -9.5170    0.9970 hn        1 I2C      0.363500
     58 H8A         3.6280  -13.1540    6.2450 h5        1 I2C      0.085100
     59 H2A3        4.4700   -7.1840    1.9450 hn        1 I2C      0.496800
@<TRIPOS>BOND
     1    1    2 2   
     2    2    8 1   
     3    2   37 1   
     4    3    4 ar  
     5    3    9 ar  
     6    4    5 1   
     7    4    6 ar  
     8    5   38 1   
     9    6    7 1   
    10    6   12 ar  
    11    7   39 1   
    12    7   40 1   
    13    7   41 1   
    14    8    9 1   
    15    8   42 1   
    16    8   43 1   
    17    9   10 ar  
    18   10   11 1   
    19   10   12 ar  
    20   11   44 1   
    21   11   45 1   
    22   11   46 1   
    23   12   13 1   
    24   13   14 1   
    25   14   15 1   
    26   14   16 1   
    27   14   17 1   
    28   17   18 1   
    29   18   19 1   
    30   18   47 1   
    31   18   48 1   
    32   19   20 1   
    33   19   21 1   
    34   19   49 1   
    35   20   25 1   
    36   21   22 1   
    37   21   23 1   
    38   21   50 1   
    39   22   51 1   
    40   23   24 1   
    41   23   25 1   
    42   23   52 1   
    43   24   53 1   
    44   25   26 1   
    45   25   54 1   
    46   26   27 1   
    47   26   32 1   
    48   27   28 1   
    49   27   34 2   
    50   28   29 2   
    51   29   30 1   
    52   29   31 1   
    53   30   55 1   
    54   30   56 1   
    55   30   59 1   
    56   31   35 1   
    57   31   57 1   
    58   32   33 2   
    59   32   58 1   
    60   33   34 1   
    61   34   35 1   
    62   35   36 2   
@<TRIPOS>SUBSTRUCTURE
     1 I2C         1 TEMP              0 ****  ****    0 ROOT
