@<TRIPOS>MOLECULE
I2C
   58    53     1     0     0
SMALL
bcc


@<TRIPOS>ATOM
      1 O8         -4.9580    7.4350   -2.4530 o         1 I2C     -0.319000
      2 C8         -5.6950    6.4490   -2.3320 c1        1 I2C      0.206000
      3 N1         -3.3670    5.5690   -3.5110 n1        1 I2C     -0.263000
      4 C2         -2.1790    5.2820   -4.1290 c1        1 I2C      0.125000
      5 O2         -1.7290    6.0840   -5.1930 o         1 I2C     -0.254000
      6 C3         -1.4490    4.1410   -3.7530 c2        1 I2C     -0.156000
      7 C3M        -0.2160    3.7060   -4.5820 c3        1 I2C     -0.170000
      8 C7         -5.1280    5.1290   -1.7480 c2        1 I2C     -0.179000
      9 C6         -3.8490    4.7390   -2.5200 c1        1 I2C      0.013000
     10 C5         -3.1250    3.6020   -2.1440 c1        1 I2C     -0.179000
     11 C5M        -3.6890    2.6620   -1.0900 c2        1 I2C     -0.171000
     12 C4         -1.9320    3.3120   -2.7620 c2        1 I2C      0.224000
     13 O3P        -1.2710    2.1070   -2.4750 os        1 I2C     -0.667000
     14 P1         -0.1600    2.0990   -1.3150 p5        1 I2C      1.931000
     15 O2P        -0.7180    2.7890   -0.0690 o         1 I2C     -0.822500
     16 O1P         1.0810    2.8420   -1.7990 o         1 I2C     -0.822500
     17 O5'         0.2320    0.5720   -0.9540 os        1 I2C     -0.720000
     18 C5'         0.9230    0.3150    0.2800 c3        1 I2C      0.045000
     19 C4'         0.6110   -1.1120    0.7540 c3        1 I2C     -0.046000
     20 O4'         1.6740   -1.8620    0.6510 os        1 I2C     -0.272000
     21 C3'         0.2630   -1.1170    2.2540 c3        1 I2C      0.000000
     22 O3'        -1.0400   -1.3870    2.4280 oh        1 I2C     -0.361000
     23 C2'         1.1350   -2.2430    2.8820 c3        1 I2C      0.000000
     24 O2'         0.2970   -3.1400    3.7300 oh        1 I2C     -0.316000
     25 C1'         1.6110   -2.8980    1.8770 c3        1 I2C      0.122000
     26 N9A         2.9390   -3.3920    2.1840 n3        1 I2C     -0.158000
     27 C4A         3.3340   -4.6900    2.3380 c1        1 I2C      0.045000
     28 N3A         2.5750   -5.9400    2.4990 n1        1 I2C     -0.218000
     29 C2A         3.2750   -7.1920    2.7700 c1        1 I2C      0.200000
     30 N2A         2.5240   -8.4050    2.9820 n2        1 I2C     -0.316000
     31 N1A         4.6930   -7.2050    2.8740 n3        1 I2C     -0.346000
     32 C8A         4.0630   -2.6140    2.1110 c1        1 I2C     -0.068000
     33 N7A         5.1390   -3.4240    2.2190 n2        1 I2C     -0.078000
     34 C5A         4.6890   -4.7140    2.3600 c1        1 I2C     -0.234000
     35 C6A         5.4210   -6.0080    2.7150 c1        1 I2C      0.396000
     36 O6A         6.6270   -6.0180    2.8030 o         1 I2C     -0.342000
     37 H8         -6.5950    6.4700   -2.6950 ha        1 I2C      0.102000
     38 HO2        -2.2380    6.8040   -5.2550 ho        1 I2C      0.222000
     39 H3M        -0.4320    3.7600   -5.5540 hc        1 I2C      0.096667
     40 H3MA        0.5120    4.2770   -4.3890 hc        1 I2C      0.096667
     41 H3MB        0.0200    2.7940   -4.3530 hc        1 I2C      0.096667
     42 H7         -4.9100    5.2570   -0.7920 ha        1 I2C      0.119000
     43 H7A        -5.8130    4.4000   -1.8410 ha        1 I2C      0.119000
     44 H5M        -3.6790    3.1040   -0.2270 ha        1 I2C      0.089000
     45 H5MA       -4.6180    2.4210   -1.3290 ha        1 I2C      0.089000
     46 H5MB       -3.1380    1.8430   -1.0470 ha        1 I2C      0.089000
     47 H5'         0.6350    0.9470    0.9480 h1        1 I2C      0.072000
     48 H5'A        1.9010    0.4090    0.1360 h1        1 I2C      0.072000
     49 H4'        -0.1090   -1.4820    0.2450 h1        1 I2C      0.136000
     50 H3'         0.4840   -0.2640    2.6500 h1        1 I2C      0.137000
     51 HO3'       -1.3870   -0.7980    2.9520 ho        1 I2C      0.273000
     52 H2'         1.8630   -1.8520    3.4130 h1        1 I2C      0.129000
     53 HO2'        0.0730   -2.7160    4.4770 ho        1 I2C      0.226000
     54 H1'         1.0170   -3.6470    1.6520 h2        1 I2C      0.148000
     55 HN2A        1.6450   -8.4180    2.8290 hn        1 I2C      0.198500
     56 HN2B        2.9590   -9.1800    3.2430 hn        1 I2C      0.198500
     57 HN1A        5.1260   -7.9790    3.0410 hn        1 I2C      0.243000
     58 H8A         4.0840   -1.6240    2.0140 DU        1 I2C      0.219000
@<TRIPOS>BOND
     1    1    2 1   
     2    2   37 1   
     3    3    4 1   
     4    4    6 1   
     5    5   38 1   
     6    6    7 1   
     7    6   12 1   
     8    7   39 1   
     9    7   40 1   
    10    7   41 1   
    11    8    9 1   
    12    8   42 1   
    13    8   43 1   
    14    9   10 1   
    15   10   12 1   
    16   11   44 1   
    17   11   45 1   
    18   11   46 1   
    19   12   13 1   
    20   13   14 1   
    21   14   15 1   
    22   14   16 1   
    23   14   17 1   
    24   17   18 1   
    25   18   19 1   
    26   18   47 1   
    27   18   48 1   
    28   19   20 1   
    29   19   21 1   
    30   19   49 1   
    31   20   25 1   
    32   21   22 1   
    33   21   23 1   
    34   21   50 1   
    35   22   51 1   
    36   23   24 1   
    37   23   25 1   
    38   23   52 1   
    39   24   53 1   
    40   25   26 1   
    41   25   54 1   
    42   26   27 1   
    43   26   32 1   
    44   27   34 1   
    45   28   29 1   
    46   29   31 1   
    47   30   55 1   
    48   30   56 1   
    49   31   35 1   
    50   31   57 1   
    51   32   33 1   
    52   33   34 1   
    53   35   36 1   
@<TRIPOS>SUBSTRUCTURE
     1 I2C         1 TEMP              0 ****  ****    0 ROOT
