@<TRIPOS>MOLECULE
I2E
   23    21     1     0     0
SMALL
bcc


@<TRIPOS>ATOM
      1 C4         -0.9810   -0.3420   -2.1600 c1        1 I2E      0.016600
      2 C5          0.4200   -0.3580   -2.1570 c1        1 I2E     -0.070000
      3 C6          1.1130   -0.3580   -0.9510 c1        1 I2E     -0.070000
      4 C3         -1.6760   -0.3250   -0.9600 c1        1 I2E      0.016600
      5 C2         -0.9770   -0.3240    0.2540 c1        1 I2E     -0.056500
      6 C1          0.4130   -0.3410    0.2560 c1        1 I2E     -0.004100
      7 C7          1.1670   -0.3910    1.5670 c3        1 I2E     -0.071300
      8 C8          1.5820    1.0090    1.9650 c3        1 I2E     -0.193400
      9 C9          2.3030    0.9620    3.2950 c         1 I2E      0.909600
     10 O1          1.6440    0.9130    4.3670 o         1 I2E     -0.847300
     11 C20        -3.2140   -0.3170   -2.6530 c3        1 I2E      0.323200
     12 O2          3.5610    0.9680    3.3300 o         1 I2E     -0.847300
     13 O4         -1.9340   -0.3400   -3.2210 os        1 I2E     -0.329400
     14 O3         -3.0710   -0.3090   -1.2600 os        1 I2E     -0.329400
     15 H5          0.9100   -0.3780   -3.0010 ha        1 I2E      0.085000
     16 H6          2.0890   -0.3670   -0.9490 ha        1 I2E      0.085000
     17 H2         -1.4660   -0.3120    1.0990 ha        1 I2E      0.100500
     18 H71C        1.9630   -0.9510    1.4640 hc        1 I2E      0.061200
     19 H72C        0.5900   -0.7700    2.2600 hc        1 I2E      0.061200
     20 H81C        2.1790    1.3780    1.2830 hc        1 I2E      0.025200
     21 H82C        0.7880    1.5740    2.0440 hc        1 I2E      0.025200
     22 H201       -3.6900    0.4910   -2.9410 h2        1 I2E      0.055200
     23 H202       -3.7140   -1.1130   -2.9300 h2        1 I2E      0.055200
@<TRIPOS>BOND
     1    1    4 3   
     2    1   13 1   
     3    2    3 3   
     4    2   15 1   
     5    3   16 1   
     6    4   14 1   
     7    5    6 3   
     8    5   17 1   
     9    6    7 1   
    10    7    8 1   
    11    7   18 1   
    12    7   19 1   
    13    8    9 1   
    14    8   20 1   
    15    8   21 1   
    16    9   10 1   
    17    9   12 1   
    18   11   13 1   
    19   11   14 1   
    20   11   22 1   
    21   11   23 1   
@<TRIPOS>SUBSTRUCTURE
     1 I2E         1 TEMP              0 ****  ****    0 ROOT
