@<TRIPOS>MOLECULE
I2E
   23    24     1     0     0
SMALL
bcc


@<TRIPOS>ATOM
      1 C4          0.0480   -0.1430    0.0260 ca        1 I2E      0.019100
      2 C5          1.4160    0.0380    0.0660 ca        1 I2E     -0.111000
      3 C6          1.9940    0.1190    1.3420 ca        1 I2E     -0.139000
      4 C3         -0.7250   -0.2370    1.2080 ca        1 I2E      0.045100
      5 C2         -0.1600   -0.1560    2.4640 ca        1 I2E     -0.119000
      6 C1          1.2400    0.0270    2.5180 ca        1 I2E     -0.036300
      7 C7          1.9210    0.1110    3.8400 c3        1 I2E     -0.041100
      8 C8          2.4740    1.4890    4.1290 c3        1 I2E     -0.193400
      9 C9          3.4860    1.4430    5.2920 c         1 I2E      0.908600
     10 O1          3.4690    2.3980    6.1180 o         1 I2E     -0.846800
     11 C20        -2.1290   -0.4280   -0.5750 c3        1 I2E      0.323200
     12 O2          4.2900    0.4680    5.3490 o         1 I2E     -0.846800
     13 O4         -0.7910   -0.2600   -1.0860 os        1 I2E     -0.347900
     14 O3         -2.0680   -0.4170    0.8660 os        1 I2E     -0.344900
     15 H5          2.0190    0.1140   -0.8460 ha        1 I2E      0.140000
     16 H6          3.0830    0.2670    1.4270 ha        1 I2E      0.152000
     17 H2         -0.7610   -0.2250    3.3790 ha        1 I2E      0.152000
     18 H71C        2.7790   -0.6200    3.8670 hc        1 I2E      0.062700
     19 H72C        1.2120   -0.1820    4.6590 hc        1 I2E      0.062700
     20 H81C        1.6490    2.1990    4.3820 hc        1 I2E      0.026200
     21 H82C        3.0100    1.8860    3.2300 hc        1 I2E      0.026200
     22 H201       -2.7530    0.4360   -0.9140 h2        1 I2E      0.055200
     23 H202       -2.5180   -1.4220   -0.9090 h2        1 I2E      0.055200
@<TRIPOS>BOND
     1    1    2 ar  
     2    1    4 ar  
     3    1   13 1   
     4    2    3 ar  
     5    2   15 1   
     6    3    6 ar  
     7    3   16 1   
     8    4    5 ar  
     9    4   14 1   
    10    5    6 ar  
    11    5   17 1   
    12    6    7 1   
    13    7    8 1   
    14    7   18 1   
    15    7   19 1   
    16    8    9 1   
    17    8   20 1   
    18    8   21 1   
    19    9   10 1   
    20    9   12 1   
    21   11   13 1   
    22   11   14 1   
    23   11   22 1   
    24   11   23 1   
@<TRIPOS>SUBSTRUCTURE
     1 I2E         1 TEMP              0 ****  ****    0 ROOT
