@<TRIPOS>MOLECULE
I2E
   23    24     1     0     0
SMALL
bcc


@<TRIPOS>ATOM
      1 C4         -2.4850   -0.6670   -0.0540 ca        1 I2E      0.020100
      2 C5         -1.5980   -1.7170   -0.1780 ca        1 I2E     -0.111000
      3 C6         -0.2480   -1.4240    0.0740 ca        1 I2E     -0.139000
      4 C3         -2.0530    0.6330    0.3030 ca        1 I2E      0.045100
      5 C2         -0.7270    0.9260    0.5500 ca        1 I2E     -0.119000
      6 C1          0.1900   -0.1420    0.4290 ca        1 I2E     -0.036300
      7 C7          1.6360    0.0960    0.6930 c3        1 I2E     -0.041100
      8 C8          2.4860   -0.0080   -0.5540 c3        1 I2E     -0.193400
      9 C9          3.9780   -0.1440   -0.1940 c         1 I2E      0.908600
     10 O1          4.8120    0.4710   -0.9170 o         1 I2E     -0.846800
     11 C20        -4.3110    0.6910    0.0080 c3        1 I2E      0.323200
     12 O2          4.2940   -0.8760    0.7890 o         1 I2E     -0.846800
     13 O4         -3.8700   -0.6600   -0.2390 os        1 I2E     -0.347900
     14 O3         -3.1580    1.4870    0.3520 os        1 I2E     -0.344900
     15 H5         -1.9250   -2.7250   -0.4570 ha        1 I2E      0.140000
     16 H6          0.4990   -2.2290   -0.0150 ha        1 I2E      0.152000
     17 H2         -0.3940    1.9350    0.8230 ha        1 I2E      0.152000
     18 H71C        1.7820    1.1080    1.1560 hc        1 I2E      0.062700
     19 H72C        2.0140   -0.6650    1.4330 hc        1 I2E      0.062700
     20 H81C        2.1960   -0.9150   -1.1430 hc        1 I2E      0.026200
     21 H82C        2.3400    0.8880   -1.2060 hc        1 I2E      0.026200
     22 H201       -4.7600    1.0990   -0.9320 h2        1 I2E      0.055200
     23 H202       -5.0140    0.6850    0.8770 h2        1 I2E      0.055200
@<TRIPOS>BOND
     1    1    2 ar  
     2    1    4 ar  
     3    1   13 1   
     4    2    3 ar  
     5    2   15 1   
     6    3    6 ar  
     7    3   16 1   
     8    4    5 ar  
     9    4   14 1   
    10    5    6 ar  
    11    5   17 1   
    12    6    7 1   
    13    7    8 1   
    14    7   18 1   
    15    7   19 1   
    16    8    9 1   
    17    8   20 1   
    18    8   21 1   
    19    9   10 1   
    20    9   12 1   
    21   11   13 1   
    22   11   14 1   
    23   11   22 1   
    24   11   23 1   
@<TRIPOS>SUBSTRUCTURE
     1 I2E         1 TEMP              0 ****  ****    0 ROOT
