@<TRIPOS>MOLECULE
I2E
   23    24     1     0     0
SMALL
bcc


@<TRIPOS>ATOM
      1 C4          0.0310   -0.1770    0.0410 ca        1 I2E      0.019100
      2 C5          1.4070   -0.0730    0.0810 ca        1 I2E     -0.111000
      3 C6          1.9850    0.0270    1.3560 ca        1 I2E     -0.139000
      4 C3         -0.7500   -0.1780    1.2210 ca        1 I2E      0.045100
      5 C2         -0.1850   -0.0780    2.4760 ca        1 I2E     -0.119000
      6 C1          1.2220    0.0260    2.5310 ca        1 I2E     -0.036300
      7 C7          1.9030    0.1250    3.8520 c3        1 I2E     -0.041100
      8 C8          2.5340    1.4790    4.0870 c3        1 I2E     -0.193400
      9 C9          3.5380    1.4230    5.2560 c         1 I2E      0.908600
     10 O1          3.5750    2.4110    6.0420 o         1 I2E     -0.846800
     11 C20        -2.1570   -0.3600   -0.5600 c3        1 I2E      0.323200
     12 O2          4.2830    0.4060    5.3590 o         1 I2E     -0.846800
     13 O4         -0.8100   -0.2910   -1.0700 os        1 I2E     -0.347900
     14 O3         -2.1000   -0.2940    0.8790 os        1 I2E     -0.344900
     15 H5          2.0160   -0.0690   -0.8300 ha        1 I2E      0.140000
     16 H6          3.0800    0.1150    1.4410 ha        1 I2E      0.152000
     17 H2         -0.7920   -0.0740    3.3900 ha        1 I2E      0.152000
     18 H71C        1.1750   -0.0920    4.6780 hc        1 I2E      0.062700
     19 H72C        2.7170   -0.6520    3.9140 hc        1 I2E      0.062700
     20 H81C        1.7510    2.2460    4.3060 hc        1 I2E      0.026200
     21 H82C        3.0950    1.8070    3.1760 hc        1 I2E      0.026200
     22 H201       -2.6010   -1.3430   -0.8550 h2        1 I2E      0.055200
     23 H202       -2.7290    0.5230   -0.9370 h2        1 I2E      0.055200
@<TRIPOS>BOND
     1    1    2 ar  
     2    1    4 ar  
     3    1   13 1   
     4    2    3 ar  
     5    2   15 1   
     6    3    6 ar  
     7    3   16 1   
     8    4    5 ar  
     9    4   14 1   
    10    5    6 ar  
    11    5   17 1   
    12    6    7 1   
    13    7    8 1   
    14    7   18 1   
    15    7   19 1   
    16    8    9 1   
    17    8   20 1   
    18    8   21 1   
    19    9   10 1   
    20    9   12 1   
    21   11   13 1   
    22   11   14 1   
    23   11   22 1   
    24   11   23 1   
@<TRIPOS>SUBSTRUCTURE
     1 I2E         1 TEMP              0 ****  ****    0 ROOT
