@<TRIPOS>MOLECULE
I2H
   48    51     1     0     0
SMALL
bcc


@<TRIPOS>ATOM
      1 N7          0.4820    0.8960    0.3650 nv        1 I2H     -0.934500
      2 C6          1.7110    0.2790    0.1600 ca        1 I2H      0.717200
      3 N5          2.5480    0.1310    1.2360 nb        1 I2H     -0.819000
      4 C3          3.7040   -0.5990    1.0360 ca        1 I2H      0.898900
      5 N4          4.4980   -0.8620    2.1560 nv        1 I2H     -0.930500
      6 N2          4.1110   -1.1350   -0.1850 nb        1 I2H     -0.779000
      7 C1          3.2740   -0.9420   -1.2110 ca        1 I2H      0.485200
      8 C8          2.0550   -0.2450   -1.1330 ca        1 I2H     -0.423900
      9 C9          1.1770   -0.1420   -2.3210 c3        1 I2H      0.031200
     10 C10         0.8490    1.2500   -2.7620 ca        1 I2H     -0.010300
     11 C21        -0.4930    1.6500   -2.7370 ca        1 I2H     -0.251000
     12 C18        -0.8670    2.9290   -3.1660 ca        1 I2H      0.149100
     13 O19        -2.1630    3.3950   -3.1870 os        1 I2H     -0.305900
     14 C20        -3.1610    2.5120   -2.6850 c3        1 I2H      0.109700
     15 C11         1.8290    2.1280   -3.2440 ca        1 I2H     -0.136800
     16 C12         1.4490    3.4200   -3.6760 ca        1 I2H      0.156100
     17 O13         2.3380    4.2980   -4.2520 os        1 I2H     -0.318900
     18 C15         0.1100    3.8450   -3.6110 ca        1 I2H      0.031100
     19 O16        -0.2380    5.1560   -3.8760 os        1 I2H     -0.313900
     20 C17        -0.3340    5.4500   -5.2710 c3        1 I2H      0.114700
     21 C27         3.2400    1.7980   -3.3250 ce        1 I2H     -0.076200
     22 C28         4.1370    2.7480   -3.6270 c2        1 I2H     -0.207200
     23 C14         3.7320    4.1560   -3.9030 c3        1 I2H      0.211300
     24 C24         4.1000    5.0660   -2.7550 cx        1 I2H     -0.162700
     25 C26         4.1180    6.5570   -2.9720 cx        1 I2H     -0.120400
     26 C25         3.0710    5.9440   -2.0940 cx        1 I2H     -0.120400
     27 H1          0.3560    1.3820    1.2250 hn        1 I2H      0.420800
     28 H2          0.0900    1.3400   -0.4350 hn        1 I2H      0.420800
     29 H3          4.3460   -0.2980    2.9590 hn        1 I2H      0.428300
     30 H4          5.4330   -1.1490    1.9830 hn        1 I2H      0.428300
     31 H5          3.6050   -1.3810   -2.1720 h4        1 I2H      0.020100
     32 H6          0.2200   -0.6960   -2.1030 hc        1 I2H      0.058200
     33 H7          1.6630   -0.6700   -3.1900 hc        1 I2H      0.058200
     34 H8         -1.2590    0.9410   -2.3890 ha        1 I2H      0.144000
     35 H9         -2.9620    2.2560   -1.6160 h1        1 I2H      0.046700
     36 H10        -4.1030    3.1100   -2.7790 h1        1 I2H      0.046700
     37 H11        -3.2170    1.5860   -3.3070 h1        1 I2H      0.046700
     38 H12        -0.5980    6.5360   -5.2930 h1        1 I2H      0.042367
     39 H13        -1.1390    4.8350   -5.7420 h1        1 I2H      0.042367
     40 H14         0.6480    5.2650   -5.7720 h1        1 I2H      0.042367
     41 H15         3.5340    0.7580   -3.1190 ha        1 I2H      0.142000
     42 H17         5.2160    2.5480   -3.6770 ha        1 I2H      0.142000
     43 H19         4.2380    4.5260   -4.8470 h1        1 I2H      0.081700
     44 H20         4.8920    4.6250   -2.1180 hc        1 I2H      0.086700
     45 H21         3.8190    6.9520   -3.9590 hc        1 I2H      0.076950
     46 H22         4.9310    7.1490   -2.5160 hc        1 I2H      0.076950
     47 H23         2.0250    5.9020   -2.4590 hc        1 I2H      0.076950
     48 H24         3.1260    6.0900   -1.0010 hc        1 I2H      0.076950
@<TRIPOS>BOND
     1    1    2 1   
     2    1   27 1   
     3    1   28 1   
     4    2    3 ar  
     5    2    8 ar  
     6    3    4 ar  
     7    4    5 1   
     8    4    6 ar  
     9    5   29 1   
    10    5   30 1   
    11    6    7 ar  
    12    7    8 ar  
    13    7   31 1   
    14    8    9 1   
    15    9   10 1   
    16    9   32 1   
    17    9   33 1   
    18   10   11 ar  
    19   10   15 ar  
    20   11   12 ar  
    21   11   34 1   
    22   12   13 1   
    23   12   18 ar  
    24   13   14 1   
    25   14   35 1   
    26   14   36 1   
    27   14   37 1   
    28   15   16 ar  
    29   15   21 1   
    30   16   17 1   
    31   16   18 ar  
    32   17   23 1   
    33   18   19 1   
    34   19   20 1   
    35   20   38 1   
    36   20   39 1   
    37   20   40 1   
    38   21   22 2   
    39   21   41 1   
    40   22   23 1   
    41   22   42 1   
    42   23   24 1   
    43   23   43 1   
    44   24   25 1   
    45   24   26 1   
    46   24   44 1   
    47   25   26 1   
    48   25   45 1   
    49   25   46 1   
    50   26   47 1   
    51   26   48 1   
@<TRIPOS>SUBSTRUCTURE
     1 I2H         1 TEMP              0 ****  ****    0 ROOT
