@<TRIPOS>MOLECULE
I2H
   50    53     1     0     0
SMALL
bcc


@<TRIPOS>ATOM
      1 N7          2.4910    1.1310   -1.9750 nh        1 I2H     -0.934500
      2 C6          3.3390    0.9870   -0.8820 ca        1 I2H      0.711200
      3 N5          4.6620    0.7120   -1.1090 nb        1 I2H     -0.819000
      4 C3          5.4870    0.6560   -0.0010 ca        1 I2H      0.894900
      5 N4          6.8180    0.2820   -0.2140 nh        1 I2H     -0.927500
      6 N2          5.0810    0.8770    1.3140 nb        1 I2H     -0.779000
      7 C1          3.7770    1.1270    1.4870 ca        1 I2H      0.489200
      8 C8          2.8340    1.1940    0.4480 ca        1 I2H     -0.428900
      9 C9          1.4200    1.5350    0.7240 c3        1 I2H      0.030200
     10 C10         0.4280    0.4660    0.3990 ca        1 I2H     -0.031300
     11 C21         0.8390   -0.8610    0.2520 ca        1 I2H     -0.230000
     12 C18        -0.0930   -1.8650   -0.0340 ca        1 I2H      0.143100
     13 O19         0.2180   -3.2000   -0.1700 os        1 I2H     -0.306900
     14 C20         1.5970   -3.5390   -0.0610 c3        1 I2H      0.109700
     15 C11        -0.9300    0.8050    0.2780 ca        1 I2H     -0.172300
     16 C12        -1.8600   -0.2020   -0.0380 ca        1 I2H      0.143100
     17 O13        -3.2160    0.0200   -0.1590 os        1 I2H     -0.319900
     18 C15        -1.4540   -1.5400   -0.2130 ca        1 I2H      0.036100
     19 O16        -2.3330   -2.5110   -0.6540 os        1 I2H     -0.310900
     20 C17        -3.2470   -2.9560    0.3500 c3        1 I2H      0.114700
     21 C27        -1.3870    2.2060    0.4780 c3        1 I2H     -0.026100
     22 C28        -2.8860    2.2920    0.6670 c3        1 I2H     -0.107400
     23 C14        -3.5960    1.4010   -0.3420 c3        1 I2H      0.172100
     24 C24        -5.0910    1.4820   -0.2010 cx        1 I2H     -0.139700
     25 C26        -5.9720    0.4310   -0.8220 cx        1 I2H     -0.118900
     26 C25        -5.8560    0.5210    0.6690 cx        1 I2H     -0.118900
     27 HN7         2.8250    0.8210   -2.8590 hn        1 I2H      0.422800
     28 HN7A        1.5300    0.9490   -1.7890 hn        1 I2H      0.422800
     29 HN4         7.1660    0.3770   -1.1400 hn        1 I2H      0.426300
     30 HN4A        7.4570    0.4860    0.5190 hn        1 I2H      0.426300
     31 H1          3.4660    1.2920    2.5360 h4        1 I2H      0.023100
     32 H9          1.3030    1.7890    1.8160 hc        1 I2H      0.060200
     33 H9A         1.1570    2.4670    0.1460 hc        1 I2H      0.060200
     34 H21         1.9030   -1.1090    0.3780 ha        1 I2H      0.151000
     35 H20         2.1970   -3.0220   -0.8480 h1        1 I2H      0.047033
     36 H20A        1.9860   -3.2900    0.9560 h1        1 I2H      0.047033
     37 H20B        1.6020   -4.6470   -0.2250 h1        1 I2H      0.047033
     38 H17        -3.8600   -3.7280   -0.1780 h1        1 I2H      0.041033
     39 H17A       -2.6930   -3.4070    1.2080 h1        1 I2H      0.041033
     40 H17B       -3.8850   -2.1050    0.6960 h1        1 I2H      0.041033
     41 H27        -0.8790    2.6470    1.3790 hc        1 I2H      0.052700
     42 H27A       -1.0800    2.8230   -0.4110 hc        1 I2H      0.052700
     43 H28        -3.1630    1.9670    1.7030 hc        1 I2H      0.059200
     44 H28A       -3.2280    3.3500    0.5350 hc        1 I2H      0.059200
     45 H14        -3.3000    1.6920   -1.3910 h1        1 I2H      0.056700
     46 H24        -5.4270    2.5380   -0.2370 hc        1 I2H      0.083700
     47 H26        -6.9090    0.7460   -1.3140 hc        1 I2H      0.076200
     48 H26A       -5.4900   -0.4180   -1.3400 hc        1 I2H      0.076200
     49 H25        -5.2940   -0.2660    1.2050 hc        1 I2H      0.076200
     50 H25A       -6.7080    0.9030    1.2580 hc        1 I2H      0.076200
@<TRIPOS>BOND
     1    1    2 1   
     2    1   27 1   
     3    1   28 1   
     4    2    3 ar  
     5    2    8 ar  
     6    3    4 ar  
     7    4    5 1   
     8    4    6 ar  
     9    5   29 1   
    10    5   30 1   
    11    6    7 ar  
    12    7    8 ar  
    13    7   31 1   
    14    8    9 1   
    15    9   10 1   
    16    9   32 1   
    17    9   33 1   
    18   10   11 ar  
    19   10   15 ar  
    20   11   12 ar  
    21   11   34 1   
    22   12   13 1   
    23   12   18 ar  
    24   13   14 1   
    25   14   35 1   
    26   14   36 1   
    27   14   37 1   
    28   15   16 ar  
    29   15   21 1   
    30   16   17 1   
    31   16   18 ar  
    32   17   23 1   
    33   18   19 1   
    34   19   20 1   
    35   20   38 1   
    36   20   39 1   
    37   20   40 1   
    38   21   22 1   
    39   21   41 1   
    40   21   42 1   
    41   22   23 1   
    42   22   43 1   
    43   22   44 1   
    44   23   24 1   
    45   23   45 1   
    46   24   25 1   
    47   24   26 1   
    48   24   46 1   
    49   25   26 1   
    50   25   47 1   
    51   25   48 1   
    52   26   49 1   
    53   26   50 1   
@<TRIPOS>SUBSTRUCTURE
     1 I2H         1 TEMP              0 ****  ****    0 ROOT
