@<TRIPOS>MOLECULE
I2H
   48    51     1     0     0
SMALL
bcc


@<TRIPOS>ATOM
      1 N7          0.4830    0.8990    0.3680 nh        1 I2H     -0.934500
      2 C6          1.7130    0.2830    0.1650 ca        1 I2H      0.717200
      3 N5          2.5500    0.1390    1.2420 nb        1 I2H     -0.819000
      4 C3          3.7070   -0.5900    1.0440 ca        1 I2H      0.898900
      5 N4          4.5010   -0.8490    2.1640 nh        1 I2H     -0.930500
      6 N2          4.1150   -1.1280   -0.1760 nb        1 I2H     -0.779000
      7 C1          3.2780   -0.9380   -1.2030 ca        1 I2H      0.485200
      8 C8          2.0590   -0.2420   -1.1260 ca        1 I2H     -0.423900
      9 C9          1.1810   -0.1430   -2.3160 c3        1 I2H      0.031200
     10 C10         0.8510    1.2470   -2.7590 ca        1 I2H     -0.010300
     11 C21        -0.4920    1.6460   -2.7350 ca        1 I2H     -0.251000
     12 C18        -0.8680    2.9230   -3.1670 ca        1 I2H      0.149100
     13 O19        -2.1640    3.3870   -3.1900 os        1 I2H     -0.305900
     14 C20        -3.1610    2.5040   -2.6860 c3        1 I2H      0.109700
     15 C11         1.8300    2.1260   -3.2430 ca        1 I2H     -0.136800
     16 C12         1.4480    3.4160   -3.6770 ca        1 I2H      0.156100
     17 O13         2.3360    4.2950   -4.2550 os        1 I2H     -0.318900
     18 C15         0.1090    3.8400   -3.6140 ca        1 I2H      0.031100
     19 O16        -0.2420    5.1490   -3.8810 os        1 I2H     -0.313900
     20 C17        -0.3380    5.4400   -5.2780 c3        1 I2H      0.114700
     21 C27         3.2410    1.7980   -3.3230 ce        1 I2H     -0.076200
     22 C28         4.1370    2.7480   -3.6260 c2        1 I2H     -0.207200
     23 C14         3.7290    4.1560   -3.9060 c3        1 I2H      0.211300
     24 C24         4.0960    5.0680   -2.7600 cx        1 I2H     -0.162700
     25 C26         4.1100    6.5590   -2.9790 cx        1 I2H     -0.120400
     26 C25         3.0650    5.9440   -2.0990 cx        1 I2H     -0.120400
     27 H1          0.3560    1.3870    1.2270 hn        1 I2H      0.420800
     28 H2          0.0910    1.3410   -0.4330 hn        1 I2H      0.420800
     29 H3          5.4360   -1.1350    1.9920 hn        1 I2H      0.428300
     30 H4          4.3480   -0.2840    2.9660 hn        1 I2H      0.428300
     31 H5          3.6110   -1.3790   -2.1630 h4        1 I2H      0.020100
     32 H6          1.6680   -0.6730   -3.1830 hc        1 I2H      0.058200
     33 H7          0.2240   -0.6980   -2.0970 hc        1 I2H      0.058200
     34 H8         -1.2570    0.9360   -2.3870 ha        1 I2H      0.144000
     35 H9         -2.9620    2.2500   -1.6160 h1        1 I2H      0.046700
     36 H10        -4.1040    3.1000   -2.7810 h1        1 I2H      0.046700
     37 H11        -3.2160    1.5760   -3.3060 h1        1 I2H      0.046700
     38 H12        -0.6030    6.5260   -5.3020 h1        1 I2H      0.042367
     39 H13        -1.1420    4.8240   -5.7470 h1        1 I2H      0.042367
     40 H14         0.6440    5.2550   -5.7770 h1        1 I2H      0.042367
     41 H15         3.5370    0.7580   -3.1140 ha        1 I2H      0.142000
     42 H17         5.2160    2.5490   -3.6760 ha        1 I2H      0.142000
     43 H19         4.2360    4.5240   -4.8500 h1        1 I2H      0.081700
     44 H20         4.8910    4.6300   -2.1230 hc        1 I2H      0.086700
     45 H21         3.8090    6.9510   -3.9660 hc        1 I2H      0.076950
     46 H22         4.9210    7.1540   -2.5240 hc        1 I2H      0.076950
     47 H23         3.1220    6.0930   -1.0060 hc        1 I2H      0.076950
     48 H24         2.0200    5.8980   -2.4620 hc        1 I2H      0.076950
@<TRIPOS>BOND
     1    1    2 1   
     2    1   27 1   
     3    1   28 1   
     4    2    3 ar  
     5    2    8 ar  
     6    3    4 ar  
     7    4    5 1   
     8    4    6 ar  
     9    5   29 1   
    10    5   30 1   
    11    6    7 ar  
    12    7    8 ar  
    13    7   31 1   
    14    8    9 1   
    15    9   10 1   
    16    9   32 1   
    17    9   33 1   
    18   10   11 ar  
    19   10   15 ar  
    20   11   12 ar  
    21   11   34 1   
    22   12   13 1   
    23   12   18 ar  
    24   13   14 1   
    25   14   35 1   
    26   14   36 1   
    27   14   37 1   
    28   15   16 ar  
    29   15   21 1   
    30   16   17 1   
    31   16   18 ar  
    32   17   23 1   
    33   18   19 1   
    34   19   20 1   
    35   20   38 1   
    36   20   39 1   
    37   20   40 1   
    38   21   22 2   
    39   21   41 1   
    40   22   23 1   
    41   22   42 1   
    42   23   24 1   
    43   23   43 1   
    44   24   25 1   
    45   24   26 1   
    46   24   44 1   
    47   25   26 1   
    48   25   45 1   
    49   25   46 1   
    50   26   47 1   
    51   26   48 1   
@<TRIPOS>SUBSTRUCTURE
     1 I2H         1 TEMP              0 ****  ****    0 ROOT
