@<TRIPOS>MOLECULE
I2H
   50    53     1     0     0
SMALL
bcc


@<TRIPOS>ATOM
      1 N7          1.5890    1.6250    0.0370 n4        1 I2H     -0.828300
      2 C6          2.1830    0.2770    0.0560 ca        1 I2H      0.500200
      3 N5          2.5660   -0.1960    1.2870 nb        1 I2H     -0.655000
      4 C3          3.1170   -1.4360    1.3000 ca        1 I2H      0.717900
      5 N4          3.5410   -1.9850    2.6190 n4        1 I2H     -0.813300
      6 N2          3.3290   -2.2570    0.2020 nb        1 I2H     -0.606000
      7 C1          2.9430   -1.7610   -0.9720 ca        1 I2H      0.473200
      8 C8          2.3420   -0.4660   -1.1390 ca        1 I2H     -0.153900
      9 C9          1.9640   -0.0620   -2.5160 c3        1 I2H     -0.019800
     10 C10         1.1900    1.2000   -2.6450 ca        1 I2H     -0.168300
     11 C21        -0.2120    1.1210   -2.6610 ca        1 I2H     -0.235000
     12 C18        -0.9860    2.2630   -2.8630 ca        1 I2H      0.137100
     13 O19        -2.3550    2.2830   -2.8560 os        1 I2H     -0.281900
     14 C20        -3.0150    1.0490   -3.1460 c3        1 I2H      0.102700
     15 C11         1.8250    2.4370   -2.8170 ca        1 I2H     -0.129800
     16 C12         1.0400    3.6020   -3.0080 ca        1 I2H      0.070100
     17 O13         1.6160    4.8490   -3.0950 os        1 I2H     -0.313900
     18 C15        -0.3650    3.5370   -3.0380 ca        1 I2H      0.133100
     19 O16        -1.2270    4.5880   -3.1350 os        1 I2H     -0.281900
     20 C17        -0.7690    5.7740   -3.7950 c3        1 I2H      0.113700
     21 C27         3.2690    2.6040   -2.8440 ce        1 I2H     -0.195200
     22 C28         3.8020    3.7620   -3.2640 c2        1 I2H     -0.101200
     23 C14         2.9400    4.9050   -3.6890 c3        1 I2H      0.190300
     24 C24         3.5080    6.2330   -3.2660 cx        1 I2H     -0.162700
     25 C26         4.7490    6.7370   -3.9580 cx        1 I2H     -0.108900
     26 C25         3.4340    7.4040   -4.2120 cx        1 I2H     -0.108900
     27 H1          0.6550    1.5680   -0.4170 hn        1 I2H      0.498800
     28 H2          2.1870    2.2440   -0.5480 hn        1 I2H      0.498800
     29 H3          4.5520   -2.1960    2.5860 hn        1 I2H      0.499467
     30 H4          3.3550   -1.3100    3.3760 hn        1 I2H      0.499467
     31 H5          3.1120   -2.4200   -1.8570 h4        1 I2H      0.110100
     32 H6          2.9100    0.0040   -3.1350 hc        1 I2H      0.124200
     33 H7          1.3640   -0.9080   -2.9700 hc        1 I2H      0.124200
     34 H8         -0.7060    0.1400   -2.5790 ha        1 I2H      0.155000
     35 H9         -2.9150    0.3500   -2.2800 h1        1 I2H      0.062033
     36 H10        -2.6140    0.5890   -4.0800 h1        1 I2H      0.062033
     37 H11        -4.0830    1.3630   -3.2800 h1        1 I2H      0.062033
     38 H12        -0.2560    5.5250   -4.7540 h1        1 I2H      0.067700
     39 H13        -1.7220    6.3360   -3.9770 h1        1 I2H      0.067700
     40 H14        -0.0880    6.3420   -3.1150 h1        1 I2H      0.067700
     41 H15         3.9040    1.7500   -2.5690 ha        1 I2H      0.122000
     42 H17         4.8890    3.9280   -3.3440 ha        1 I2H      0.171000
     43 H19         2.8040    4.8620   -4.8110 h1        1 I2H      0.088700
     44 H20         3.3790    6.4260   -2.1830 hc        1 I2H      0.096700
     45 H21         5.5140    7.2600   -3.3530 hc        1 I2H      0.087700
     46 H22         5.2050    6.1270   -4.7590 hc        1 I2H      0.087700
     47 H23         2.9460    7.2730   -5.1950 hc        1 I2H      0.087700
     48 H24         3.2450    8.4100   -3.7920 hc        1 I2H      0.087700
     49 H73         1.4960    2.0220    0.9820 hn        1 I2H      0.498800
     50 H43         3.0210   -2.8590    2.8020 hn        1 I2H      0.499467
@<TRIPOS>BOND
     1    1    2 1   
     2    1   27 1   
     3    1   28 1   
     4    1   49 1   
     5    2    3 ar  
     6    2    8 ar  
     7    3    4 ar  
     8    4    5 1   
     9    4    6 ar  
    10    5   29 1   
    11    5   30 1   
    12    5   50 1   
    13    6    7 ar  
    14    7    8 ar  
    15    7   31 1   
    16    8    9 1   
    17    9   10 1   
    18    9   32 1   
    19    9   33 1   
    20   10   11 ar  
    21   10   15 ar  
    22   11   12 ar  
    23   11   34 1   
    24   12   13 1   
    25   12   18 ar  
    26   13   14 1   
    27   14   35 1   
    28   14   36 1   
    29   14   37 1   
    30   15   16 ar  
    31   15   21 1   
    32   16   17 1   
    33   16   18 ar  
    34   17   23 1   
    35   18   19 1   
    36   19   20 1   
    37   20   38 1   
    38   20   39 1   
    39   20   40 1   
    40   21   22 2   
    41   21   41 1   
    42   22   23 1   
    43   22   42 1   
    44   23   24 1   
    45   23   43 1   
    46   24   25 1   
    47   24   26 1   
    48   24   44 1   
    49   25   26 1   
    50   25   45 1   
    51   25   46 1   
    52   26   47 1   
    53   26   48 1   
@<TRIPOS>SUBSTRUCTURE
     1 I2H         1 TEMP              0 ****  ****    0 ROOT
