@<TRIPOS>MOLECULE
I2M
   24    23     1     0     0
SMALL
bcc


@<TRIPOS>ATOM
      1 N           0.3710    1.9340    0.6530 n3        1 I2M     -0.892800
      2 CA          0.4050    0.4750    0.6280 c3        1 I2M      0.029500
      3 CB         -0.8220   -0.1400   -0.1010 c3        1 I2M     -0.025000
      4 CG3        -0.8120    0.2520   -1.5710 c3        1 I2M     -0.089600
      5 CG2        -0.7370   -1.6550    0.0240 c3        1 I2M     -0.089600
      6 CG1        -2.1050    0.3590    0.5710 c3        1 I2M     -0.069400
      7 CD1        -3.3580   -0.3230    0.0840 c3        1 I2M     -0.087100
      8 C           1.7420   -0.0760    0.0270 c         1 I2M      0.884600
      9 O           2.2760    0.5700   -0.9210 o         1 I2M     -0.844300
     10 OXT         2.2370   -1.1150    0.5440 o         1 I2M     -0.844300
     11 H           1.2350    2.2450    1.0640 hn        1 I2M      0.329800
     12 H2          0.3780    2.2610   -0.2980 hn        1 I2M      0.329800
     13 HA          0.3570    0.1270    1.7020 h1        1 I2M      0.042700
     14 HG31        0.2290    0.1640   -1.9760 hc        1 I2M      0.033033
     15 HG32       -1.4900   -0.4100   -2.1610 hc        1 I2M      0.033033
     16 HG33       -1.1550    1.3060   -1.7020 hc        1 I2M      0.033033
     17 HG21       -0.8830   -1.9620    1.0870 hc        1 I2M      0.033033
     18 HG22       -1.5210   -2.1450   -0.6020 hc        1 I2M      0.033033
     19 HG23        0.2700   -2.0130   -0.3080 hc        1 I2M      0.033033
     20 HG12       -2.0100    0.2060    1.6780 hc        1 I2M      0.036700
     21 HG13       -2.2040    1.4630    0.3960 hc        1 I2M      0.036700
     22 HD11       -3.4300   -0.2720   -1.0300 hc        1 I2M      0.017700
     23 HD12       -3.3720   -1.3980    0.3870 hc        1 I2M      0.017700
     24 HD13       -4.2610    0.1720    0.5180 hc        1 I2M      0.017700
@<TRIPOS>BOND
     1    1    2 1   
     2    1   11 1   
     3    1   12 1   
     4    2    3 1   
     5    2    8 1   
     6    2   13 1   
     7    3    4 1   
     8    3    5 1   
     9    3    6 1   
    10    4   14 1   
    11    4   15 1   
    12    4   16 1   
    13    5   17 1   
    14    5   18 1   
    15    5   19 1   
    16    6    7 1   
    17    6   20 1   
    18    6   21 1   
    19    7   22 1   
    20    7   23 1   
    21    7   24 1   
    22    8    9 1   
    23    8   10 1   
@<TRIPOS>SUBSTRUCTURE
     1 I2M         1 TEMP              0 ****  ****    0 ROOT
