@<TRIPOS>MOLECULE
I2O
   52    56     1     0     0
SMALL
bcc


@<TRIPOS>ATOM
      1 CAA        -0.1880    0.4920   -0.2060 ca        1 I2O     -0.130000
      2 CAB         1.2080    0.3160   -0.2130 ca        1 I2O      0.022700
      3 CAC         1.9220    0.4270    0.9950 cp        1 I2O     -0.024000
      4 CAD         1.2290    0.6920    2.1840 ca        1 I2O     -0.031000
      5 CAE        -0.1660    0.8460    2.1790 ca        1 I2O     -0.218600
      6 CAF        -0.8750    0.7560    0.9690 ca        1 I2O     -0.096000
      7 CAG         1.8820    0.0260   -1.4990 c3        1 I2O     -0.083800
      8 CAH        -0.8030    1.1450    3.4560 c         1 I2O      0.585700
      9 NAI        -2.2380    0.6350    3.6220 n4        1 I2O     -0.646800
     10 CAJ        -2.3990   -0.1550    4.8520 cx        1 I2O     -0.002500
     11 CAK        -3.6580   -0.9650    5.0870 cx        1 I2O     -0.101900
     12 CAL        -2.3640   -1.6690    4.8210 cx        1 I2O     -0.101900
     13 OAM        -0.3510    1.7360    4.4250 o         1 I2O     -0.420100
     14 CAN         3.3780    0.2740    1.0620 cp        1 I2O     -0.041000
     15 CAO         4.1990    1.0780    0.2490 ca        1 I2O     -0.164000
     16 CAP         5.5790    0.9270    0.3550 ca        1 I2O      0.077600
     17 CAQ         6.1460   -0.0300    1.2670 ca        1 I2O     -0.113300
     18 CAR         5.3240   -0.8070    2.0520 ca        1 I2O     -0.071000
     19 CAS         3.9330   -0.6490    1.9510 ca        1 I2O     -0.151000
     20 NAT         6.5940    1.5990   -0.3320 n         1 I2O     -0.483100
     21 CAU         7.8590    1.1310    0.0930 c         1 I2O      0.703500
     22 CAV         7.6500    0.0250    1.1630 c3        1 I2O     -0.067700
     23 OAW         8.9230    1.5640   -0.3500 o         1 I2O     -0.569500
     24 CAX         8.2710   -1.3000    0.7060 c3        1 I2O     -0.063400
     25 CAY         9.2070   -1.7740    1.8100 c3        1 I2O     -0.080400
     26 CAZ         9.0290   -0.8390    2.9970 c3        1 I2O     -0.080400
     27 CBA         8.3320    0.4110    2.4780 c3        1 I2O     -0.063400
     28 HAA        -0.7410    0.4220   -1.1570 ha        1 I2O      0.163000
     29 HAD         1.7910    0.7860    3.1300 ha        1 I2O      0.170000
     30 HAF        -1.9600    0.9280    0.9190 ha        1 I2O      0.127000
     31 HAG         2.8520   -0.5070   -1.3380 hc        1 I2O      0.073367
     32 HAGA        1.2310   -0.6030   -2.1560 hc        1 I2O      0.073367
     33 HAGB        2.0970    0.9870   -2.0360 hc        1 I2O      0.073367
     34 HNAI       -2.4950    0.0690    2.8070 hn        1 I2O      0.454800
     35 HAJ        -1.9290    0.3810    5.7120 hx        1 I2O      0.159700
     36 HAK        -4.0820   -0.9580    6.1110 hc        1 I2O      0.109950
     37 HAKA       -4.4540   -0.9940    4.3190 hc        1 I2O      0.109950
     38 HAL        -2.2310   -2.2030    3.8610 hc        1 I2O      0.109950
     39 HALA       -1.8340   -2.1820    5.6480 hc        1 I2O      0.109950
     40 HAO         3.7540    1.8070   -0.4430 ha        1 I2O      0.144000
     41 HAR         5.7470   -1.5440    2.7520 ha        1 I2O      0.153000
     42 HAS         3.2770   -1.2700    2.5770 ha        1 I2O      0.132000
     43 HNAT        6.4450    2.3180   -0.9910 hn        1 I2O      0.345500
     44 HAX         8.8370   -1.1520   -0.2490 hc        1 I2O      0.061700
     45 HAXA        7.4680   -2.0560    0.5140 hc        1 I2O      0.061700
     46 HAY        10.2680   -1.7460    1.4510 hc        1 I2O      0.051450
     47 HAYA        8.9800   -2.8300    2.0970 hc        1 I2O      0.051450
     48 HAZ        10.0130   -0.5810    3.4590 hc        1 I2O      0.051450
     49 HAZA        8.4050   -1.3290    3.7870 hc        1 I2O      0.051450
     50 HBA         9.0840    1.2210    2.2870 hc        1 I2O      0.061700
     51 HBAA        7.5890    0.7980    3.2180 hc        1 I2O      0.061700
     52 HAI2       -2.8690    1.4440    3.6770 hn        1 I2O      0.454800
@<TRIPOS>BOND
     1    1    2 ar  
     2    1    6 ar  
     3    1   28 1   
     4    2    3 ar  
     5    2    7 1   
     6    3    4 ar  
     7    3   14 1   
     8    4    5 ar  
     9    4   29 1   
    10    5    6 ar  
    11    5    8 1   
    12    6   30 1   
    13    7   31 1   
    14    7   32 1   
    15    7   33 1   
    16    8    9 1   
    17    8   13 2   
    18    9   10 1   
    19    9   34 1   
    20    9   52 1   
    21   10   11 1   
    22   10   12 1   
    23   10   35 1   
    24   11   12 1   
    25   11   36 1   
    26   11   37 1   
    27   12   38 1   
    28   12   39 1   
    29   14   15 ar  
    30   14   19 ar  
    31   15   16 ar  
    32   15   40 1   
    33   16   17 ar  
    34   16   20 1   
    35   17   18 ar  
    36   17   22 1   
    37   18   19 ar  
    38   18   41 1   
    39   19   42 1   
    40   20   21 1   
    41   20   43 1   
    42   21   22 1   
    43   21   23 2   
    44   22   24 1   
    45   22   27 1   
    46   24   25 1   
    47   24   44 1   
    48   24   45 1   
    49   25   26 1   
    50   25   46 1   
    51   25   47 1   
    52   26   27 1   
    53   26   48 1   
    54   26   49 1   
    55   27   50 1   
    56   27   51 1   
@<TRIPOS>SUBSTRUCTURE
     1 I2O         1 TEMP              0 ****  ****    0 ROOT
