@<TRIPOS>MOLECULE
I2O
   51    55     1     0     0
SMALL
bcc


@<TRIPOS>ATOM
      1 CAA         2.7270   -2.7930   -0.3580 ca        1 I2O     -0.144000
      2 CAB         1.3760   -2.4230   -0.4170 ca        1 I2O     -0.037300
      3 CAC         1.0100   -1.1080   -0.0800 cp        1 I2O     -0.051000
      4 CAD         2.0010   -0.1890    0.2940 ca        1 I2O     -0.063000
      5 CAE         3.3450   -0.5680    0.3350 ca        1 I2O     -0.148600
      6 CAF         3.7070   -1.8800    0.0160 ca        1 I2O     -0.098000
      7 CAG         0.3770   -3.4350   -0.8350 c3        1 I2O     -0.063800
      8 CAH         4.3490    0.4530    0.7540 c         1 I2O      0.678700
      9 NAI         5.5690    0.4360    0.1010 n         1 I2O     -0.542900
     10 CAJ         6.5970    1.3690    0.3880 cx        1 I2O      0.054700
     11 CAK         8.0610    0.9950    0.2560 cx        1 I2O     -0.154400
     12 CAL         7.4550    1.9710   -0.7100 cx        1 I2O     -0.154400
     13 OAM         4.0980    1.2900    1.6440 o         1 I2O     -0.598100
     14 CAN        -0.3830   -0.6510   -0.1080 cp        1 I2O     -0.004000
     15 CAO        -1.3660   -1.3570    0.6110 ca        1 I2O     -0.158000
     16 CAP        -2.6720   -0.8780    0.5830 ca        1 I2O      0.059600
     17 CAQ        -3.0110    0.3000   -0.1620 ca        1 I2O     -0.134300
     18 CAR        -2.0340    0.9790   -0.8590 ca        1 I2O     -0.075000
     19 CAS        -0.7170    0.5000   -0.8270 ca        1 I2O     -0.151000
     20 NAT        -3.8170   -1.4000    1.2060 n         1 I2O     -0.482100
     21 CAU        -4.9320   -0.5900    0.9230 c         1 I2O      0.703500
     22 CAV        -4.4860    0.5730   -0.0070 c3        1 I2O     -0.063700
     23 OAW        -6.0650   -0.8110    1.3610 o         1 I2O     -0.599500
     24 CAX        -5.2490    0.5300   -1.3350 c3        1 I2O     -0.062900
     25 CAY        -5.8960    1.8950   -1.5390 c3        1 I2O     -0.078900
     26 CAZ        -5.3790    2.8150   -0.4430 c3        1 I2O     -0.078900
     27 CBA        -4.7850    1.9270    0.6420 c3        1 I2O     -0.062900
     28 HAA         3.0130   -3.8260   -0.6120 ha        1 I2O      0.137000
     29 HAD         1.7210    0.8410    0.5730 ha        1 I2O      0.160000
     30 HAF         4.7570   -2.2060    0.0740 ha        1 I2O      0.136000
     31 HAG         0.0540   -4.0380    0.0520 hc        1 I2O      0.051700
     32 HAGA       -0.5290   -2.9520   -1.2780 hc        1 I2O      0.051700
     33 HAGB        0.8140   -4.1330   -1.5910 hc        1 I2O      0.051700
     34 HNAI        5.7150   -0.2040   -0.6420 hn        1 I2O      0.310500
     35 HAJ         6.3070    2.0320    1.2380 h1        1 I2O      0.122700
     36 HAK         8.7590    1.3600    1.0300 hc        1 I2O      0.073950
     37 HAKA        8.3440   -0.0070   -0.1100 hc        1 I2O      0.073950
     38 HAL         7.3080    1.6570   -1.7580 hc        1 I2O      0.073950
     39 HALA        7.7140    3.0410   -0.6350 hc        1 I2O      0.073950
     40 HAO        -1.0940   -2.2560    1.1810 ha        1 I2O      0.145000
     41 HAR        -2.2800    1.8850   -1.4320 ha        1 I2O      0.142000
     42 HAS         0.0670    1.0420   -1.3780 ha        1 I2O      0.140000
     43 HNAT       -3.8140   -2.1740    1.8170 hn        1 I2O      0.340500
     44 HAX        -4.5470    0.2960   -2.1740 hc        1 I2O      0.059700
     45 HAXA       -6.0300   -0.2720   -1.3090 hc        1 I2O      0.059700
     46 HAY        -5.6510    2.3030   -2.5500 hc        1 I2O      0.045950
     47 HAYA       -7.0100    1.8040   -1.4750 hc        1 I2O      0.045950
     48 HAZ        -4.5940    3.5010   -0.8510 hc        1 I2O      0.045950
     49 HAZA       -6.2000    3.4510   -0.0290 hc        1 I2O      0.045950
     50 HBA        -5.5220    1.7910    1.4750 hc        1 I2O      0.059700
     51 HBAA       -3.8570    2.3780    1.0700 hc        1 I2O      0.059700
@<TRIPOS>BOND
     1    1    2 ar  
     2    1    6 ar  
     3    1   28 1   
     4    2    3 ar  
     5    2    7 1   
     6    3    4 ar  
     7    3   14 1   
     8    4    5 ar  
     9    4   29 1   
    10    5    6 ar  
    11    5    8 1   
    12    6   30 1   
    13    7   31 1   
    14    7   32 1   
    15    7   33 1   
    16    8    9 1   
    17    8   13 2   
    18    9   10 1   
    19    9   34 1   
    20   10   11 1   
    21   10   12 1   
    22   10   35 1   
    23   11   12 1   
    24   11   36 1   
    25   11   37 1   
    26   12   38 1   
    27   12   39 1   
    28   14   15 ar  
    29   14   19 ar  
    30   15   16 ar  
    31   15   40 1   
    32   16   17 ar  
    33   16   20 1   
    34   17   18 ar  
    35   17   22 1   
    36   18   19 ar  
    37   18   41 1   
    38   19   42 1   
    39   20   21 1   
    40   20   43 1   
    41   21   22 1   
    42   21   23 2   
    43   22   24 1   
    44   22   27 1   
    45   24   25 1   
    46   24   44 1   
    47   24   45 1   
    48   25   26 1   
    49   25   46 1   
    50   25   47 1   
    51   26   27 1   
    52   26   48 1   
    53   26   49 1   
    54   27   50 1   
    55   27   51 1   
@<TRIPOS>SUBSTRUCTURE
     1 I2O         1 TEMP              0 ****  ****    0 ROOT
