@<TRIPOS>MOLECULE
I2O
   52    56     1     0     0
SMALL
bcc


@<TRIPOS>ATOM
      1 CAA        -0.1840    0.4890   -0.2140 ca        1 I2O     -0.130000
      2 CAB         1.2120    0.3110   -0.2180 ca        1 I2O      0.021700
      3 CAC         1.9230    0.4270    0.9910 cp        1 I2O     -0.024000
      4 CAD         1.2280    0.7010    2.1760 ca        1 I2O     -0.031000
      5 CAE        -0.1660    0.8580    2.1680 ca        1 I2O     -0.218600
      6 CAF        -0.8720    0.7620    0.9570 ca        1 I2O     -0.096000
      7 CAG         1.8870    0.0120   -1.5010 c3        1 I2O     -0.083800
      8 CAH        -0.8050    1.1660    3.4420 c         1 I2O      0.585700
      9 NAI        -2.2400    0.6570    3.6090 n4        1 I2O     -0.646800
     10 CAJ        -2.3990   -0.1350    4.8390 cx        1 I2O     -0.002500
     11 CAK        -3.6580   -0.9450    5.0760 cx        1 I2O     -0.101900
     12 CAL        -2.3640   -1.6490    4.8070 cx        1 I2O     -0.101900
     13 OAM        -0.3540    1.7640    4.4080 o         1 I2O     -0.420100
     14 CAN         3.3790    0.2710    1.0620 cp        1 I2O     -0.041000
     15 CAO         4.2030    1.0690    0.2450 ca        1 I2O     -0.164000
     16 CAP         5.5830    0.9150    0.3560 ca        1 I2O      0.077600
     17 CAQ         6.1460   -0.0380    1.2740 ca        1 I2O     -0.113300
     18 CAR         5.3200   -0.8090    2.0620 ca        1 I2O     -0.071000
     19 CAS         3.9300   -0.6480    1.9570 ca        1 I2O     -0.152000
     20 NAT         6.6010    1.5810   -0.3340 n         1 I2O     -0.483100
     21 CAU         7.8640    1.1120    0.0960 c         1 I2O      0.703500
     22 CAV         7.6500    0.0130    1.1720 c3        1 I2O     -0.067700
     23 OAW         8.9300    1.5400   -0.3470 o         1 I2O     -0.569500
     24 CAX         8.2690   -1.3160    0.7250 c3        1 I2O     -0.063400
     25 CAY         9.2010   -1.7860    1.8340 c3        1 I2O     -0.080400
     26 CAZ         9.0220   -0.8430    3.0140 c3        1 I2O     -0.080400
     27 CBA         8.3310    0.4060    2.4870 c3        1 I2O     -0.063400
     28 HAA        -0.7350    0.4150   -1.1670 ha        1 I2O      0.163000
     29 HAD         1.7890    0.7990    3.1230 ha        1 I2O      0.170000
     30 HAF        -1.9580    0.9360    0.9040 ha        1 I2O      0.127000
     31 HAG         1.2360   -0.6190   -2.1560 hc        1 I2O      0.073367
     32 HAGA        2.1060    0.9690   -2.0430 hc        1 I2O      0.073367
     33 HAGB        2.8560   -0.5240   -1.3350 hc        1 I2O      0.073367
     34 HNAI       -2.8700    1.4660    3.6670 hn        1 I2O      0.454800
     35 HAJ        -1.9280    0.4020    5.6980 hx        1 I2O      0.159700
     36 HAK        -4.0800   -0.9390    6.1000 hc        1 I2O      0.109950
     37 HAKA       -4.4540   -0.9740    4.3090 hc        1 I2O      0.109950
     38 HAL        -2.2310   -2.1820    3.8460 hc        1 I2O      0.109950
     39 HALA       -1.8320   -2.1620    5.6330 hc        1 I2O      0.109950
     40 HAO         3.7610    1.7940   -0.4520 ha        1 I2O      0.144000
     41 HAR         5.7410   -1.5420    2.7670 ha        1 I2O      0.153000
     42 HAS         3.2710   -1.2640    2.5860 ha        1 I2O      0.132000
     43 HNAT        6.4550    2.2960   -0.9980 hn        1 I2O      0.345500
     44 HAX         8.8380   -1.1750   -0.2290 hc        1 I2O      0.061700
     45 HAXA        7.4650   -2.0710    0.5350 hc        1 I2O      0.061700
     46 HAY        10.2620   -1.7640    1.4780 hc        1 I2O      0.051450
     47 HAYA        8.9690   -2.8400    2.1270 hc        1 I2O      0.051450
     48 HAZ         8.3950   -1.3270    3.8060 hc        1 I2O      0.051450
     49 HAZA       10.0070   -0.5850    3.4770 hc        1 I2O      0.051450
     50 HBA         9.0850    1.2120    2.2930 hc        1 I2O      0.061700
     51 HBAA        7.5870    0.7990    3.2220 hc        1 I2O      0.061700
     52 HAI2       -2.5000    0.0910    2.7950 hn        1 I2O      0.454800
@<TRIPOS>BOND
     1    1    2 ar  
     2    1    6 ar  
     3    1   28 1   
     4    2    3 ar  
     5    2    7 1   
     6    3    4 ar  
     7    3   14 1   
     8    4    5 ar  
     9    4   29 1   
    10    5    6 ar  
    11    5    8 1   
    12    6   30 1   
    13    7   31 1   
    14    7   32 1   
    15    7   33 1   
    16    8    9 1   
    17    8   13 2   
    18    9   10 1   
    19    9   34 1   
    20    9   52 1   
    21   10   11 1   
    22   10   12 1   
    23   10   35 1   
    24   11   12 1   
    25   11   36 1   
    26   11   37 1   
    27   12   38 1   
    28   12   39 1   
    29   14   15 ar  
    30   14   19 ar  
    31   15   16 ar  
    32   15   40 1   
    33   16   17 ar  
    34   16   20 1   
    35   17   18 ar  
    36   17   22 1   
    37   18   19 ar  
    38   18   41 1   
    39   19   42 1   
    40   20   21 1   
    41   20   43 1   
    42   21   22 1   
    43   21   23 2   
    44   22   24 1   
    45   22   27 1   
    46   24   25 1   
    47   24   44 1   
    48   24   45 1   
    49   25   26 1   
    50   25   46 1   
    51   25   47 1   
    52   26   27 1   
    53   26   48 1   
    54   26   49 1   
    55   27   50 1   
    56   27   51 1   
@<TRIPOS>SUBSTRUCTURE
     1 I2O         1 TEMP              0 ****  ****    0 ROOT
