@<TRIPOS>MOLECULE
I2O
   52    56     1     0     0
SMALL
bcc


@<TRIPOS>ATOM
      1 CAA        -0.1870    0.5310   -0.1960 ca        1 I2O     -0.130000
      2 CAB         1.2080    0.3520   -0.2070 ca        1 I2O      0.021700
      3 CAC         1.9220    0.4430    1.0030 cp        1 I2O     -0.024000
      4 CAD         1.2300    0.6930    2.1950 ca        1 I2O     -0.031000
      5 CAE        -0.1640    0.8510    2.1930 ca        1 I2O     -0.218600
      6 CAF        -0.8730    0.7800    0.9820 ca        1 I2O     -0.096000
      7 CAG         1.8810    0.0790   -1.4960 c3        1 I2O     -0.083800
      8 CAH        -0.8010    1.1340    3.4750 c         1 I2O      0.585700
      9 NAI        -2.2360    0.6240    3.6340 ny        1 I2O     -0.646800
     10 CAJ        -2.3960   -0.1880    4.8500 cx        1 I2O     -0.002500
     11 CAK        -3.6560   -0.9990    5.0740 cx        1 I2O     -0.101900
     12 CAL        -2.3640   -1.7010    4.7920 cx        1 I2O     -0.101900
     13 OAM        -0.3470    1.7100    4.4520 o         1 I2O     -0.420100
     14 CAN         3.3790    0.2860    1.0680 cp        1 I2O     -0.041000
     15 CAO         4.2010    1.0990    0.2660 ca        1 I2O     -0.164000
     16 CAP         5.5810    0.9430    0.3700 ca        1 I2O      0.077600
     17 CAQ         6.1460   -0.0290    1.2670 ca        1 I2O     -0.113300
     18 CAR         5.3210   -0.8150    2.0410 ca        1 I2O     -0.071000
     19 CAS         3.9310   -0.6510    1.9430 ca        1 I2O     -0.152000
     20 NAT         6.5980    1.6220   -0.3080 ns        1 I2O     -0.483100
     21 CAU         7.8610    1.1440    0.1100 c         1 I2O      0.703500
     22 CAV         7.6490    0.0240    1.1630 c3        1 I2O     -0.067700
     23 OAW         8.9260    1.5810   -0.3270 o         1 I2O     -0.569500
     24 CAX         8.2670   -1.2960    0.6870 c3        1 I2O     -0.063400
     25 CAY         9.2020   -1.7880    1.7840 c3        1 I2O     -0.080400
     26 CAZ         9.0260   -0.8700    2.9840 c3        1 I2O     -0.080400
     27 CBA         8.3330    0.3890    2.4850 c3        1 I2O     -0.063400
     28 HAA        -0.7410    0.4770   -1.1490 ha        1 I2O      0.163000
     29 HAD         1.7920    0.7720    3.1430 ha        1 I2O      0.170000
     30 HAF        -1.9580    0.9560    0.9350 ha        1 I2O      0.127000
     31 HAG         1.2280   -0.5380   -2.1630 hc        1 I2O      0.073367
     32 HAGA        2.8490   -0.4600   -1.3440 hc        1 I2O      0.073367
     33 HAGB        2.0990    1.0460   -2.0200 hc        1 I2O      0.073367
     34 HNAI       -2.8650    1.4330    3.7050 hn        1 I2O      0.454800
     35 HAJ        -1.9230    0.3330    5.7180 hx        1 I2O      0.159700
     36 HAK        -4.4540   -1.0130    4.3070 hc        1 I2O      0.109950
     37 HAKA       -4.0780   -1.0090    6.0990 hc        1 I2O      0.109950
     38 HAL        -2.2340   -2.2190    3.8230 hc        1 I2O      0.109950
     39 HALA       -1.8340   -2.2290    5.6090 hc        1 I2O      0.109950
     40 HAO         3.7580    1.8390   -0.4150 ha        1 I2O      0.144000
     41 HAR         5.7430   -1.5630    2.7300 ha        1 I2O      0.153000
     42 HAS         3.2730   -1.2800    2.5600 ha        1 I2O      0.132000
     43 HNAT        6.4500    2.3510   -0.9570 hn        1 I2O      0.345500
     44 HAX         7.4620   -2.0470    0.4850 hc        1 I2O      0.061700
     45 HAXA        8.8330   -1.1360   -0.2660 hc        1 I2O      0.061700
     46 HAY         8.9710   -2.8480    2.0560 hc        1 I2O      0.051450
     47 HAYA       10.2620   -1.7590    1.4250 hc        1 I2O      0.051450
     48 HAZ         8.4010   -1.3700    3.7680 hc        1 I2O      0.051450
     49 HAZA       10.0120   -0.6220    3.4500 hc        1 I2O      0.051450
     50 HBA         9.0880    1.1990    2.3050 hc        1 I2O      0.061700
     51 HBAA        7.5910    0.7670    3.2290 hc        1 I2O      0.061700
     52 HAI2       -2.4960    0.0720    2.8100 hn        1 I2O      0.454800
@<TRIPOS>BOND
     1    1    2 ar  
     2    1    6 ar  
     3    1   28 1   
     4    2    3 ar  
     5    2    7 1   
     6    3    4 ar  
     7    3   14 1   
     8    4    5 ar  
     9    4   29 1   
    10    5    6 ar  
    11    5    8 1   
    12    6   30 1   
    13    7   31 1   
    14    7   32 1   
    15    7   33 1   
    16    8    9 1   
    17    8   13 2   
    18    9   10 1   
    19    9   34 1   
    20    9   52 1   
    21   10   11 1   
    22   10   12 1   
    23   10   35 1   
    24   11   12 1   
    25   11   36 1   
    26   11   37 1   
    27   12   38 1   
    28   12   39 1   
    29   14   15 ar  
    30   14   19 ar  
    31   15   16 ar  
    32   15   40 1   
    33   16   17 ar  
    34   16   20 1   
    35   17   18 ar  
    36   17   22 1   
    37   18   19 ar  
    38   18   41 1   
    39   19   42 1   
    40   20   21 1   
    41   20   43 1   
    42   21   22 1   
    43   21   23 2   
    44   22   24 1   
    45   22   27 1   
    46   24   25 1   
    47   24   44 1   
    48   24   45 1   
    49   25   26 1   
    50   25   46 1   
    51   25   47 1   
    52   26   27 1   
    53   26   48 1   
    54   26   49 1   
    55   27   50 1   
    56   27   51 1   
@<TRIPOS>SUBSTRUCTURE
     1 I2O         1 TEMP              0 ****  ****    0 ROOT
