@<TRIPOS>MOLECULE
I2P
   33    33     1     0     0
SMALL
bcc


@<TRIPOS>ATOM
      1 C1          1.8090   -0.2740   -1.2590 c3        1 I2P      0.122100
      2 C2          0.4130   -0.7110   -1.7790 c3        1 I2P      0.172100
      3 C3         -0.7270   -0.0030   -0.9780 c3        1 I2P      0.094100
      4 C4         -0.6610    0.1380    0.6030 c3        1 I2P      0.232100
      5 C5          0.8180   -0.1350    1.0890 c3        1 I2P      0.206100
      6 C6          1.6970    0.5920    0.0080 c3        1 I2P      0.111100
      7 O1          2.5580    0.4580   -2.2230 oh        1 I2P     -0.668800
      8 O2          0.2590   -0.4060   -3.1330 os        1 I2P     -0.624200
      9 O3         -0.8840    1.3340   -1.4690 oh        1 I2P     -0.647800
     10 O4         -1.6120   -0.6840    1.1780 os        1 I2P     -0.580200
     11 O5          1.1020    0.3790    2.3460 os        1 I2P     -0.594200
     12 O6          3.0100    0.9440    0.4130 oh        1 I2P     -0.691800
     13 P2          0.5790   -1.4440   -4.4500 p5        1 I2P      1.350900
     14 O21         0.4210   -2.8820   -4.0280 o         1 I2P     -0.958833
     15 O22        -0.4070   -1.0100   -5.5170 o         1 I2P     -0.958833
     16 O23         2.0030   -1.0600   -4.8080 o         1 I2P     -0.958833
     17 P4         -3.1790   -0.1130    1.6240 p5        1 I2P      1.349900
     18 O41        -4.0730   -0.4600    0.4490 o         1 I2P     -0.963833
     19 O42        -3.5750   -0.9280    2.8410 o         1 I2P     -0.963833
     20 O43        -3.1240    1.3760    1.8880 o         1 I2P     -0.963833
     21 P5          2.1110   -0.3810    3.5080 p5        1 I2P      1.352900
     22 O51         3.4580    0.2590    3.1900 o         1 I2P     -0.958167
     23 O52         1.6360    0.0580    4.8770 o         1 I2P     -0.958167
     24 O53         2.1340   -1.8750    3.3030 o         1 I2P     -0.958167
     25 H1          2.4070   -1.1990   -1.0120 h1        1 I2P     -0.002300
     26 H2          0.3130   -1.8240   -1.6410 h1        1 I2P      0.031700
     27 H3         -1.6700   -0.5670   -1.2320 h1        1 I2P      0.044700
     28 H4         -0.9120    1.2120    0.8480 h1        1 I2P      0.041700
     29 H5          1.0300   -1.2390    1.0830 h1        1 I2P      0.030700
     30 H6          1.1950    1.5650   -0.2680 h1        1 I2P      0.030700
     31 HO1         2.2890    0.1160   -3.1000 ho        1 I2P      0.438000
     32 HO3        -0.7080    1.2970   -2.4170 ho        1 I2P      0.389000
     33 HO6         3.0920    0.7180    1.3650 ho        1 I2P      0.458000
@<TRIPOS>BOND
     1    1    2 1   
     2    1    6 1   
     3    1    7 1   
     4    1   25 1   
     5    2    3 1   
     6    2    8 1   
     7    2   26 1   
     8    3    4 1   
     9    3    9 1   
    10    3   27 1   
    11    4    5 1   
    12    4   10 1   
    13    4   28 1   
    14    5    6 1   
    15    5   11 1   
    16    5   29 1   
    17    6   12 1   
    18    6   30 1   
    19    7   31 1   
    20    8   13 1   
    21    9   32 1   
    22   10   17 1   
    23   11   21 1   
    24   12   33 1   
    25   13   14 1   
    26   13   15 1   
    27   13   16 1   
    28   17   18 1   
    29   17   19 1   
    30   17   20 1   
    31   21   22 1   
    32   21   23 1   
    33   21   24 1   
@<TRIPOS>SUBSTRUCTURE
     1 I2P         1 TEMP              0 ****  ****    0 ROOT
