@<TRIPOS>MOLECULE
I2P
   33    33     1     0     0
SMALL
bcc


@<TRIPOS>ATOM
      1 C1         -0.9980    0.8820   -1.4480 c3        1 I2P      0.121100
      2 C2          0.5160    1.0110   -1.3860 c3        1 I2P      0.219100
      3 C3          1.0370    1.0530    0.0430 c3        1 I2P      0.109100
      4 C4          0.5170   -0.1020    0.8870 c3        1 I2P      0.198100
      5 C5         -0.9980   -0.2310    0.8240 c3        1 I2P      0.210100
      6 C6         -1.5190   -0.2740   -0.6030 c3        1 I2P      0.117100
      7 O1         -1.3850    0.6750   -2.7950 oh        1 I2P     -0.672800
      8 O2          1.0970   -0.0950   -2.0530 os        1 I2P     -0.590200
      9 O3          2.4530    0.9980    0.0150 oh        1 I2P     -0.652800
     10 O4          0.9030    0.1050    2.2330 os        1 I2P     -0.580200
     11 O5         -1.3830   -1.4220    1.4880 os        1 I2P     -0.587200
     12 O6         -2.9340   -0.2190   -0.5760 oh        1 I2P     -0.697800
     13 P2          1.9450    0.1730   -3.3590 p5        1 I2P      1.343900
     14 O21         2.3030   -1.1430   -4.0070 o         1 I2P     -0.963167
     15 O22         3.2090    0.9150   -2.9950 o         1 I2P     -0.963167
     16 O23         1.1340    1.0050   -4.3240 o         1 I2P     -0.963167
     17 P4          1.9730   -0.8700    2.8670 p5        1 I2P      1.348900
     18 O41         1.8400   -2.2390    2.2420 o         1 I2P     -0.962167
     19 O42         3.3600   -0.3320    2.6100 o         1 I2P     -0.962167
     20 O43         1.7410   -0.9720    4.3560 o         1 I2P     -0.962167
     21 P5         -2.4340   -1.3220    2.6640 p5        1 I2P      1.350900
     22 O51        -2.1970   -2.4440    3.6470 o         1 I2P     -0.958167
     23 O52        -2.2770    0.0050    3.3680 o         1 I2P     -0.958167
     24 O53        -3.8310   -1.4320    2.1020 o         1 I2P     -0.958167
     25 H1         -1.4000    1.7140   -1.1270 h1        1 I2P     -0.002300
     26 H2          0.7820    1.8320   -1.8440 h1        1 I2P      0.013700
     27 H3          0.7610    1.8950    0.4550 h1        1 I2P      0.006700
     28 H4          0.9180   -0.9340    0.5660 h1        1 I2P      0.008700
     29 H5         -1.3990    0.5320    1.2850 h1        1 I2P      0.029700
     30 H6         -1.2430   -1.1160   -1.0160 h1        1 I2P      0.019700
     31 HO1        -2.0110    1.2660   -3.0170 ho        1 I2P      0.441000
     32 HO3         2.7830    1.8170    0.1190 ho        1 I2P      0.436000
     33 HO6        -3.2640   -0.7330   -1.2220 ho        1 I2P      0.460000
@<TRIPOS>BOND
     1    1    2 1   
     2    1    6 1   
     3    1    7 1   
     4    1   25 1   
     5    2    3 1   
     6    2    8 1   
     7    2   26 1   
     8    3    4 1   
     9    3    9 1   
    10    3   27 1   
    11    4    5 1   
    12    4   10 1   
    13    4   28 1   
    14    5    6 1   
    15    5   11 1   
    16    5   29 1   
    17    6   12 1   
    18    6   30 1   
    19    7   31 1   
    20    8   13 1   
    21    9   32 1   
    22   10   17 1   
    23   11   21 1   
    24   12   33 1   
    25   13   14 1   
    26   13   15 1   
    27   13   16 1   
    28   17   18 1   
    29   17   19 1   
    30   17   20 1   
    31   21   22 1   
    32   21   23 1   
    33   21   24 1   
@<TRIPOS>SUBSTRUCTURE
     1 I2P         1 TEMP              0 ****  ****    0 ROOT
