@<TRIPOS>MOLECULE
I2P
   33    33     1     0     0
SMALL
bcc


@<TRIPOS>ATOM
      1 C1          0.1260   -0.6760   -0.2100 c3        1 I2P      0.121100
      2 C2          1.5760   -0.1750    0.0420 c3        1 I2P      0.219100
      3 C3          2.3230   -0.9630    1.1620 c3        1 I2P      0.109100
      4 C4          1.5320   -1.6970    2.3290 c3        1 I2P      0.198100
      5 C5          0.0370   -1.2120    2.3000 c3        1 I2P      0.210100
      6 C6         -0.4140   -1.6430    0.8560 c3        1 I2P      0.117100
      7 O1         -0.0130   -1.3080   -1.4800 oh        1 I2P     -0.672800
      8 O2          2.3080   -0.1590   -1.1410 os        1 I2P     -0.590200
      9 O3          3.1690   -1.9300    0.5540 oh        1 I2P     -0.652800
     10 O4          2.2090   -1.5100    3.5240 os        1 I2P     -0.580200
     11 O5         -0.7980   -1.7880    3.2440 os        1 I2P     -0.587200
     12 O6         -1.8180   -1.7440    0.6710 oh        1 I2P     -0.697800
     13 P2          2.4340    1.1800   -2.1870 p5        1 I2P      1.343900
     14 O21         2.2120    2.4540   -1.4060 o         1 I2P     -0.963167
     15 O22         3.8180    1.1100   -2.8060 o         1 I2P     -0.963167
     16 O23         1.3490    0.8740   -3.2040 o         1 I2P     -0.963167
     17 P4          3.3430   -2.6650    4.0910 p5        1 I2P      1.348900
     18 O41         4.4580   -2.6340    3.0590 o         1 I2P     -0.962167
     19 O42         3.8020   -2.1190    5.4310 o         1 I2P     -0.962167
     20 O43         2.7240   -4.0410    4.1870 o         1 I2P     -0.962167
     21 P5         -2.0310   -0.9370    4.0760 p5        1 I2P      1.350900
     22 O51        -3.2120   -1.1220    3.1320 o         1 I2P     -0.958167
     23 O52        -2.2770   -1.6690    5.3800 o         1 I2P     -0.958167
     24 O53        -1.6550    0.5130    4.2510 o         1 I2P     -0.958167
     25 H1         -0.5510    0.2310   -0.2230 h1        1 I2P     -0.002300
     26 H2          1.4820    0.8920    0.4120 h1        1 I2P      0.013700
     27 H3          2.9780   -0.1920    1.6680 h1        1 I2P      0.006700
     28 H4          1.5370   -2.8060    2.1000 h1        1 I2P      0.008700
     29 H5         -0.0070   -0.0930    2.4010 h1        1 I2P      0.029700
     30 H6         -0.0100   -2.6740    0.6400 h1        1 I2P      0.019700
     31 HO1         0.5870   -0.8240   -2.0830 ho        1 I2P      0.441000
     32 HO3         3.6950   -2.2950    1.2950 ho        1 I2P      0.436000
     33 HO6        -2.2410   -1.5660    1.5390 ho        1 I2P      0.460000
@<TRIPOS>BOND
     1    1    2 1   
     2    1    6 1   
     3    1    7 1   
     4    1   25 1   
     5    2    3 1   
     6    2    8 1   
     7    2   26 1   
     8    3    4 1   
     9    3    9 1   
    10    3   27 1   
    11    4    5 1   
    12    4   10 1   
    13    4   28 1   
    14    5    6 1   
    15    5   11 1   
    16    5   29 1   
    17    6   12 1   
    18    6   30 1   
    19    7   31 1   
    20    8   13 1   
    21    9   32 1   
    22   10   17 1   
    23   11   21 1   
    24   12   33 1   
    25   13   14 1   
    26   13   15 1   
    27   13   16 1   
    28   17   18 1   
    29   17   19 1   
    30   17   20 1   
    31   21   22 1   
    32   21   23 1   
    33   21   24 1   
@<TRIPOS>SUBSTRUCTURE
     1 I2P         1 TEMP              0 ****  ****    0 ROOT
