@<TRIPOS>MOLECULE
I30
   37    37     1     0     0
SMALL
bcc


@<TRIPOS>ATOM
      1 CAA         0.0610    0.9080    0.0990 c3        1 I30     -0.232000
      2 OAB         3.2620   -0.1480   -3.3980 o         1 I30     -0.305000
      3 BrAD       -2.2870   -0.0990   -6.0590 br        1 I30      0.103000
      4 CAE         5.6880   -0.0130    4.2770 c2        1 I30     -0.101000
      5 CAF         1.5020    0.6910    5.5440 c1        1 I30      0.339000
      6 CAG         0.0480   -0.7450   -7.5340 c2        1 I30     -0.099000
      7 CAH         1.2390    1.1770   -6.9000 c1        1 I30      0.256000
      8 CAI         5.1520   -0.6090    3.2060 c2        1 I30     -0.189000
      9 CAJ         2.4930    0.1520    4.8460 c2        1 I30     -0.466000
     10 CAK         0.2350   -0.8230   -5.0720 c2        1 I30     -0.083000
     11 NAL         1.7950   -0.4140   -1.0830 n7        1 I30     -0.125000
     12 NAM         3.4980   -0.3090    1.3670 na        1 I30     -0.143000
     13 NAN         1.2240   -0.1680   -2.2940 ns        1 I30     -0.291000
     14 NAO         1.6080    0.2960    2.5320 n2        1 I30     -0.035000
     15 CAP         1.3710    0.1970    0.0550 c2        1 I30      0.277000
     16 CAQ         2.0270   -0.1450   -3.4810 c2        1 I30      0.361000
     17 CAR        -0.4980   -0.6030   -6.3140 c2        1 I30     -0.218000
     18 CAS         1.6920    1.0670   -5.6320 c2        1 I30     -0.241000
     19 CAT         1.2590   -0.0090   -4.7410 c2        1 I30     -0.088000
     20 CAU         2.1320    0.0740    1.2620 c2        1 I30     -0.183000
     21 CAV         3.8360   -0.2970    2.6980 c2        1 I30      0.076000
     22 CAW         2.6180    0.0700    3.4180 c2        1 I30      0.007000
     23 HAA        -0.7770    0.1870   -0.0980 hc        1 I30      0.150333
     24 HAAA        0.0300    1.7110   -0.6870 hc        1 I30      0.150333
     25 HAAB       -0.1210    1.3890    1.0940 hc        1 I30      0.150333
     26 HOAC        3.4030    1.6440   -5.0300 ho        1 I30      0.227000
     27 HAE         5.1820    0.7830    4.8440 ha        1 I30      0.145500
     28 HAF         6.6910   -0.2860    4.6410 ha        1 I30      0.145500
     29 HAG         1.0740   -1.1250   -7.6800 ha        1 I30      0.158500
     30 HAH        -0.5100   -0.5450   -8.4620 ha        1 I30      0.158500
     31 HAI         5.7110   -1.3860    2.6520 ha        1 I30      0.158000
     32 HAJ         3.3230   -0.3110    5.4270 ha        1 I30      0.209000
     33 HAK        -0.1010   -1.6620   -4.4420 ha        1 I30      0.157000
     34 HNAM        4.1290   -0.4620    0.6180 hn        1 I30      0.275000
     35 HNAN        2.7370   -0.7810   -1.1440 hn        1 I30      0.270000
     36 HAN2        0.2930   -0.5460   -2.3720 hn        1 I30      0.257000
     37 OAC         2.5190    2.0450   -5.0960 oh        1 I30     -0.233000
@<TRIPOS>BOND
     1    1   15 1   
     2    1   23 1   
     3    1   24 1   
     4    1   25 1   
     5    2   16 1   
     6    3   17 1   
     7    4    8 1   
     8    4   27 1   
     9    4   28 1   
    10    5    9 1   
    11    6   17 1   
    12    6   29 1   
    13    6   30 1   
    14    7   18 1   
    15    8   21 1   
    16    8   31 1   
    17    9   22 1   
    18    9   32 1   
    19   10   17 1   
    20   10   19 1   
    21   10   33 1   
    22   11   13 1   
    23   11   15 1   
    24   11   35 1   
    25   12   20 1   
    26   12   21 1   
    27   12   34 1   
    28   13   16 1   
    29   13   36 1   
    30   14   20 1   
    31   14   22 1   
    32   15   20 1   
    33   16   19 1   
    34   18   19 1   
    35   18   37 1   
    36   21   22 1   
    37   26   37 1   
@<TRIPOS>SUBSTRUCTURE
     1 I30         1 TEMP              0 ****  ****    0 ROOT
