@<TRIPOS>MOLECULE
I30
   37    38     1     0     0
SMALL
bcc


@<TRIPOS>ATOM
      1 CAA         0.1270    0.9670    0.0470 c3        1 I30     -0.228000
      2 OAB         3.2200   -0.0420   -3.4120 o         1 I30     -0.313000
      3 BRAD       -2.3200   -0.2740   -6.0820 br        1 I30      0.102000
      4 CAE         4.4870   -0.1120    4.8940 c3        1 I30     -0.079000
      5 CAF         2.2920    0.8440    5.7020 c1        1 I30      0.367000
      6 CAG         0.0500   -0.7430   -7.5660 c2        1 I30     -0.100000
      7 CAH         1.1230    1.2310   -6.8840 c1        1 I30      0.253000
      8 CAI         5.0260   -0.5470    3.5060 c3        1 I30     -0.119000
      9 CAJ         3.0630    0.3890    4.7170 c2        1 I30     -0.406000
     10 CAK         0.2400   -0.8690   -5.1070 c2        1 I30     -0.084000
     11 NAL         1.7790   -0.4840   -1.1070 n3        1 I30     -0.141000
     12 NAM         3.5420   -0.3820    1.2970 na        1 I30     -0.100000
     13 NAN         1.1920   -0.2420   -2.3120 n         1 I30     -0.292000
     14 NAO         1.7200    0.5190    2.4750 n2        1 I30      0.003000
     15 CAP         1.4130    0.2090    0.0160 c2        1 I30      0.273000
     16 CAQ         1.9870   -0.1240   -3.4950 c2        1 I30      0.358000
     17 CAR        -0.5040   -0.6630   -6.3450 c2        1 I30     -0.216000
     18 CAS         1.5810    1.1180   -5.6170 c2        1 I30     -0.240000
     19 CAT         1.2130   -0.0030   -4.7540 c2        1 I30     -0.088000
     20 CAU         2.1910    0.1240    1.2010 c2        1 I30     -0.206000
     21 CAV         3.8950   -0.2860    2.5900 c2        1 I30      0.025000
     22 CAW         2.7330    0.2750    3.3160 c2        1 I30     -0.009000
     23 HAA        -0.7350    0.2750   -0.1460 hc        1 I30      0.149000
     24 HAAA        0.1320    1.7560   -0.7530 hc        1 I30      0.149000
     25 HAAB       -0.0440    1.4720    1.0310 hc        1 I30      0.149000
     26 HOAC        3.2500    1.7770   -4.9840 ho        1 I30      0.227000
     27 HAE         5.9310    0.0520    3.2220 hc        1 I30      0.141500
     28 HAF         4.5040   -0.9820    5.5980 hc        1 I30      0.123500
     29 HAG         1.0970   -1.0570   -7.7200 ha        1 I30      0.158500
     30 HAH        -0.5190   -0.5540   -8.4900 ha        1 I30      0.158500
     31 HAI         5.3110   -1.6310    3.5090 hc        1 I30      0.141500
     32 HAJ         5.1310    0.7030    5.3130 hc        1 I30      0.123500
     33 HAK        -0.0450   -1.7420   -4.4980 ha        1 I30      0.156000
     34 HNAM        4.1090   -0.6780    0.5400 hn        1 I30      0.281000
     35 HNAN        2.7240   -0.8370   -1.1860 hn        1 I30      0.257000
     36 HAN2        0.2920   -0.6870   -2.4000 hn        1 I30      0.258000
     37 OAC         2.3470    2.1310   -5.0590 oh        1 I30     -0.234000
@<TRIPOS>BOND
     1    1   15 1   
     2    1   23 1   
     3    1   24 1   
     4    1   25 1   
     5    2   16 1   
     6    3   17 1   
     7    4    8 1   
     8    4    9 1   
     9    4   28 1   
    10    4   32 1   
    11    5    9 1   
    12    6   17 1   
    13    6   29 1   
    14    6   30 1   
    15    7   18 1   
    16    8   21 1   
    17    8   27 1   
    18    8   31 1   
    19    9   22 1   
    20   10   17 1   
    21   10   19 1   
    22   10   33 1   
    23   11   13 1   
    24   11   15 1   
    25   11   35 1   
    26   12   20 1   
    27   12   21 1   
    28   12   34 1   
    29   13   16 1   
    30   13   36 1   
    31   14   20 1   
    32   14   22 1   
    33   15   20 1   
    34   16   19 1   
    35   18   19 1   
    36   18   37 1   
    37   21   22 1   
    38   26   37 1   
@<TRIPOS>SUBSTRUCTURE
     1 I30         1 TEMP              0 ****  ****    0 ROOT
