@<TRIPOS>MOLECULE
I30
   36    38     1     0     0
SMALL
bcc


@<TRIPOS>ATOM
      1 CAA        -1.5230    2.0320   -0.7780 c3        1 I30     -0.157400
      2 OAB         0.3100   -2.6150    0.5490 o         1 I30     -0.568100
      3 BRAD        5.0670    1.5410    1.4420 br        1 I30     -0.072100
      4 CAE        -7.8140   -0.6100    0.3530 ca        1 I30     -0.110000
      5 CAF        -7.9590    0.7760    0.1420 ca        1 I30     -0.154000
      6 CAG         5.0950   -1.0100    0.1850 ca        1 I30     -0.044000
      7 CAH         4.5270   -2.1710   -0.3110 ca        1 I30     -0.171000
      8 CAI        -6.5720   -1.2220    0.3580 ca        1 I30     -0.133000
      9 CAJ        -6.8690    1.6020   -0.0710 ca        1 I30     -0.068000
     10 CAK         2.9050   -0.1750    0.7890 ca        1 I30     -0.041000
     11 NAL        -1.2500   -0.3490    0.0580 n2        1 I30     -0.445300
     12 NAM        -4.0860   -0.6750    0.0800 na        1 I30     -0.252300
     13 NAN         0.0770   -0.3570    0.0110 n         1 I30     -0.323900
     14 NAO        -4.3170    1.5930   -0.2570 nc        1 I30     -0.560100
     15 CAP        -1.9700    0.6950   -0.2850 cf        1 I30      0.326000
     16 CAQ         0.8300   -1.5120    0.3060 c         1 I30      0.708700
     17 CAR         4.2860   -0.0100    0.7480 ca        1 I30     -0.077900
     18 CAS         3.1270   -2.3490   -0.2590 ca        1 I30      0.210100
     19 CAT         2.3070   -1.3320    0.2690 ca        1 I30     -0.246600
     20 CAU        -3.4430    0.5620   -0.1570 cd        1 I30      0.374500
     21 CAV        -5.4510   -0.4060    0.1460 ca        1 I30     -0.071200
     22 CAW        -5.5880    1.0250   -0.0730 ca        1 I30      0.062400
     23 HAA        -2.0830    2.2940   -1.7120 hc        1 I30      0.062700
     24 HAAA       -1.7540    2.8080   -0.0050 hc        1 I30      0.062700
     25 HAAB       -0.4320    2.0780   -1.0110 hc        1 I30      0.062700
     26 HOAC        1.7320   -3.6460   -0.5550 ho        1 I30      0.459000
     27 HAE        -8.7160   -1.2180    0.5170 ha        1 I30      0.133000
     28 HAF        -8.9720    1.2070    0.1480 ha        1 I30      0.133000
     29 HAG         6.1890   -0.8800    0.1440 ha        1 I30      0.156000
     30 HAH         5.1470   -2.9700   -0.7440 ha        1 I30      0.165000
     31 HAI        -6.4650   -2.3020    0.5230 ha        1 I30      0.138000
     32 HAJ        -6.9900    2.6820   -0.2350 ha        1 I30      0.147000
     33 HAK         2.2780    0.6030    1.2570 ha        1 I30      0.151000
     34 HNAM       -3.6450   -1.5450    0.2330 hn        1 I30      0.323700
     35 HNAN        0.5890    0.4650   -0.2550 hn        1 I30      0.310500
     36 OAC         2.6750   -3.5310   -0.7680 oh        1 I30     -0.491100
@<TRIPOS>BOND
     1    1   15 1   
     2    1   23 1   
     3    1   24 1   
     4    1   25 1   
     5    2   16 2   
     6    3   17 1   
     7    4    5 ar  
     8    4    8 ar  
     9    4   27 1   
    10    5    9 ar  
    11    5   28 1   
    12    6    7 ar  
    13    6   17 ar  
    14    6   29 1   
    15    7   18 ar  
    16    7   30 1   
    17    8   21 ar  
    18    8   31 1   
    19    9   22 ar  
    20    9   32 1   
    21   10   17 ar  
    22   10   19 ar  
    23   10   33 1   
    24   11   13 1   
    25   11   15 2   
    26   12   20 1   
    27   12   21 1   
    28   12   34 1   
    29   13   16 1   
    30   13   35 1   
    31   14   20 2   
    32   14   22 1   
    33   15   20 1   
    34   16   19 1   
    35   18   19 ar  
    36   18   36 1   
    37   21   22 ar  
    38   26   36 1   
@<TRIPOS>SUBSTRUCTURE
     1 I30         1 TEMP              0 ****  ****    0 ROOT
