@<TRIPOS>MOLECULE
I30
   37    37     1     0     0
SMALL
bcc


@<TRIPOS>ATOM
      1 CAA         0.1590    1.1190    0.1950 c3        1 I30     -0.229000
      2 OAB         2.7080   -1.4090   -3.3010 o         1 I30     -0.294000
      3 BRAD       -2.0580   -1.2620   -6.5580 br        1 I30      0.115000
      4 CAE         5.1340   -1.4780    4.4350 c2        1 I30     -0.110000
      5 CAF         2.1080    1.6310    5.3710 c1        1 I30      0.329000
      6 CAG         0.4480   -0.7310   -7.7840 c2        1 I30     -0.089000
      7 CAH         0.6930    1.2180   -6.6090 c1        1 I30      0.158000
      8 CAI         5.0600   -1.0140    3.1840 c2        1 I30     -0.182000
      9 CAJ         3.0370    1.0010    4.6670 c2        1 I30     -0.462000
     10 CAK         0.5030   -1.3550   -5.3990 c2        1 I30     -0.045000
     11 NAL         2.0250    0.1950   -1.1880 n3        1 I30     -0.120000
     12 NAM         3.4710   -0.4540    1.3460 na        1 I30     -0.145000
     13 NAN         1.2970    0.1740   -2.3440 n         1 I30     -0.250000
     14 NAO         1.9920    0.9440    2.4150 n2        1 I30     -0.042000
     15 CAP         1.5040    0.5000    0.0170 c2        1 I30      0.275000
     16 CAQ         1.8090   -0.5760   -3.4650 c2        1 I30      0.353000
     17 CAR        -0.1950   -1.0800   -6.6510 c2        1 I30     -0.215000
     18 CAS         1.0910    1.0030   -5.3330 c2        1 I30     -0.223000
     19 CAT         1.1000   -0.3350   -4.7430 c2        1 I30     -0.092000
     20 CAU         2.2930    0.3260    1.2100 c2        1 I30     -0.186000
     21 CAV         3.8950   -0.3450    2.6510 c2        1 I30      0.061000
     22 CAW         2.9560    0.5570    3.3030 c2        1 I30      0.003000
     23 HAA        -0.5000    1.0410   -0.7040 hc        1 I30      0.150000
     24 HAAA       -0.3660    0.6200    1.0540 hc        1 I30      0.150000
     25 HAAB        0.2910    2.2030    0.4580 hc        1 I30      0.150000
     26 HOAC        1.6800    2.8010   -5.0130 ho        1 I30      0.245000
     27 HAE         4.3040   -1.4140    5.1550 ha        1 I30      0.143500
     28 HAF         6.0440   -1.9720    4.8090 ha        1 I30      0.143500
     29 HAG         1.5490   -0.7260   -7.8570 ha        1 I30      0.160500
     30 HAH        -0.0840   -0.4980   -8.7200 ha        1 I30      0.160500
     31 HAI         5.9120   -1.1240    2.4870 ha        1 I30      0.155000
     32 HAJ         4.0080    0.8030    5.1760 ha        1 I30      0.209000
     33 HAK         0.5000   -2.3920   -5.0210 ha        1 I30      0.184000
     34 HNAM        3.8750   -1.0450    0.6610 hn        1 I30      0.274000
     35 HNAN        2.9140   -0.2890   -1.2550 hn        1 I30      0.275000
     36 HAN2        0.9560    1.1010   -2.5880 hn        1 I30      0.265000
     37 OAC         1.5050    2.0160   -4.4720 oh        1 I30     -0.276000
@<TRIPOS>BOND
     1    1   15 1   
     2    1   23 1   
     3    1   24 1   
     4    1   25 1   
     5    2   16 1   
     6    3   17 1   
     7    4    8 1   
     8    4   27 1   
     9    4   28 1   
    10    5    9 1   
    11    6   17 1   
    12    6   29 1   
    13    6   30 1   
    14    7   18 1   
    15    8   21 1   
    16    8   31 1   
    17    9   22 1   
    18    9   32 1   
    19   10   17 1   
    20   10   19 1   
    21   10   33 1   
    22   11   13 1   
    23   11   15 1   
    24   11   35 1   
    25   12   20 1   
    26   12   21 1   
    27   12   34 1   
    28   13   16 1   
    29   13   36 1   
    30   14   20 1   
    31   14   22 1   
    32   15   20 1   
    33   16   19 1   
    34   18   19 1   
    35   18   37 1   
    36   21   22 1   
    37   26   37 1   
@<TRIPOS>SUBSTRUCTURE
     1 I30         1 TEMP              0 ****  ****    0 ROOT
