@<TRIPOS>MOLECULE
I30
   36    31     1     0     0
SMALL
bcc


@<TRIPOS>ATOM
      1 CAA        -2.6730   -0.0960    1.1210 c3        1 I30     -0.197000
      2 OAB        -0.0740    2.0160   -1.9930 o         1 I30     -0.300000
      3 OAC         0.5130    2.4530   -4.0980 oh        1 I30     -0.263000
      4 BRAD       -1.6080   -2.9600   -5.9060 br        1 I30      0.075000
      5 CAE         2.9810   -0.0340    5.5200 c1        1 I30     -0.133500
      6 CAF         2.5170   -1.3200    5.7480 c1        1 I30     -0.133500
      7 CAG        -0.5300   -0.3290   -6.2800 c1        1 I30     -0.041000
      8 CAH        -0.0410    0.9000   -5.8670 c1        1 I30     -0.219000
      9 CAI         2.3420    0.7800    4.5980 c1        1 I30     -0.101000
     10 CAJ         1.4140   -1.7920    5.0540 c1        1 I30     -0.101000
     11 CAK        -0.9790   -0.9160   -3.9960 c1        1 I30     -0.019000
     12 NAL        -0.4630    0.1190    0.1030 n1        1 I30     -0.026000
     13 NAM         0.4580    0.8540    2.9180 n2        1 I30     -0.173500
     14 NAN        -1.0980    0.1700   -1.1220 n2        1 I30     -0.288000
     15 NAO        -0.2780   -1.1880    3.2800 n2        1 I30     -0.173500
     16 CAP        -1.1650   -0.0070    1.1960 c2        1 I30     -0.046000
     17 CAQ        -0.5180    0.9030   -2.1910 c2        1 I30      0.378000
     18 CAR        -0.9990   -1.2380   -5.3440 c1        1 I30     -0.211000
     19 CAS        -0.0210    1.2220   -4.5190 c2        1 I30      0.120000
     20 CAT        -0.4900    0.3130   -3.5830 c2        1 I30     -0.157000
     21 CAU        -0.4700   -0.0640    2.5390 c2        1 I30      0.054000
     22 CAV         1.2220    0.3000    3.8930 c1        1 I30     -0.051500
     23 CAW         0.7650   -0.9660    4.1170 c1        1 I30     -0.051500
     24 HAA        -3.0250    0.7010    0.6720 hc        1 I30      0.099667
     25 HAAA       -2.9280   -0.8960    0.6140 hc        1 I30      0.099667
     26 HAAB       -3.0420   -0.1520    2.0270 hc        1 I30      0.099667
     27 HOAC        0.5960    2.9950   -4.7980 ho        1 I30      0.236000
     28 HAE         3.7570    0.2980    6.0090 ha        1 I30      0.132000
     29 HAF         2.9670   -1.8940    6.3970 ha        1 I30      0.132000
     30 HAG        -0.5440   -0.5560   -7.2290 ha        1 I30      0.155000
     31 HAH         0.2890    1.5400   -6.5270 ha        1 I30      0.146000
     32 HAI         2.6690    1.6850    4.4380 ha        1 I30      0.142000
     33 HAJ         1.0880   -2.6980    5.2140 ha        1 I30      0.142000
     34 HAK        -1.3000   -1.5600   -3.3360 ha        1 I30      0.175000
     35 HNAM        0.5500    1.6950    2.5780 DU        1 I30      0.274000
     36 HNAN       -1.8830   -0.2770   -1.2490 hn        1 I30      0.226000
@<TRIPOS>BOND
     1    1   16 1   
     2    1   24 1   
     3    1   25 1   
     4    1   26 1   
     5    2   17 1   
     6    3   19 1   
     7    3   27 1   
     8    4   18 1   
     9    5    6 1   
    10    5   28 1   
    11    6   29 1   
    12    7   18 1   
    13    7   30 1   
    14    8   19 1   
    15    8   31 1   
    16    9   22 1   
    17    9   32 1   
    18   10   23 1   
    19   10   33 1   
    20   11   20 1   
    21   11   34 1   
    22   12   16 1   
    23   13   21 1   
    24   13   22 1   
    25   14   17 1   
    26   14   36 1   
    27   15   21 1   
    28   15   23 1   
    29   16   21 1   
    30   17   20 1   
    31   19   20 1   
@<TRIPOS>SUBSTRUCTURE
     1 I30         1 TEMP              0 ****  ****    0 ROOT
