@<TRIPOS>MOLECULE
I31
   66    69     1     0     0
SMALL
bcc


@<TRIPOS>ATOM
      1 N1          0.3160    1.4290   -0.6760 nh        1 I31     -0.796200
      2 C5         -1.0260    1.0440   -1.1970 c3        1 I31      0.214500
      3 C57        -1.7340    2.2940   -1.7180 c3        1 I31     -0.078100
      4 C51        -1.8630    0.3640   -0.1300 ca        1 I31     -0.095300
      5 C4         -0.6500    0.0140   -2.4040 c3        1 I31      0.175500
      6 C47        -0.8280    0.6850   -3.7760 c3        1 I31     -0.080100
      7 C41        -1.5130   -1.2270   -2.4020 ca        1 I31     -0.063300
      8 N3          0.7900   -0.2780   -2.1920 n2        1 I31     -0.620900
      9 C2          1.2480    0.4940   -1.2310 ce        1 I31      0.622800
     10 C21         2.6490    0.4890   -0.7730 ca        1 I31     -0.157900
     11 C56        -1.2710   -0.5640    0.7400 ca        1 I31     -0.112000
     12 C55        -2.0110   -1.1810    1.7460 ca        1 I31     -0.127500
     13 C54        -3.3650   -0.8700    1.8990 ca        1 I31      0.021400
     14 CL5        -4.2730   -1.6130    3.1280 cl        1 I31     -0.095400
     15 C53        -3.9720    0.0530    1.0430 ca        1 I31     -0.127500
     16 C52        -3.2210    0.6620    0.0380 ca        1 I31     -0.112000
     17 C42        -2.8990   -1.0900   -2.5720 ca        1 I31     -0.106500
     18 C43        -3.7280   -2.2060   -2.6420 ca        1 I31     -0.129000
     19 C44        -3.1710   -3.4840   -2.5430 ca        1 I31      0.018400
     20 CL4        -4.1760   -4.8540   -2.6300 cl        1 I31     -0.101400
     21 C45        -1.7940   -3.6390   -2.3750 ca        1 I31     -0.129000
     22 C46        -0.9720   -2.5140   -2.3080 ca        1 I31     -0.106500
     23 C22         3.6800    0.5300   -1.7130 ca        1 I31     -0.054000
     24 C23         5.0160    0.5190   -1.3140 ca        1 I31     -0.168000
     25 C24         5.3540    0.4590    0.0410 ca        1 I31     -0.012300
     26 C30         6.7850    0.4430    0.5140 c3        1 I31     -0.014700
     27 C32         7.0460   -0.8420    1.2950 c3        1 I31     -0.086100
     28 C31         7.7770    0.5070   -0.6410 c3        1 I31     -0.086100
     29 C25         4.3270    0.4090    0.9950 ca        1 I31     -0.210000
     30 C26         2.9870    0.4270    0.5970 ca        1 I31      0.151100
     31 O27         1.9230    0.3710    1.4760 os        1 I31     -0.350900
     32 C28         2.2490    0.2950    2.8720 c3        1 I31      0.131400
     33 C29         0.9270    0.3110    3.6050 c3        1 I31     -0.106100
     34 C33         7.0330    1.6460    1.4210 c3        1 I31     -0.086100
     35 H1          0.3660    1.5330    0.3170 hn        1 I31      0.415800
     36 H3         -2.0390    2.9450   -0.8620 hc        1 I31      0.045700
     37 H4         -1.0640    2.8920   -2.3820 hc        1 I31      0.045700
     38 H5         -2.6440    2.0080   -2.2970 hc        1 I31      0.045700
     39 H6         -0.2200    1.6180   -3.8480 hc        1 I31      0.046367
     40 H7         -0.4950   -0.0170   -4.5790 hc        1 I31      0.046367
     41 H8         -1.9010    0.9330   -3.9520 hc        1 I31      0.046367
     42 H12        -0.2040   -0.8260    0.6390 ha        1 I31      0.145000
     43 H13        -1.5300   -1.9140    2.4120 ha        1 I31      0.146000
     44 H14        -5.0380    0.2990    1.1570 ha        1 I31      0.146000
     45 H15        -3.7310    1.3800   -0.6220 ha        1 I31      0.145000
     46 H16        -3.3460   -0.0860   -2.6370 ha        1 I31      0.144500
     47 H17        -4.8130   -2.0800   -2.7720 ha        1 I31      0.144500
     48 H18        -1.3520   -4.6440   -2.2980 ha        1 I31      0.144500
     49 H19         0.1130   -2.6680   -2.1870 ha        1 I31      0.144500
     50 H20         3.4310    0.5680   -2.7860 ha        1 I31      0.153000
     51 H21         5.7940    0.5560   -2.0900 ha        1 I31      0.142000
     52 H22         6.8560   -1.7320    0.6500 hc        1 I31      0.038589
     53 H23         8.1090   -0.8680    1.6380 hc        1 I31      0.038589
     54 H24         6.3840   -0.9020    2.1910 hc        1 I31      0.038589
     55 H25         7.6380    1.4450   -1.2290 hc        1 I31      0.038589
     56 H26         8.8200    0.4950   -0.2400 hc        1 I31      0.038589
     57 H27         7.6510   -0.3720   -1.3170 hc        1 I31      0.038589
     58 H28         4.5880    0.3530    2.0620 ha        1 I31      0.141000
     59 H29         2.8120   -0.6560    3.0640 h1        1 I31      0.042700
     60 H30         2.8820    1.1750    3.1580 h1        1 I31      0.042700
     61 H31         0.4560    1.3210    3.5400 hc        1 I31      0.052367
     62 H32         0.2220   -0.4320    3.1570 hc        1 I31      0.052367
     63 H33         1.1000    0.0570    4.6770 hc        1 I31      0.052367
     64 H34         6.3690    1.6090    2.3170 hc        1 I31      0.038589
     65 H35         8.0950    1.6480    1.7660 hc        1 I31      0.038589
     66 H36         6.8340    2.5950    0.8670 hc        1 I31      0.038589
@<TRIPOS>BOND
     1    1    2 1   
     2    1    9 1   
     3    1   35 1   
     4    2    3 1   
     5    2    4 1   
     6    2    5 1   
     7    3   36 1   
     8    3   37 1   
     9    3   38 1   
    10    4   11 ar  
    11    4   16 ar  
    12    5    6 1   
    13    5    7 1   
    14    5    8 1   
    15    6   39 1   
    16    6   40 1   
    17    6   41 1   
    18    7   17 ar  
    19    7   22 ar  
    20    8    9 2   
    21    9   10 1   
    22   10   23 ar  
    23   10   30 ar  
    24   11   12 ar  
    25   11   42 1   
    26   12   13 ar  
    27   12   43 1   
    28   13   14 1   
    29   13   15 ar  
    30   15   16 ar  
    31   15   44 1   
    32   16   45 1   
    33   17   18 ar  
    34   17   46 1   
    35   18   19 ar  
    36   18   47 1   
    37   19   20 1   
    38   19   21 ar  
    39   21   22 ar  
    40   21   48 1   
    41   22   49 1   
    42   23   24 ar  
    43   23   50 1   
    44   24   25 ar  
    45   24   51 1   
    46   25   26 1   
    47   25   29 ar  
    48   26   27 1   
    49   26   28 1   
    50   26   34 1   
    51   27   52 1   
    52   27   53 1   
    53   27   54 1   
    54   28   55 1   
    55   28   56 1   
    56   28   57 1   
    57   29   30 ar  
    58   29   58 1   
    59   30   31 1   
    60   31   32 1   
    61   32   33 1   
    62   32   59 1   
    63   32   60 1   
    64   33   61 1   
    65   33   62 1   
    66   33   63 1   
    67   34   64 1   
    68   34   65 1   
    69   34   66 1   
@<TRIPOS>SUBSTRUCTURE
     1 I31         1 TEMP              0 ****  ****    0 ROOT
