@<TRIPOS>MOLECULE
I31
   66    61     1     0     0
SMALL
bcc


@<TRIPOS>ATOM
      1 N1          0.6060    1.2790   -1.1660 n3        1 I31     -0.281000
      2 C5          2.0640    1.3050   -1.1580 c3        1 I31      0.049000
      3 C57         2.5720    2.5580   -1.8440 c3        1 I31     -0.196000
      4 C51         2.5900    0.1330   -1.8020 c1        1 I31     -0.088000
      5 C4          2.4530    1.3180    0.3500 c3        1 I31      0.043000
      6 C47         3.5080    2.2810    0.8530 c3        1 I31     -0.198000
      7 C41         3.0030    0.0470    0.5970 c2        1 I31     -0.056000
      8 N3          1.2490    1.2980    0.9350 n2        1 I31     -0.208000
      9 C2          0.2580    1.2780    0.1170 c2        1 I31      0.099000
     10 C21        -1.0630    0.6770    0.5430 c2        1 I31     -0.074000
     11 C56         1.7500   -0.9250   -2.1160 c1        1 I31     -0.113000
     12 C55         2.2070   -1.9610   -2.9150 c1        1 I31     -0.127000
     13 C54         3.5060   -1.9400   -3.4010 c1        1 I31     -0.057000
     14 CL5         4.1000   -3.2720   -4.3570 cl        1 I31     -0.017000
     15 C53         4.3460   -0.8830   -3.0880 c1        1 I31     -0.119500
     16 C52         3.8880    0.1540   -2.2880 c1        1 I31     -0.119500
     17 C42         4.3750    0.1170    0.7930 c1        1 I31     -0.117000
     18 C43         5.0970   -1.0360    1.0550 c1        1 I31     -0.127000
     19 C44         4.4490   -2.2610    1.1200 c1        1 I31     -0.060000
     20 CL4         5.3490   -3.7040    1.5090 cl        1 I31     -0.023000
     21 C45         3.0780   -2.3310    0.9240 c2        1 I31     -0.131000
     22 C46         2.3550   -1.1770    0.6620 c2        1 I31     -0.096000
     23 C22        -0.9160   -0.0330    1.7250 c2        1 I31     -0.054000
     24 C23        -2.0330   -0.5330    2.3760 c1        1 I31     -0.168000
     25 C24        -3.2960   -0.3250    1.8460 c1        1 I31     -0.005000
     26 C30        -4.5130   -0.9030    2.5380 c3        1 I31     -0.022000
     27 C32        -5.1870   -1.9010    1.6230 c3        1 I31     -0.204000
     28 C31        -4.0850   -1.5970    3.8150 c3        1 I31     -0.204000
     29 C25        -3.4430    0.3850    0.6640 c1        1 I31     -0.210000
     30 C26        -2.3260    0.8860    0.0120 c1        1 I31      0.106000
     31 O27        -2.4840    1.7040   -1.1210 o         1 I31     -0.234000
     32 C28        -3.2480    1.1160   -2.1470 c3        1 I31     -0.019000
     33 C29        -3.1920    1.9890   -3.3830 c3        1 I31     -0.224000
     34 C33        -5.4810    0.2110    2.8700 c3        1 I31     -0.204000
     35 H1          0.0530    1.2670   -1.8920 hn        1 I31      0.211000
     36 H3          3.5400    2.6340   -1.7100 hc        1 I31      0.085000
     37 H4          2.1270    3.3430   -1.4610 hc        1 I31      0.085000
     38 H5          2.3770    2.5070   -2.8030 hc        1 I31      0.085000
     39 H6          3.0900    3.1430    1.0630 hc        1 I31      0.085667
     40 H7          4.1900    2.4090    0.1620 hc        1 I31      0.085667
     41 H8          3.9250    1.9150    1.6610 hc        1 I31      0.085667
     42 H12         0.8350   -0.9400   -1.7740 ha        1 I31      0.152000
     43 H13         1.6150   -2.7050   -3.1360 ha        1 I31      0.146000
     44 H14         5.2600   -0.8680   -3.4300 ha        1 I31      0.142000
     45 H15         4.4790    0.8980   -2.0670 ha        1 I31      0.142000
     46 H16         4.8300    0.9760    0.7480 ha        1 I31      0.132000
     47 H17         6.0620   -0.9870    1.1930 ha        1 I31      0.144000
     48 H18         2.6220   -3.1930    0.9690 ha        1 I31      0.145000
     49 H19         1.3910   -1.2260    0.5230 ha        1 I31      0.157000
     50 H20        -0.0270   -0.1800    2.0990 ha        1 I31      0.153000
     51 H21        -1.9290   -1.0330    3.2080 ha        1 I31      0.142000
     52 H22        -4.5130   -2.5060    1.2460 hc        1 I31      0.077889
     53 H23        -5.8430   -2.4200    2.1330 hc        1 I31      0.077889
     54 H24        -5.6400   -1.4240    0.8970 hc        1 I31      0.077889
     55 H25        -3.7690   -0.9300    4.4600 hc        1 I31      0.077889
     56 H26        -3.3610   -2.2280    3.6170 hc        1 I31      0.077889
     57 H27        -4.8470   -2.0830    4.1940 hc        1 I31      0.077889
     58 H28        -4.3330    0.5320    0.2910 ha        1 I31      0.141000
     59 H29        -2.8870    0.2300   -2.3570 h1        1 I31      0.082000
     60 H30        -4.1780    1.0270   -1.8520 h1        1 I31      0.082000
     61 H31        -3.6450    2.8400   -3.2020 hc        1 I31      0.091667
     62 H32        -3.6370    1.5330   -4.1260 hc        1 I31      0.091667
     63 H33        -2.2560    2.1620   -3.6180 hc        1 I31      0.091667
     64 H34        -5.0090    0.9210    3.3530 hc        1 I31      0.077889
     65 H35        -6.2040   -0.1410    3.4310 hc        1 I31      0.077889
     66 H36        -5.8580    0.5740    2.0410 hc        1 I31      0.077889
@<TRIPOS>BOND
     1    1    2 1   
     2    1    9 1   
     3    1   35 1   
     4    2    3 1   
     5    2    4 1   
     6    2    5 1   
     7    3   36 1   
     8    3   37 1   
     9    3   38 1   
    10    4   11 1   
    11    5    6 1   
    12    5    7 1   
    13    5    8 1   
    14    6   39 1   
    15    6   40 1   
    16    6   41 1   
    17    7   17 1   
    18    7   22 1   
    19    8    9 1   
    20    9   10 1   
    21   10   23 1   
    22   10   30 1   
    23   11   42 1   
    24   12   13 1   
    25   12   43 1   
    26   13   14 1   
    27   15   16 1   
    28   15   44 1   
    29   16   45 1   
    30   17   46 1   
    31   18   19 1   
    32   18   47 1   
    33   19   21 1   
    34   21   22 1   
    35   21   48 1   
    36   22   49 1   
    37   23   24 1   
    38   23   50 1   
    39   24   51 1   
    40   25   26 1   
    41   25   29 1   
    42   26   27 1   
    43   26   28 1   
    44   26   34 1   
    45   27   52 1   
    46   27   53 1   
    47   27   54 1   
    48   28   55 1   
    49   28   56 1   
    50   28   57 1   
    51   29   58 1   
    52   31   32 1   
    53   32   33 1   
    54   32   59 1   
    55   32   60 1   
    56   33   61 1   
    57   33   62 1   
    58   33   63 1   
    59   34   64 1   
    60   34   65 1   
    61   34   66 1   
@<TRIPOS>SUBSTRUCTURE
     1 I31         1 TEMP              0 ****  ****    0 ROOT
