@<TRIPOS>MOLECULE
I31
   66    69     1     0     0
SMALL
bcc


@<TRIPOS>ATOM
      1 N1         -0.1280   -0.5840    0.0850 nu        1 I31     -0.796200
      2 C5          1.3570   -0.6090   -0.0350 c3        1 I31      0.214500
      3 C57         1.7430   -0.3670   -1.4940 c3        1 I31     -0.078100
      4 C51         1.9330   -1.9230    0.4560 ca        1 I31     -0.095300
      5 C4          1.8060    0.6330    0.9230 c3        1 I31      0.175500
      6 C47         2.2270    1.8500    0.0840 c3        1 I31     -0.080100
      7 C41         2.9730    0.2860    1.8190 ca        1 I31     -0.063300
      8 N3          0.5720    0.9690    1.6770 n2        1 I31     -0.620900
      9 C2         -0.4290    0.2620    1.2000 ce        1 I31      0.622800
     10 C21        -1.8130    0.3610    1.6980 ca        1 I31     -0.157900
     11 C56         1.4160   -2.5260    1.6140 ca        1 I31     -0.112000
     12 C55         1.9080   -3.7460    2.0710 ca        1 I31     -0.127500
     13 C54         2.9290   -4.3880    1.3650 ca        1 I31      0.021400
     14 Cl5         3.5300   -5.8810    1.9110 cl        1 I31     -0.095400
     15 C53         3.4550   -3.8050    0.2100 ca        1 I31     -0.127500
     16 C52         2.9570   -2.5820   -0.2360 ca        1 I31     -0.112000
     17 C42         4.1960   -0.0720    1.2320 ca        1 I31     -0.106500
     18 C43         5.3170   -0.3380    2.0130 ca        1 I31     -0.129000
     19 C44         5.2240   -0.2440    3.4050 ca        1 I31      0.018400
     20 Cl4         6.5890   -0.5640    4.3680 cl        1 I31     -0.101400
     21 C45         4.0150    0.1120    4.0060 ca        1 I31     -0.129000
     22 C46         2.8980    0.3780    3.2130 ca        1 I31     -0.106500
     23 C22        -2.3890    1.6190    1.8830 ca        1 I31     -0.054000
     24 C23        -3.6930    1.7470    2.3600 ca        1 I31     -0.168000
     25 C24        -4.4520    0.6160    2.6710 ca        1 I31     -0.012300
     26 C30        -5.8640    0.7120    3.1910 c3        1 I31     -0.014700
     27 C32        -5.9420    0.0620    4.5700 c3        1 I31     -0.086100
     28 C31        -6.3370    2.1550    3.3180 c3        1 I31     -0.086100
     29 C25        -3.8820   -0.6530    2.4980 ca        1 I31     -0.210000
     30 C26        -2.5760   -0.7840    2.0130 ca        1 I31      0.151100
     31 O27        -1.9450   -1.9980    1.8250 os        1 I31     -0.350900
     32 C28        -2.7030   -3.1720    2.1530 c3        1 I31      0.131400
     33 C29        -1.8180   -4.3450    1.8000 c3        1 I31     -0.106100
     34 C33        -6.8060   -0.0150    2.2350 c3        1 I31     -0.086100
     35 H1         -0.5620   -1.4830    0.1110 hn        1 I31      0.415800
     36 H3          1.1960    0.5100   -1.9170 hc        1 I31      0.045700
     37 H4          1.4840   -1.2630   -2.1100 hc        1 I31      0.045700
     38 H5          2.8390   -0.1760   -1.5760 hc        1 I31      0.045700
     39 H6          1.4110    2.1620   -0.6100 hc        1 I31      0.046367
     40 H7          3.1430    1.6170   -0.5080 hc        1 I31      0.046367
     41 H8          2.4590    2.7070    0.7640 hc        1 I31      0.046367
     42 H12         0.6100   -2.0380    2.1880 ha        1 I31      0.145000
     43 H13         1.4950   -4.1970    2.9860 ha        1 I31      0.146000
     44 H14         4.2610   -4.3050   -0.3480 ha        1 I31      0.146000
     45 H15         3.3970   -2.1460   -1.1460 ha        1 I31      0.145000
     46 H16         4.2730   -0.1610    0.1370 ha        1 I31      0.144500
     47 H17         6.2680   -0.6190    1.5360 ha        1 I31      0.144500
     48 H18         3.9390    0.1880    5.1010 ha        1 I31      0.144500
     49 H19         1.9610    0.6680    3.7150 ha        1 I31      0.144500
     50 H20        -1.8010    2.5220    1.6520 ha        1 I31      0.153000
     51 H21        -4.1060    2.7590    2.4870 ha        1 I31      0.142000
     52 H22        -5.6650   -1.0170    4.5140 hc        1 I31      0.038589
     53 H23        -5.2480    0.5740    5.2780 hc        1 I31      0.038589
     54 H24        -6.9820    0.1410    4.9680 hc        1 I31      0.038589
     55 H25        -7.3860    2.1730    3.7030 hc        1 I31      0.038589
     56 H26        -6.3190    2.6650    2.3260 hc        1 I31      0.038589
     57 H27        -5.6920    2.7200    4.0330 hc        1 I31      0.038589
     58 H28        -4.4720   -1.5460    2.7500 ha        1 I31      0.141000
     59 H29        -3.6520   -3.1860    1.5560 h1        1 I31      0.042700
     60 H30        -2.9450   -3.1570    3.2480 h1        1 I31      0.042700
     61 H31        -0.7940   -4.2070    2.2280 hc        1 I31      0.052367
     62 H32        -1.7210   -4.4440    0.6920 hc        1 I31      0.052367
     63 H33        -2.2670   -5.2800    2.2120 hc        1 I31      0.052367
     64 H34        -6.5360   -1.0940    2.1580 hc        1 I31      0.038589
     65 H35        -7.8560    0.0620    2.6070 hc        1 I31      0.038589
     66 H36        -6.7530    0.4410    1.2180 hc        1 I31      0.038589
@<TRIPOS>BOND
     1    1    2 1   
     2    1    9 1   
     3    1   35 1   
     4    2    3 1   
     5    2    4 1   
     6    2    5 1   
     7    3   36 1   
     8    3   37 1   
     9    3   38 1   
    10    4   11 ar  
    11    4   16 ar  
    12    5    6 1   
    13    5    7 1   
    14    5    8 1   
    15    6   39 1   
    16    6   40 1   
    17    6   41 1   
    18    7   17 ar  
    19    7   22 ar  
    20    8    9 2   
    21    9   10 1   
    22   10   23 ar  
    23   10   30 ar  
    24   11   12 ar  
    25   11   42 1   
    26   12   13 ar  
    27   12   43 1   
    28   13   14 1   
    29   13   15 ar  
    30   15   16 ar  
    31   15   44 1   
    32   16   45 1   
    33   17   18 ar  
    34   17   46 1   
    35   18   19 ar  
    36   18   47 1   
    37   19   20 1   
    38   19   21 ar  
    39   21   22 ar  
    40   21   48 1   
    41   22   49 1   
    42   23   24 ar  
    43   23   50 1   
    44   24   25 ar  
    45   24   51 1   
    46   25   26 1   
    47   25   29 ar  
    48   26   27 1   
    49   26   28 1   
    50   26   34 1   
    51   27   52 1   
    52   27   53 1   
    53   27   54 1   
    54   28   55 1   
    55   28   56 1   
    56   28   57 1   
    57   29   30 ar  
    58   29   58 1   
    59   30   31 1   
    60   31   32 1   
    61   32   33 1   
    62   32   59 1   
    63   32   60 1   
    64   33   61 1   
    65   33   62 1   
    66   33   63 1   
    67   34   64 1   
    68   34   65 1   
    69   34   66 1   
@<TRIPOS>SUBSTRUCTURE
     1 I31         1 TEMP              0 ****  ****    0 ROOT
