@<TRIPOS>MOLECULE
I31
   66    69     1     0     0
SMALL
bcc


@<TRIPOS>ATOM
      1 N1         -0.1410   -0.6470    0.0790 nh        1 I31     -0.796200
      2 C5          1.3440   -0.6600   -0.0500 c3        1 I31      0.214500
      3 C57         1.7170   -0.4730   -1.5210 c3        1 I31     -0.078100
      4 C51         1.9380   -1.9470    0.4890 ca        1 I31     -0.095300
      5 C4          1.7840    0.6240    0.8540 c3        1 I31      0.175500
      6 C47         2.1860    1.8120   -0.0350 c3        1 I31     -0.080100
      7 C41         2.9610    0.3260    1.7550 ca        1 I31     -0.063300
      8 N3          0.5520    0.9760    1.6030 n2        1 I31     -0.620900
      9 C2         -0.4440    0.2390    1.1610 ce        1 I31      0.622800
     10 C21        -1.8250    0.3430    1.6650 ca        1 I31     -0.157900
     11 C56         1.4360   -2.5090    1.6730 ca        1 I31     -0.112000
     12 C55         1.9450   -3.7040    2.1750 ca        1 I31     -0.127500
     13 C54         2.9690   -4.3620    1.4880 ca        1 I31      0.021400
     14 CL5         3.5910   -5.8260    2.0890 cl        1 I31     -0.095400
     15 C53         3.4810   -3.8190    0.3070 ca        1 I31     -0.127500
     16 C52         2.9650   -2.6210   -0.1830 ca        1 I31     -0.112000
     17 C42         4.1850   -0.0410    1.1750 ca        1 I31     -0.106500
     18 C43         5.3140   -0.2620    1.9580 ca        1 I31     -0.129000
     19 C44         5.2290   -0.1140    3.3450 ca        1 I31      0.018400
     20 CL4         6.6040   -0.3800    4.3100 cl        1 I31     -0.101400
     21 C45         4.0200    0.2520    3.9400 ca        1 I31     -0.129000
     22 C46         2.8940    0.4720    3.1460 ca        1 I31     -0.106500
     23 C22        -2.4150    1.6000    1.8040 ca        1 I31     -0.054000
     24 C23        -3.7170    1.7320    2.2850 ca        1 I31     -0.168000
     25 C24        -4.4610    0.6060    2.6470 ca        1 I31     -0.012300
     26 C30        -5.8700    0.7070    3.1720 c3        1 I31     -0.014700
     27 C32        -5.9310    0.1110    4.5770 c3        1 I31     -0.086100
     28 C31        -6.3590    2.1480    3.2460 c3        1 I31     -0.086100
     29 C25        -3.8770   -0.6630    2.5200 ca        1 I31     -0.210000
     30 C26        -2.5740   -0.7980    2.0310 ca        1 I31      0.151100
     31 O27        -1.9300   -2.0110    1.8870 os        1 I31     -0.350900
     32 C28        -2.6720   -3.1800    2.2660 c3        1 I31      0.131400
     33 C29        -1.7760   -4.3560    1.9530 c3        1 I31     -0.106100
     34 C33        -6.8110   -0.0680    2.2530 c3        1 I31     -0.086100
     35 H1         -0.5640   -1.5500    0.1440 hn        1 I31      0.415800
     36 H3          2.8110   -0.2720   -1.6170 hc        1 I31      0.045700
     37 H4          1.4650   -1.3950   -2.0990 hc        1 I31      0.045700
     38 H5          1.1570    0.3810   -1.9740 hc        1 I31      0.045700
     39 H6          2.4130    2.6970    0.6080 hc        1 I31      0.046367
     40 H7          3.1000    1.5650   -0.6250 hc        1 I31      0.046367
     41 H8          1.3620    2.0860   -0.7360 hc        1 I31      0.046367
     42 H12         0.6280   -2.0080    2.2330 ha        1 I31      0.145000
     43 H13         1.5430   -4.1230    3.1100 ha        1 I31      0.146000
     44 H14         4.2890   -4.3320   -0.2360 ha        1 I31      0.146000
     45 H15         3.3940   -2.2170   -1.1130 ha        1 I31      0.145000
     46 H16         4.2550   -0.1720    0.0840 ha        1 I31      0.144500
     47 H17         6.2640   -0.5520    1.4860 ha        1 I31      0.144500
     48 H18         3.9500    0.3700    5.0320 ha        1 I31      0.144500
     49 H19         1.9570    0.7720    3.6410 ha        1 I31      0.144500
     50 H20        -1.8390    2.5000    1.5330 ha        1 I31      0.153000
     51 H21        -4.1410    2.7440    2.3750 ha        1 I31      0.142000
     52 H22        -5.6420   -0.9670    4.5620 hc        1 I31      0.038589
     53 H23        -5.2380    0.6580    5.2590 hc        1 I31      0.038589
     54 H24        -6.9690    0.1940    4.9790 hc        1 I31      0.038589
     55 H25        -5.7160    2.7480    3.9330 hc        1 I31      0.038589
     56 H26        -6.3530    2.6190    2.2340 hc        1 I31      0.038589
     57 H27        -7.4060    2.1700    3.6380 hc        1 I31      0.038589
     58 H28        -4.4550   -1.5510    2.8110 ha        1 I31      0.141000
     59 H29        -2.9060   -3.1240    3.3620 h1        1 I31      0.042700
     60 H30        -3.6250   -3.2280    1.6770 h1        1 I31      0.042700
     61 H31        -0.7510   -4.1890    2.3680 hc        1 I31      0.052367
     62 H32        -1.6850   -4.4970    0.8500 hc        1 I31      0.052367
     63 H33        -2.2110   -5.2790    2.4050 hc        1 I31      0.052367
     64 H34        -6.5280   -1.1470    2.2160 hc        1 I31      0.038589
     65 H35        -6.7690    0.3480    1.2180 hc        1 I31      0.038589
     66 H36        -7.8590    0.0110    2.6290 hc        1 I31      0.038589
@<TRIPOS>BOND
     1    1    2 1   
     2    1    9 1   
     3    1   35 1   
     4    2    3 1   
     5    2    4 1   
     6    2    5 1   
     7    3   36 1   
     8    3   37 1   
     9    3   38 1   
    10    4   11 ar  
    11    4   16 ar  
    12    5    6 1   
    13    5    7 1   
    14    5    8 1   
    15    6   39 1   
    16    6   40 1   
    17    6   41 1   
    18    7   17 ar  
    19    7   22 ar  
    20    8    9 2   
    21    9   10 1   
    22   10   23 ar  
    23   10   30 ar  
    24   11   12 ar  
    25   11   42 1   
    26   12   13 ar  
    27   12   43 1   
    28   13   14 1   
    29   13   15 ar  
    30   15   16 ar  
    31   15   44 1   
    32   16   45 1   
    33   17   18 ar  
    34   17   46 1   
    35   18   19 ar  
    36   18   47 1   
    37   19   20 1   
    38   19   21 ar  
    39   21   22 ar  
    40   21   48 1   
    41   22   49 1   
    42   23   24 ar  
    43   23   50 1   
    44   24   25 ar  
    45   24   51 1   
    46   25   26 1   
    47   25   29 ar  
    48   26   27 1   
    49   26   28 1   
    50   26   34 1   
    51   27   52 1   
    52   27   53 1   
    53   27   54 1   
    54   28   55 1   
    55   28   56 1   
    56   28   57 1   
    57   29   30 ar  
    58   29   58 1   
    59   30   31 1   
    60   31   32 1   
    61   32   33 1   
    62   32   59 1   
    63   32   60 1   
    64   33   61 1   
    65   33   62 1   
    66   33   63 1   
    67   34   64 1   
    68   34   65 1   
    69   34   66 1   
@<TRIPOS>SUBSTRUCTURE
     1 I31         1 TEMP              0 ****  ****    0 ROOT
