@<TRIPOS>MOLECULE
I31
   66    69     1     0     0
SMALL
bcc


@<TRIPOS>ATOM
      1 N1         -0.1400   -0.6060    0.0800 nh        1 I31     -0.796200
      2 C5          1.3440   -0.6280   -0.0490 c3        1 I31      0.214500
      3 C57         1.7190   -0.4060   -1.5140 c3        1 I31     -0.078100
      4 C51         1.9270   -1.9340    0.4570 ca        1 I31     -0.095300
      5 C4          1.7950    0.6280    0.8880 c3        1 I31      0.175500
      6 C47         2.2070    1.8350    0.0290 c3        1 I31     -0.080100
      7 C41         2.9690    0.2980    1.7800 ca        1 I31     -0.063300
      8 N3          0.5660    0.9710    1.6460 n2        1 I31     -0.620900
      9 C2         -0.4360    0.2540    1.1850 ce        1 I31      0.622800
     10 C21        -1.8170    0.3560    1.6910 ca        1 I31     -0.157900
     11 C56         1.4210   -2.5220    1.6270 ca        1 I31     -0.112000
     12 C55         1.9200   -3.7330    2.0980 ca        1 I31     -0.127500
     13 C54         2.9380   -4.3820    1.3940 ca        1 I31      0.021400
     14 CL5         3.5480   -5.8660    1.9580 cl        1 I31     -0.095400
     15 C53         3.4550   -3.8140    0.2270 ca        1 I31     -0.127500
     16 C52         2.9490   -2.5990   -0.2330 ca        1 I31     -0.112000
     17 C42         4.1900   -0.0650    1.1910 ca        1 I31     -0.106500
     18 C43         5.3170   -0.3150    1.9680 ca        1 I31     -0.129000
     19 C44         5.2330   -0.2020    3.3590 ca        1 I31      0.018400
     20 CL4         6.6060   -0.5040    4.3160 cl        1 I31     -0.101400
     21 C45         4.0270    0.1590    3.9620 ca        1 I31     -0.129000
     22 C46         2.9040    0.4090    3.1740 ca        1 I31     -0.106500
     23 C22        -2.3960    1.6140    1.8630 ca        1 I31     -0.054000
     24 C23        -3.6970    1.7450    2.3470 ca        1 I31     -0.168000
     25 C24        -4.4510    0.6160    2.6800 ca        1 I31     -0.012300
     26 C30        -5.8590    0.7150    3.2080 c3        1 I31     -0.014700
     27 C32        -5.9250    0.0830    4.5960 c3        1 I31     -0.086100
     28 C31        -6.3360    2.1580    3.3190 c3        1 I31     -0.086100
     29 C25        -3.8770   -0.6540    2.5200 ca        1 I31     -0.210000
     30 C26        -2.5740   -0.7870    2.0290 ca        1 I31      0.151100
     31 O27        -1.9410   -2.0020    1.8530 os        1 I31     -0.350900
     32 C28        -2.6920   -3.1740    2.2030 c3        1 I31      0.131400
     33 C29        -1.8060   -4.3490    1.8600 c3        1 I31     -0.106100
     34 C33        -6.8060   -0.0280    2.2680 c3        1 I31     -0.086100
     35 H1         -0.5710   -1.5070    0.1220 hn        1 I31      0.415800
     36 H3          2.8140   -0.2130   -1.6060 hc        1 I31      0.045700
     37 H4          1.1670    0.4630   -1.9460 hc        1 I31      0.045700
     38 H5          1.4600   -1.3120   -2.1160 hc        1 I31      0.045700
     39 H6          3.1190    1.5960   -0.5670 hc        1 I31      0.046367
     40 H7          2.4410    2.7020    0.6950 hc        1 I31      0.046367
     41 H8          1.3850    2.1340   -0.6640 hc        1 I31      0.046367
     42 H12         0.6170   -2.0270    2.1990 ha        1 I31      0.145000
     43 H13         1.5150   -4.1720    3.0220 ha        1 I31      0.146000
     44 H14         4.2580   -4.3190   -0.3290 ha        1 I31      0.146000
     45 H15         3.3810   -2.1750   -1.1520 ha        1 I31      0.145000
     46 H16         4.2590   -0.1690    0.0970 ha        1 I31      0.144500
     47 H17         6.2650   -0.6010    1.4880 ha        1 I31      0.144500
     48 H18         3.9590    0.2500    5.0570 ha        1 I31      0.144500
     49 H19         1.9690    0.7040    3.6780 ha        1 I31      0.144500
     50 H20        -1.8120    2.5160    1.6150 ha        1 I31      0.153000
     51 H21        -4.1130    2.7570    2.4630 ha        1 I31      0.142000
     52 H22        -6.9630    0.1640    5.0000 hc        1 I31      0.038589
     53 H23        -5.6450   -0.9960    4.5530 hc        1 I31      0.038589
     54 H24        -5.2280    0.6060    5.2920 hc        1 I31      0.038589
     55 H25        -6.3260    2.6540    2.3200 hc        1 I31      0.038589
     56 H26        -5.6870    2.7340    4.0210 hc        1 I31      0.038589
     57 H27        -7.3820    2.1780    3.7110 hc        1 I31      0.038589
     58 H28        -4.4630   -1.5450    2.7890 ha        1 I31      0.141000
     59 H29        -2.9270   -3.1440    3.2990 h1        1 I31      0.042700
     60 H30        -3.6450   -3.1990    1.6120 h1        1 I31      0.042700
     61 H31        -1.7160   -4.4620    0.7530 hc        1 I31      0.052367
     62 H32        -2.2490   -5.2790    2.2880 hc        1 I31      0.052367
     63 H33        -0.7790   -4.2010    2.2790 hc        1 I31      0.052367
     64 H34        -6.7600    0.4140    1.2450 hc        1 I31      0.038589
     65 H35        -7.8530    0.0500    2.6470 hc        1 I31      0.038589
     66 H36        -6.5320   -1.1080    2.2040 hc        1 I31      0.038589
@<TRIPOS>BOND
     1    1    2 1   
     2    1    9 1   
     3    1   35 1   
     4    2    3 1   
     5    2    4 1   
     6    2    5 1   
     7    3   36 1   
     8    3   37 1   
     9    3   38 1   
    10    4   11 ar  
    11    4   16 ar  
    12    5    6 1   
    13    5    7 1   
    14    5    8 1   
    15    6   39 1   
    16    6   40 1   
    17    6   41 1   
    18    7   17 ar  
    19    7   22 ar  
    20    8    9 2   
    21    9   10 1   
    22   10   23 ar  
    23   10   30 ar  
    24   11   12 ar  
    25   11   42 1   
    26   12   13 ar  
    27   12   43 1   
    28   13   14 1   
    29   13   15 ar  
    30   15   16 ar  
    31   15   44 1   
    32   16   45 1   
    33   17   18 ar  
    34   17   46 1   
    35   18   19 ar  
    36   18   47 1   
    37   19   20 1   
    38   19   21 ar  
    39   21   22 ar  
    40   21   48 1   
    41   22   49 1   
    42   23   24 ar  
    43   23   50 1   
    44   24   25 ar  
    45   24   51 1   
    46   25   26 1   
    47   25   29 ar  
    48   26   27 1   
    49   26   28 1   
    50   26   34 1   
    51   27   52 1   
    52   27   53 1   
    53   27   54 1   
    54   28   55 1   
    55   28   56 1   
    56   28   57 1   
    57   29   30 ar  
    58   29   58 1   
    59   30   31 1   
    60   31   32 1   
    61   32   33 1   
    62   32   59 1   
    63   32   60 1   
    64   33   61 1   
    65   33   62 1   
    66   33   63 1   
    67   34   64 1   
    68   34   65 1   
    69   34   66 1   
@<TRIPOS>SUBSTRUCTURE
     1 I31         1 TEMP              0 ****  ****    0 ROOT
