@<TRIPOS>MOLECULE
I32
   43    44     1     0     0
SMALL
bcc


@<TRIPOS>ATOM
      1 O2         -0.0120   -0.2800    0.2840 oh        1 I32     -0.635800
      2 C10         1.3880   -0.2670    0.0600 c3        1 I32      0.121100
      3 C11         2.0500   -0.0280    1.4320 c3        1 I32      0.098800
      4 N2          1.4520    1.1410    2.1310 n4        1 I32     -0.760000
      5 C12         1.9660    1.3690    3.5520 c3        1 I32      0.152200
      6 C15         3.4910    1.4610    3.5640 c3        1 I32     -0.128433
      7 C13         1.3770    2.6910    4.0590 c3        1 I32     -0.128433
      8 C9          1.8850   -1.6020   -0.5090 c3        1 I32      0.098400
      9 O1          1.1920   -1.7310   -1.7500 os        1 I32     -0.336900
     10 C4          1.7800   -2.5860   -2.6730 ca        1 I32      0.152100
     11 C5          2.5370   -3.6900   -2.3000 ca        1 I32     -0.210000
     12 C6          3.0570   -4.5650   -3.2730 ca        1 I32     -0.075000
     13 C7          2.8340   -4.3670   -4.6220 ca        1 I32     -0.146000
     14 C8          2.0660   -3.2510   -5.0030 ca        1 I32     -0.008200
     15 C3          1.5220   -2.3230   -4.0330 ca        1 I32     -0.088800
     16 N1          1.6980   -2.8190   -6.2740 na        1 I32     -0.154400
     17 C1          0.9330   -1.6540   -6.1350 cc        1 I32      0.095200
     18 C2          0.8050   -1.3170   -4.7770 cd        1 I32     -0.001400
     19 C16         0.3990   -0.9630   -7.2490 cg        1 I32      0.184500
     20 C14         1.5090    0.2340    4.4700 c3        1 I32     -0.128433
     21 IAA        -0.1960    0.2680   -4.1010 i         1 I32     -0.074800
     22 NAF        -0.0460   -0.3830   -8.1530 n1        1 I32     -0.291800
     23 H2         -0.4340   -0.6460   -0.5090 ho        1 I32      0.472000
     24 H10         1.6400    0.5670   -0.6560 h1        1 I32      0.078700
     25 H111        1.9030   -0.9370    2.0820 hx        1 I32      0.109700
     26 H112        3.1510    0.1540    1.2840 hx        1 I32      0.109700
     27 H91C        2.9940   -1.5840   -0.6590 h1        1 I32      0.065700
     28 H92C        1.5920   -2.4540    0.1590 h1        1 I32      0.065700
     29 HA          1.6330    1.9870    1.5830 hn        1 I32      0.457800
     30 H151        3.8620    2.2360    2.8500 hc        1 I32      0.076144
     31 H152        3.8170    1.7540    4.5940 hc        1 I32      0.076144
     32 H153        3.9610    0.4770    3.3210 hc        1 I32      0.076144
     33 H131        0.2600    2.6610    4.0750 hc        1 I32      0.076144
     34 H132        1.7330    2.8580    5.1070 hc        1 I32      0.076144
     35 H133        1.7170    3.5550    3.4370 hc        1 I32      0.076144
     36 H141        1.9910   -0.7350    4.1970 hc        1 I32      0.076144
     37 H142        1.8130    0.4880    5.5170 hc        1 I32      0.076144
     38 H143        0.3990    0.1130    4.4510 hc        1 I32      0.076144
     39 H5          2.7310   -3.9020   -1.2400 ha        1 I32      0.136000
     40 H6          3.6510   -5.4310   -2.9400 ha        1 I32      0.149000
     41 H7          3.2400   -5.0560   -5.3760 ha        1 I32      0.154000
     42 H1          1.9100   -3.2700   -7.1270 hn        1 I32      0.323700
     43 H22         0.4320    0.9990    2.1730 hn        1 I32      0.457800
@<TRIPOS>BOND
     1    1    2 1   
     2    1   23 1   
     3    2    3 1   
     4    2    8 1   
     5    2   24 1   
     6    3    4 1   
     7    3   25 1   
     8    3   26 1   
     9    4    5 1   
    10    4   29 1   
    11    4   43 1   
    12    5    6 1   
    13    5    7 1   
    14    5   20 1   
    15    6   30 1   
    16    6   31 1   
    17    6   32 1   
    18    7   33 1   
    19    7   34 1   
    20    7   35 1   
    21    8    9 1   
    22    8   27 1   
    23    8   28 1   
    24    9   10 1   
    25   10   11 ar  
    26   10   15 ar  
    27   11   12 ar  
    28   11   39 1   
    29   12   13 ar  
    30   12   40 1   
    31   13   14 ar  
    32   13   41 1   
    33   14   15 ar  
    34   14   16 1   
    35   15   18 1   
    36   16   17 1   
    37   16   42 1   
    38   17   18 2   
    39   17   19 1   
    40   18   21 1   
    41   19   22 3   
    42   20   36 1   
    43   20   37 1   
    44   20   38 1   
@<TRIPOS>SUBSTRUCTURE
     1 I32         1 TEMP              0 ****  ****    0 ROOT
