@<TRIPOS>MOLECULE
I32
   42    36     1     0     0
SMALL
bcc


@<TRIPOS>ATOM
      1 O2         -1.6530    0.9310    0.4200 oh        1 I32     -0.318000
      2 C10        -0.2620    0.8140    0.4460 c3        1 I32     -0.015000
      3 C11         0.2290    0.8110    1.9210 c3        1 I32     -0.103000
      4 N2         -0.1700    2.0540    2.5660 n3        1 I32     -0.291000
      5 C12         0.2530    2.0410    3.9740 c3        1 I32      0.025000
      6 C15        -0.2720    3.2880    4.6720 c3        1 I32     -0.219667
      7 C13        -0.3190    0.7730    4.6820 c3        1 I32     -0.219667
      8 C9          0.1500   -0.4660   -0.2190 c3        1 I32     -0.057000
      9 O1         -0.0210   -0.3480   -1.6520 os        1 I32     -0.196000
     10 C4          0.3330   -1.5390   -2.3810 c2        1 I32      0.147000
     11 C5          1.2160   -2.5410   -2.0610 c2        1 I32     -0.242000
     12 C6          1.5280   -3.5320   -3.0100 c1        1 I32     -0.060000
     13 C7          0.9500   -3.4980   -4.2540 c1        1 I32     -0.183000
     14 C8          0.0410   -2.4690   -4.5840 c1        1 I32      0.045000
     15 C3         -0.2640   -1.5050   -3.6650 c1        1 I32     -0.093000
     16 N1         -0.7870   -2.2840   -5.6910 n1        1 I32     -0.187000
     17 C1         -1.5800   -1.2280   -5.4470 c1        1 I32      0.050000
     18 C2         -1.2610   -0.7330   -4.1820 c1        1 I32     -0.257000
     19 C16        -2.4190   -0.8510   -6.6680 c1        1 I32     -0.089000
     20 C14         1.7630    2.0240    4.0460 c3        1 I32     -0.219667
     21 IAA        -2.4620    0.9720   -4.1420 i         1 I32      0.208000
     22 NAF        -3.0520   -0.5670   -7.5890 n1        1 I32     -0.002000
     23 H2         -2.0230    0.1140    0.4260 ho        1 I32      0.199000
     24 H10         0.1380    1.5720   -0.0290 h1        1 I32      0.141000
     25 H111       -0.1740    0.0430    2.4030 h1        1 I32      0.100000
     26 H112        1.2300    0.7290    1.9400 h1        1 I32      0.100000
     27 H91C        1.0880   -0.6490   -0.0190 h1        1 I32      0.090000
     28 H92C       -0.4050   -1.2000    0.1160 h1        1 I32      0.090000
     29 HA          0.2310    2.7710    2.1300 hn        1 I32      0.164000
     30 H151       -1.2430    3.3090    4.6110 hc        1 I32      0.078778
     31 H152       -0.0040    3.2720    5.6150 hc        1 I32      0.078778
     32 H153        0.1030    4.0930    4.2360 hc        1 I32      0.078778
     33 H131        0.2090   -0.0110    4.4290 hc        1 I32      0.078778
     34 H132       -0.2770    0.8980    5.6720 hc        1 I32      0.078778
     35 H133       -1.2580    0.6390    4.4070 hc        1 I32      0.078778
     36 H141        2.1290    2.7340    3.4600 hc        1 I32      0.078778
     37 H142        2.0520    2.1860    4.9810 hc        1 I32      0.078778
     38 H143        2.1000    1.1400    3.7440 hc        1 I32      0.078778
     39 H5          1.6260   -2.5650   -1.1820 ha        1 I32      0.141000
     40 H6          2.1620   -4.2540   -2.7810 ha        1 I32      0.137000
     41 H7          1.1670   -4.1830   -4.9090 ha        1 I32      0.141000
     42 H1         -0.7910   -2.7830   -6.4360 DU        1 I32      0.264000
@<TRIPOS>BOND
     1    1    2 1   
     2    1   23 1   
     3    2    3 1   
     4    2    8 1   
     5    2   24 1   
     6    3    4 1   
     7    3   25 1   
     8    3   26 1   
     9    4    5 1   
    10    4   29 1   
    11    5    6 1   
    12    5    7 1   
    13    5   20 1   
    14    6   30 1   
    15    6   31 1   
    16    6   32 1   
    17    7   33 1   
    18    7   34 1   
    19    7   35 1   
    20    8    9 1   
    21    8   27 1   
    22    8   28 1   
    23    9   10 1   
    24   10   11 1   
    25   10   15 1   
    26   11   12 1   
    27   11   39 1   
    28   12   40 1   
    29   13   14 1   
    30   13   41 1   
    31   16   17 1   
    32   17   18 1   
    33   19   22 1   
    34   20   36 1   
    35   20   37 1   
    36   20   38 1   
@<TRIPOS>SUBSTRUCTURE
     1 I32         1 TEMP              0 ****  ****    0 ROOT
