@<TRIPOS>MOLECULE
I32
   42    43     1     0     0
SMALL
bcc


@<TRIPOS>ATOM
      1 O2         -3.5060    0.4340    3.1280 oh        1 I32     -0.588800
      2 C10        -2.8760    0.4280    1.8620 c3        1 I32      0.131100
      3 C11        -3.8460    0.6720    0.6940 c3        1 I32      0.128800
      4 N2         -5.0370   -0.1470    0.7480 n3        1 I32     -0.818200
      5 C12        -5.6820   -0.4000   -0.5490 c3        1 I32      0.185200
      6 C15        -4.8750   -1.3350   -1.4670 c3        1 I32     -0.100767
      7 C13        -7.0470   -1.0710   -0.3040 c3        1 I32     -0.100767
      8 C9         -1.7760    1.5000    1.8550 c3        1 I32      0.093400
      9 O1         -0.8660    1.1170    0.8170 os        1 I32     -0.315900
     10 C4          0.2580    1.9010    0.6810 ca        1 I32      0.193100
     11 C5          0.4980    3.0580    1.4190 ca        1 I32     -0.242000
     12 C6          1.6640    3.8170    1.2160 ca        1 I32     -0.059000
     13 C7          2.6170    3.4590    0.2830 ca        1 I32     -0.184000
     14 C8          2.3840    2.2910   -0.4680 ca        1 I32      0.000800
     15 C3          1.2000    1.4800   -0.2860 ca        1 I32     -0.105800
     16 N1          3.1680    1.7060   -1.4570 na        1 I32     -0.164400
     17 C1          2.5140    0.5470   -1.9040 cc        1 I32      0.055200
     18 C2          1.3060    0.3770   -1.2100 cd        1 I32      0.027600
     19 C16         3.0580   -0.2800   -2.9140 cg        1 I32      0.203500
     20 C14        -5.9360    0.9060   -1.3160 c3        1 I32     -0.100767
     21 IAA         0.0490   -1.1410   -1.5080 i         1 I32     -0.065800
     22 NAF         3.4940   -0.9680   -3.7440 n1        1 I32     -0.327800
     23 H2         -4.1740    1.1310    3.1210 ho        1 I32      0.410000
     24 H10        -2.4040   -0.5930    1.7830 h1        1 I32      0.091700
     25 H111       -4.1930    1.7460    0.7220 h1        1 I32      0.047700
     26 H112       -3.2480    0.5370   -0.2550 h1        1 I32      0.047700
     27 H91C       -2.1950    2.5160    1.6330 h1        1 I32      0.052700
     28 H92C       -1.2490    1.5080    2.8450 h1        1 I32      0.052700
     29 HA         -4.8480   -1.0220    1.2020 hn        1 I32      0.366800
     30 H151       -4.6970   -2.3180   -0.9700 hc        1 I32      0.039256
     31 H152       -5.4430   -1.5130   -2.4110 hc        1 I32      0.039256
     32 H153       -3.8890   -0.8830   -1.7320 hc        1 I32      0.039256
     33 H131       -7.6990   -0.4170    0.3220 hc        1 I32      0.039256
     34 H132       -7.5490   -1.2460   -1.2850 hc        1 I32      0.039256
     35 H133       -6.9200   -2.0520    0.2110 hc        1 I32      0.039256
     36 H141       -4.9730    1.3870   -1.6100 hc        1 I32      0.039256
     37 H142       -6.5160    0.6790   -2.2420 hc        1 I32      0.039256
     38 H143       -6.5220    1.6220   -0.6920 hc        1 I32      0.039256
     39 H5         -0.2200    3.3990    2.1780 ha        1 I32      0.142000
     40 H6          1.8120    4.7250    1.8230 ha        1 I32      0.137000
     41 H7          3.5240    4.0580    0.1280 ha        1 I32      0.141000
     42 H1          4.0360    2.0400   -1.7860 hn        1 I32      0.313700
@<TRIPOS>BOND
     1    1    2 1   
     2    1   23 1   
     3    2    3 1   
     4    2    8 1   
     5    2   24 1   
     6    3    4 1   
     7    3   25 1   
     8    3   26 1   
     9    4    5 1   
    10    4   29 1   
    11    5    6 1   
    12    5    7 1   
    13    5   20 1   
    14    6   30 1   
    15    6   31 1   
    16    6   32 1   
    17    7   33 1   
    18    7   34 1   
    19    7   35 1   
    20    8    9 1   
    21    8   27 1   
    22    8   28 1   
    23    9   10 1   
    24   10   11 ar  
    25   10   15 ar  
    26   11   12 ar  
    27   11   39 1   
    28   12   13 ar  
    29   12   40 1   
    30   13   14 ar  
    31   13   41 1   
    32   14   15 ar  
    33   14   16 1   
    34   15   18 1   
    35   16   17 1   
    36   16   42 1   
    37   17   18 2   
    38   17   19 1   
    39   18   21 1   
    40   19   22 3   
    41   20   36 1   
    42   20   37 1   
    43   20   38 1   
@<TRIPOS>SUBSTRUCTURE
     1 I32         1 TEMP              0 ****  ****    0 ROOT
