@<TRIPOS>MOLECULE
I32
   43    44     1     0     0
SMALL
bcc


@<TRIPOS>ATOM
      1 O2         -0.0090   -0.2170    0.2190 oh        1 I32     -0.635800
      2 C10         1.3930   -0.2320    0.0050 c3        1 I32      0.121100
      3 C11         2.0500   -0.0230    1.3830 c3        1 I32      0.098800
      4 N2          1.4730    1.1500    2.0920 n4        1 I32     -0.760000
      5 C12         1.9800    1.3490    3.5190 c3        1 I32      0.152200
      6 C15         3.5070    1.4030    3.5460 c3        1 I32     -0.128433
      7 C13         1.4200    2.6800    4.0380 c3        1 I32     -0.128433
      8 C9          1.8650   -1.5700   -0.5770 c3        1 I32      0.098400
      9 O1          1.1760   -1.6710   -1.8230 os        1 I32     -0.336900
     10 C4          1.7500   -2.5300   -2.7520 ca        1 I32      0.152100
     11 C5          2.4830   -3.6530   -2.3860 ca        1 I32     -0.210000
     12 C6          2.9880   -4.5290   -3.3650 ca        1 I32     -0.075000
     13 C7          2.7750   -4.3140   -4.7130 ca        1 I32     -0.146000
     14 C8          2.0310   -3.1790   -5.0870 ca        1 I32     -0.008200
     15 C3          1.5020   -2.2490   -4.1100 ca        1 I32     -0.088800
     16 N1          1.6770   -2.7270   -6.3550 na        1 I32     -0.154400
     17 C1          0.9360   -1.5480   -6.2070 cc        1 I32      0.095200
     18 C2          0.8100   -1.2210   -4.8470 cd        1 I32     -0.001400
     19 C16         0.4210   -0.8360   -7.3170 cg        1 I32      0.184500
     20 C14         1.4860    0.2160    4.4210 c3        1 I32     -0.128433
     21 IAA        -0.1600    0.3780   -4.1600 i         1 I32     -0.074800
     22 NAF        -0.0080   -0.2380   -8.2170 n1        1 I32     -0.291800
     23 H2         -0.4330   -0.5660   -0.5810 ho        1 I32      0.472000
     24 H10         1.6670    0.6040   -0.7010 h1        1 I32      0.078700
     25 H111        1.8790   -0.9360    2.0220 hx        1 I32      0.109700
     26 H112        3.1550    0.1370    1.2450 hx        1 I32      0.109700
     27 H91C        1.5500   -2.4240    0.0800 h1        1 I32      0.065700
     28 H92C        2.9750   -1.5740   -0.7210 h1        1 I32      0.065700
     29 HA          0.4490    1.0310    2.1250 hn        1 I32      0.457800
     30 H151        3.9530    0.4100    3.2960 hc        1 I32      0.076144
     31 H152        3.9040    2.1760    2.8440 hc        1 I32      0.076144
     32 H153        3.8310    1.6750    4.5820 hc        1 I32      0.076144
     33 H131        0.3030    2.6780    4.0430 hc        1 I32      0.076144
     34 H132        1.7880    3.5420    3.4290 hc        1 I32      0.076144
     35 H133        1.7720    2.8250    5.0900 hc        1 I32      0.076144
     36 H141        0.3730    0.1240    4.3910 hc        1 I32      0.076144
     37 H142        1.9460   -0.7620    4.1400 hc        1 I32      0.076144
     38 H143        1.7890    0.4490    5.4730 hc        1 I32      0.076144
     39 H5          2.6680   -3.8790   -1.3270 ha        1 I32      0.136000
     40 H6          3.5620   -5.4110   -3.0380 ha        1 I32      0.149000
     41 H7          3.1690   -5.0050   -5.4720 ha        1 I32      0.154000
     42 H1          1.8840   -3.1750   -7.2120 hn        1 I32      0.323700
     43 H22         1.6780    1.9990    1.5560 hn        1 I32      0.457800
@<TRIPOS>BOND
     1    1    2 1   
     2    1   23 1   
     3    2    3 1   
     4    2    8 1   
     5    2   24 1   
     6    3    4 1   
     7    3   25 1   
     8    3   26 1   
     9    4    5 1   
    10    4   29 1   
    11    4   43 1   
    12    5    6 1   
    13    5    7 1   
    14    5   20 1   
    15    6   30 1   
    16    6   31 1   
    17    6   32 1   
    18    7   33 1   
    19    7   34 1   
    20    7   35 1   
    21    8    9 1   
    22    8   27 1   
    23    8   28 1   
    24    9   10 1   
    25   10   11 ar  
    26   10   15 ar  
    27   11   12 ar  
    28   11   39 1   
    29   12   13 ar  
    30   12   40 1   
    31   13   14 ar  
    32   13   41 1   
    33   14   15 ar  
    34   14   16 1   
    35   15   18 1   
    36   16   17 1   
    37   16   42 1   
    38   17   18 2   
    39   17   19 1   
    40   18   21 1   
    41   19   22 3   
    42   20   36 1   
    43   20   37 1   
    44   20   38 1   
@<TRIPOS>SUBSTRUCTURE
     1 I32         1 TEMP              0 ****  ****    0 ROOT
