@<TRIPOS>MOLECULE
I37
   44    44     1     0     0
SMALL
bcc


@<TRIPOS>ATOM
      1 N1        -11.5890   98.7120   59.8230 n1        1 I37     -0.209800
      2 C1        -11.0030   97.7510   59.5320 c1        1 I37      0.121700
      3 C2        -10.3090   96.5190   59.2150 c3        1 I37      0.186900
      4 N3         -9.2840   96.7210   58.1470 ny        1 I37     -0.669800
      5 C4         -8.5320   95.4500   57.7830 c         1 I37      0.533100
      6 O5         -8.8510   94.4460   58.3950 o         1 I37     -0.418100
      7 C6         -7.4370   95.5470   56.6760 c3        1 I37      0.154200
      8 C7         -6.1460   95.0270   57.3600 c3        1 I37     -0.097400
      9 C8         -5.0520   94.8030   56.3380 c3        1 I37     -0.083400
     10 C9         -5.4900   93.8390   55.2560 c3        1 I37     -0.089400
     11 C10        -6.7730   94.2930   54.5920 c3        1 I37     -0.083400
     12 C11        -7.8760   94.5150   55.6050 c3        1 I37     -0.097400
     13 N12        -7.3370   96.9020   56.1810 n8        1 I37     -0.962800
     14 C13        25.2700 -191.2740 -109.8590 c1        1 I37      0.735600
     15 O14        25.0390 -192.4030 -109.6890 o         1 I37     -0.188500
     16 C15        25.5440 -189.9490 -110.0620 cc        1 I37     -0.316100
     17 C16        25.0370 -188.9690 -109.1590 cc        1 I37     -0.007000
     18 C17        25.3110 -187.6340 -109.3620 cd        1 I37     -0.026100
     19 C18        26.1210 -187.1940 -110.4950 cd        1 I37      0.445900
     20 C19        26.6140 -188.2140 -111.3810 cd        1 I37     -0.314600
     21 C20        26.3370 -189.5370 -111.1740 cc        1 I37      0.044000
     22 N21        26.3910 -185.8960 -110.6960 nv        1 I37     -0.429100
     23 F22        24.8290 -186.7020 -108.5050 f         1 I37     -0.132500
     24 H1        -11.0480   95.7360   58.8600 hx        1 I37      0.142700
     25 H2         -9.7900   96.1160   60.1390 hx        1 I37      0.142700
     26 H3         -8.5970   97.4240   58.4510 hn        1 I37      0.472300
     27 H4         -6.3830   94.0570   57.8730 hc        1 I37      0.072200
     28 H5         -5.8000   95.7570   58.1370 hc        1 I37      0.072200
     29 H6         -4.1510   94.3880   56.8650 hc        1 I37      0.064200
     30 H7         -4.7440   95.7780   55.8780 hc        1 I37      0.064200
     31 H8         -5.6370   92.8180   55.6990 hc        1 I37      0.068200
     32 H9         -4.6810   93.7540   54.4830 hc        1 I37      0.068200
     33 H10        -7.1130   93.5100   53.8610 hc        1 I37      0.064200
     34 H11        -6.5880   95.2310   54.0070 hc        1 I37      0.064200
     35 H12        -8.1090   93.5450   56.1220 hc        1 I37      0.072200
     36 H13        -8.8060   94.8660   55.0880 hc        1 I37      0.072200
     37 H14        -7.5620   96.9630   55.2080 hn        1 I37      0.401800
     38 H15        24.4210 -189.2720 -108.2930 ha        1 I37      0.186000
     39 H16        27.2300 -187.9170 -112.2480 ha        1 I37      0.183000
     40 H17        26.7310 -190.2970 -111.8730 ha        1 I37      0.174000
     41 H18        26.0400 -185.2020 -110.0700 hn        1 I37      0.322200
     42 H19        26.9440 -185.6010 -111.4700 hn        1 I37      0.322200
     43 H32        -9.7340   97.0820   57.2960 hn        1 I37      0.472300
     44 H122       -6.4340   97.2990   56.3550 hn        1 I37      0.401800
@<TRIPOS>BOND
     1    1    2 3   
     2    2    3 1   
     3    3    4 1   
     4    3   24 1   
     5    3   25 1   
     6    4    5 1   
     7    4   26 1   
     8    4   43 1   
     9    5    6 2   
    10    5    7 1   
    11    7    8 1   
    12    7   12 1   
    13    7   13 1   
    14    8    9 1   
    15    8   27 1   
    16    8   28 1   
    17    9   10 1   
    18    9   29 1   
    19    9   30 1   
    20   10   11 1   
    21   10   31 1   
    22   10   32 1   
    23   11   12 1   
    24   11   33 1   
    25   11   34 1   
    26   12   35 1   
    27   12   36 1   
    28   13   37 1   
    29   13   44 1   
    30   14   15 2   
    31   14   16 2   
    32   16   17 1   
    33   16   21 1   
    34   17   18 2   
    35   17   38 1   
    36   18   19 1   
    37   18   23 1   
    38   19   20 1   
    39   19   22 2   
    40   20   21 2   
    41   20   39 1   
    42   21   40 1   
    43   22   41 1   
    44   22   42 1   
@<TRIPOS>SUBSTRUCTURE
     1 I37         1 TEMP              0 ****  ****    0 ROOT
