@<TRIPOS>MOLECULE
I37
   44    45     1     0     0
SMALL
bcc


@<TRIPOS>ATOM
      1 N1         -2.0210    1.5210    0.5500 n1        1 I37     -0.162800
      2 C1         -1.1800    0.8240    0.9500 c1        1 I37      0.098700
      3 C2         -0.1900   -0.0830    1.4910 c3        1 I37      0.204900
      4 N3          1.1720    0.2110    0.9160 n4        1 I37     -0.661800
      5 C4          2.2360   -0.6930    1.4540 c         1 I37      0.532100
      6 O5          1.8970   -1.6210    2.1740 o         1 I37     -0.385100
      7 C6          3.7120   -0.4130    1.0830 c3        1 I37      0.100200
      8 C7          3.9010    0.8240    0.1860 c3        1 I37     -0.107900
      9 C8          5.3680    1.1560   -0.0230 c3        1 I37     -0.094900
     10 C9          6.0940    1.3420    1.2910 c3        1 I37     -0.103400
     11 C10         5.9080    0.1630    2.2210 c3        1 I37     -0.094900
     12 C11         4.4460   -0.1700    2.4290 c3        1 I37     -0.107900
     13 N12         4.2550   -1.6590    0.4160 n4        1 I37     -0.684800
     14 C13         3.4690   -2.1340   -0.8170 c         1 I37      0.608700
     15 O14         2.3600   -1.5890   -0.9160 o         1 I37     -0.597100
     16 C15         4.0850   -3.1090   -1.6440 ca        1 I37     -0.295600
     17 C16         5.3490   -3.7020   -1.3940 ca        1 I37     -0.068000
     18 C17         5.8680   -4.6510   -2.2520 ca        1 I37      0.050900
     19 C18         5.1350   -5.0770   -3.4420 ca        1 I37      0.293600
     20 C19         3.8600   -4.4600   -3.6640 ca        1 I37     -0.232000
     21 C20         3.3610   -3.5210   -2.8020 ca        1 I37      0.044000
     22 N21         5.6360   -5.9990   -4.2770 nh        1 I37     -0.765200
     23 F22         7.0760   -5.2060   -1.9950 f         1 I37     -0.105900
     24 H1         -0.1350    0.0190    2.6190 hx        1 I37      0.151700
     25 H2         -0.4590   -1.1570    1.2390 hx        1 I37      0.151700
     26 H3          1.4200    1.1910    1.1090 hn        1 I37      0.487300
     27 H4          3.4300    1.7050    0.7010 hc        1 I37      0.088450
     28 H5          3.4010    0.6710   -0.8080 hc        1 I37      0.088450
     29 H6          5.4280    2.1120   -0.6160 hc        1 I37      0.078450
     30 H7          5.8730    0.3720   -0.6450 hc        1 I37      0.078450
     31 H8          7.1910    1.4880    1.0920 hc        1 I37      0.089200
     32 H9          5.7280    2.2770    1.7940 hc        1 I37      0.089200
     33 H10         6.4670   -0.7300    1.8370 hc        1 I37      0.078450
     34 H11         6.3560    0.4110    3.2240 hc        1 I37      0.078450
     35 H12         4.3360   -1.0650    3.0990 hc        1 I37      0.088450
     36 H13         3.9380    0.6960    2.9340 hc        1 I37      0.088450
     37 H14         5.2250   -1.4540    0.1350 hn        1 I37      0.476800
     38 H15         5.9550   -3.4410   -0.5120 ha        1 I37      0.140000
     39 H16         3.2700   -4.7520   -4.5510 ha        1 I37      0.184000
     40 H17         2.3730   -3.0640   -2.9990 ha        1 I37      0.174000
     41 H18         5.1280   -6.2860   -5.0860 hn        1 I37      0.479800
     42 H19         6.5250   -6.4180   -4.1010 hn        1 I37      0.479800
     43 H32         1.1440    0.0780   -0.1120 hn        1 I37      0.487300
     44 H122        4.2690   -2.4230    1.1060 hn        1 I37      0.476800
@<TRIPOS>BOND
     1    1    2 3   
     2    2    3 1   
     3    3    4 1   
     4    3   24 1   
     5    3   25 1   
     6    4    5 1   
     7    4   26 1   
     8    4   43 1   
     9    5    6 2   
    10    5    7 1   
    11    7    8 1   
    12    7   12 1   
    13    7   13 1   
    14    8    9 1   
    15    8   27 1   
    16    8   28 1   
    17    9   10 1   
    18    9   29 1   
    19    9   30 1   
    20   10   11 1   
    21   10   31 1   
    22   10   32 1   
    23   11   12 1   
    24   11   33 1   
    25   11   34 1   
    26   12   35 1   
    27   12   36 1   
    28   13   14 1   
    29   13   37 1   
    30   13   44 1   
    31   14   15 2   
    32   14   16 1   
    33   16   17 ar  
    34   16   21 ar  
    35   17   18 ar  
    36   17   38 1   
    37   18   19 ar  
    38   18   23 1   
    39   19   20 ar  
    40   19   22 1   
    41   20   21 ar  
    42   20   39 1   
    43   21   40 1   
    44   22   41 1   
    45   22   42 1   
@<TRIPOS>SUBSTRUCTURE
     1 I37         1 TEMP              0 ****  ****    0 ROOT
