@<TRIPOS>MOLECULE
I38
   22    21     1     0     0
SMALL
bcc


@<TRIPOS>ATOM
      1 S           1.3970    1.8720    0.3180 sh        1 I38     -0.347900
      2 C1          2.6630    0.6520    0.4110 c3        1 I38     -0.015300
      3 C2          2.3440   -0.3570    1.4920 c3        1 I38     -0.158400
      4 C3          3.3030   -1.5160    1.4350 c         1 I38      0.560100
      5 O3          3.2560   -2.4790    0.6770 o         1 I38     -0.470100
      6 N4          4.4330   -1.5180    2.4170 n4        1 I38     -0.667800
      7 C5          5.4210   -0.4190    2.1300 c3        1 I38     -0.053500
      8 C51         6.8010   -0.7450    2.6540 c3        1 I38     -0.108100
      9 C6          4.9050    0.9230    2.8300 c         1 I38      0.924600
     10 O62         5.2650    1.9780    2.2800 o         1 I38     -0.764800
     11 O61         4.1540    0.7460    3.8250 o         1 I38     -0.764800
     12 HS          1.8320    2.7210    1.2410 hs        1 I38      0.232800
     13 H11         3.6600    1.1280    0.6080 h1        1 I38      0.101200
     14 H12         2.6920    0.1600   -0.5930 h1        1 I38      0.101200
     15 H21         2.3800    0.1500    2.5010 hc        1 I38      0.120700
     16 H22         1.3110   -0.7770    1.3370 hc        1 I38      0.120700
     17 HN4         4.8980   -2.4260    2.4280 hn        1 I38      0.457800
     18 H5          5.4550   -0.2610    1.0170 hx        1 I38      0.089700
     19 H511        6.7910   -0.8920    3.7620 hc        1 I38      0.061367
     20 H512        7.2330   -1.6510    2.1660 hc        1 I38      0.061367
     21 H513        7.4550    0.1360    2.4270 hc        1 I38      0.061367
     22 H42         4.0530   -1.2950    3.3640 hn        1 I38      0.457800
@<TRIPOS>BOND
     1    1    2 1   
     2    1   12 1   
     3    2    3 1   
     4    2   13 1   
     5    2   14 1   
     6    3    4 1   
     7    3   15 1   
     8    3   16 1   
     9    4    5 2   
    10    4    6 1   
    11    6    7 1   
    12    6   17 1   
    13    6   22 1   
    14    7    8 1   
    15    7    9 1   
    16    7   18 1   
    17    8   19 1   
    18    8   20 1   
    19    8   21 1   
    20    9   10 1   
    21    9   11 1   
@<TRIPOS>SUBSTRUCTURE
     1 I38         1 TEMP              0 ****  ****    0 ROOT
