@<TRIPOS>MOLECULE
I38
   22    21     1     0     0
SMALL
bcc


@<TRIPOS>ATOM
      1 S           0.3900    0.2650    0.4090 sh        1 I38     -0.350900
      2 C1          1.9710    1.0420    0.2960 c3        1 I38     -0.006300
      3 C2          2.9350    0.6360    1.3800 c3        1 I38     -0.160400
      4 C3          3.5090   -0.7310    1.1540 c         1 I38      0.564100
      5 O3          3.3510   -1.4700    0.1850 o         1 I38     -0.487100
      6 N4          4.3790   -1.2620    2.2460 n4        1 I38     -0.665800
      7 C5          5.6570   -0.4750    2.3700 c3        1 I38     -0.059500
      8 C51         6.7850   -1.3080    2.9310 c3        1 I38     -0.108100
      9 C6          5.4020    0.7780    3.3400 c         1 I38      0.927600
     10 O62         6.2780    1.6560    3.3000 o         1 I38     -0.761300
     11 O61         4.3300    0.7270    3.9990 o         1 I38     -0.761300
     12 HS          0.6400   -0.8470   -0.2620 hs        1 I38      0.205800
     13 H11         2.4240    0.8800   -0.7120 h1        1 I38      0.096700
     14 H12         1.7590    2.1390    0.4090 h1        1 I38      0.096700
     15 H21         3.7960    1.3690    1.4360 hc        1 I38      0.138200
     16 H22         2.4420    0.6770    2.3970 hc        1 I38      0.138200
     17 HN4         4.5750   -2.2540    2.1020 hn        1 I38      0.460300
     18 H5          5.9300   -0.0870    1.3510 hx        1 I38      0.087700
     19 H511        7.0640   -2.1490    2.2510 hc        1 I38      0.061700
     20 H512        6.5310   -1.7190    3.9380 hc        1 I38      0.061700
     21 H513        7.6670   -0.6260    3.0470 hc        1 I38      0.061700
     22 H42         3.8860   -1.1150    3.1560 hn        1 I38      0.460300
@<TRIPOS>BOND
     1    1    2 1   
     2    1   12 1   
     3    2    3 1   
     4    2   13 1   
     5    2   14 1   
     6    3    4 1   
     7    3   15 1   
     8    3   16 1   
     9    4    5 2   
    10    4    6 1   
    11    6    7 1   
    12    6   17 1   
    13    6   22 1   
    14    7    8 1   
    15    7    9 1   
    16    7   18 1   
    17    8   19 1   
    18    8   20 1   
    19    8   21 1   
    20    9   10 1   
    21    9   11 1   
@<TRIPOS>SUBSTRUCTURE
     1 I38         1 TEMP              0 ****  ****    0 ROOT
