@<TRIPOS>MOLECULE
I38
   21    20     1     0     0
SMALL
bcc


@<TRIPOS>ATOM
      1 S           4.4200   -0.6710    0.0900 sh        1 I38     -0.417900
      2 C1          3.0060    0.3190   -0.3390 c3        1 I38      0.035700
      3 C2          1.7820   -0.3710    0.2030 c3        1 I38     -0.153400
      4 C3          0.5360    0.4730   -0.0690 c         1 I38      0.642100
      5 O3          0.6460    1.5920   -0.6250 o         1 I38     -0.664100
      6 N4         -0.6500   -0.0350    0.3750 n         1 I38     -0.514900
      7 C5         -1.9420    0.5170    0.0170 c3        1 I38     -0.047300
      8 C51        -2.4570    1.5340    1.0290 c3        1 I38     -0.080100
      9 C6         -3.0280   -0.6100   -0.1440 c         1 I38      0.912600
     10 O62        -2.7430   -1.7840    0.2230 o         1 I38     -0.832300
     11 O61        -4.1270   -0.2520   -0.6430 o         1 I38     -0.832300
     12 HS          5.3590    0.0670   -0.4720 hs        1 I38      0.193800
     13 H11         3.0970    1.3420    0.0990 h1        1 I38      0.074200
     14 H12         2.9270    0.4320   -1.4460 h1        1 I38      0.074200
     15 H21         1.6600   -1.3760   -0.2800 hc        1 I38      0.070200
     16 H22         1.8850   -0.5290    1.3090 hc        1 I38      0.070200
     17 HN4        -0.6910   -0.9910    0.6680 hn        1 I38      0.329500
     18 H5         -1.8450    1.0360   -0.9820 h1        1 I38      0.056700
     19 H511       -3.4750    1.8550    0.7000 hc        1 I38      0.027367
     20 H512       -2.5370    1.0840    2.0470 hc        1 I38      0.027367
     21 H513       -1.7870    2.4250    1.0820 hc        1 I38      0.027367
@<TRIPOS>BOND
     1    1    2 1   
     2    1   12 1   
     3    2    3 1   
     4    2   13 1   
     5    2   14 1   
     6    3    4 1   
     7    3   15 1   
     8    3   16 1   
     9    4    5 2   
    10    4    6 1   
    11    6    7 1   
    12    6   17 1   
    13    7    8 1   
    14    7    9 1   
    15    7   18 1   
    16    8   19 1   
    17    8   20 1   
    18    8   21 1   
    19    9   10 1   
    20    9   11 1   
@<TRIPOS>SUBSTRUCTURE
     1 I38         1 TEMP              0 ****  ****    0 ROOT
