@<TRIPOS>MOLECULE
I38
   22    21     1     0     0
SMALL
bcc


@<TRIPOS>ATOM
      1 S           1.3020    1.7140    0.2910 sh        1 I38     -0.347900
      2 C1          2.6090    0.5410    0.4090 c3        1 I38     -0.015300
      3 C2          2.3440   -0.4310    1.5380 c3        1 I38     -0.158400
      4 C3          3.3380   -1.5600    1.5110 c         1 I38      0.560100
      5 O3          3.3080   -2.5560    0.7960 o         1 I38     -0.470100
      6 N4          4.4870   -1.4830    2.4680 ny        1 I38     -0.667800
      7 C5          5.4340   -0.3670    2.1130 c3        1 I38     -0.053500
      8 C51         6.8330   -0.6260    2.6220 c3        1 I38     -0.108100
      9 C6          4.8880    0.9870    2.7660 c         1 I38      0.924600
     10 O62         5.2020    2.0280    2.1640 o         1 I38     -0.764800
     11 O61         4.1630    0.8300    3.7840 o         1 I38     -0.764800
     12 HS          1.7270    2.6160    1.1670 hs        1 I38      0.232800
     13 H11         3.5930    1.0560    0.5650 h1        1 I38      0.101200
     14 H12         2.6330    0.0070   -0.5740 h1        1 I38      0.101200
     15 H21         1.3230   -0.8890    1.4240 hc        1 I38      0.120700
     16 H22         2.3830    0.1210    2.5240 hc        1 I38      0.120700
     17 HN4         4.9820   -2.3750    2.5080 hn        1 I38      0.457800
     18 H5          5.4400   -0.2570    0.9940 hx        1 I38      0.089700
     19 H511        7.2850   -1.5380    2.1630 hc        1 I38      0.061367
     20 H512        7.4540    0.2650    2.3430 hc        1 I38      0.061367
     21 H513        6.8500   -0.7250    3.7350 hc        1 I38      0.061367
     22 H42         4.1200   -1.2320    3.4120 hn        1 I38      0.457800
@<TRIPOS>BOND
     1    1    2 1   
     2    1   12 1   
     3    2    3 1   
     4    2   13 1   
     5    2   14 1   
     6    3    4 1   
     7    3   15 1   
     8    3   16 1   
     9    4    5 2   
    10    4    6 1   
    11    6    7 1   
    12    6   17 1   
    13    6   22 1   
    14    7    8 1   
    15    7    9 1   
    16    7   18 1   
    17    8   19 1   
    18    8   20 1   
    19    8   21 1   
    20    9   10 1   
    21    9   11 1   
@<TRIPOS>SUBSTRUCTURE
     1 I38         1 TEMP              0 ****  ****    0 ROOT
