@<TRIPOS>MOLECULE
I38
   21    20     1     0     0
SMALL
bcc


@<TRIPOS>ATOM
      1 S          -0.8630   -3.1600   -3.0970 sh        1 I38     -0.417900
      2 C1         -0.9320   -1.5270   -2.4100 c3        1 I38      0.035700
      3 C2         -0.4840   -1.5690   -0.9650 c3        1 I38     -0.153400
      4 C3         -0.3920   -0.1590   -0.4250 c         1 I38      0.642100
      5 O3         -1.0210    0.7370   -0.9530 o         1 I38     -0.664100
      6 N4          0.4360    0.1200    0.6930 n         1 I38     -0.514900
      7 C5          0.5390    1.4470    1.1870 c3        1 I38     -0.047300
      8 C51         1.8700    1.6250    1.8820 c3        1 I38     -0.080100
      9 C6         -0.5810    1.7080    2.1690 c         1 I38      0.912600
     10 O62        -1.1880    2.8110    2.1530 o         1 I38     -0.832300
     11 O61        -0.9050    0.8230    3.0040 o         1 I38     -0.832300
     12 HS         -1.4040   -3.1680   -4.1430 hs        1 I38      0.193800
     13 H11        -0.3420   -0.9340   -2.9170 h1        1 I38      0.074200
     14 H12        -1.8500   -1.1920   -2.4570 h1        1 I38      0.074200
     15 H21         0.3930   -1.9980   -0.9080 hc        1 I38      0.070200
     16 H22        -1.1320   -2.0780   -0.4380 hc        1 I38      0.070200
     17 HN4         0.9100   -0.5520    1.0870 hn        1 I38      0.329500
     18 H5          0.4730    2.0780    0.4430 h1        1 I38      0.056700
     19 H511        1.9610    2.5530    2.1830 hc        1 I38      0.027367
     20 H512        1.9170    1.0240    2.6560 hc        1 I38      0.027367
     21 H513        2.5960    1.4110    1.2580 hc        1 I38      0.027367
@<TRIPOS>BOND
     1    1    2 1   
     2    1   12 1   
     3    2    3 1   
     4    2   13 1   
     5    2   14 1   
     6    3    4 1   
     7    3   15 1   
     8    3   16 1   
     9    4    5 2   
    10    4    6 1   
    11    6    7 1   
    12    6   17 1   
    13    7    8 1   
    14    7    9 1   
    15    7   18 1   
    16    8   19 1   
    17    8   20 1   
    18    8   21 1   
    19    9   10 1   
    20    9   11 1   
@<TRIPOS>SUBSTRUCTURE
     1 I38         1 TEMP              0 ****  ****    0 ROOT
