@<TRIPOS>MOLECULE
I39
   39    32     1     0     0
SMALL
bcc


@<TRIPOS>ATOM
      1 O10         0.2150   -0.4810    3.2490 o         1 I39     -0.312000
      2 C9         -0.3090   -0.9700    2.2680 c1        1 I39      0.339000
      3 C4         -1.6610   -1.6430    2.3880 c1        1 I39     -0.195000
      4 C3         -1.8410   -2.6800    3.2920 c2        1 I39      0.166000
      5 F8         -0.8170   -3.0910    4.0510 f         1 I39     -0.081000
      6 C2         -3.0930   -3.2550    3.4470 c1        1 I39     -0.219000
      7 C5         -2.7330   -1.1820    1.6400 c1        1 I39     -0.054000
      8 C6         -3.9850   -1.7570    1.7950 c1        1 I39     -0.191000
      9 C1         -4.1650   -2.7930    2.6980 c1        1 I39      0.138000
     10 F7         -5.3680   -3.3680    2.8270 f         1 I39     -0.093000
     11 C11         0.4130   -0.9510    0.9360 c2        1 I39     -0.298000
     12 C16         0.8550   -2.1180    0.3840 c2        1 I39     -0.001000
     13 C15         1.5830   -2.0940   -0.7960 c1        1 I39     -0.267000
     14 N14         1.8570   -0.9060   -1.4050 n2        1 I39      0.414000
     15 O23         2.5740   -0.8840   -2.5670 o         1 I39     -0.396000
     16 C13         1.4160    0.2600   -0.8550 c1        1 I39     -0.226000
     17 C12         0.6880    0.2390    0.3250 c1        1 I39      0.236000
     18 N24         0.2980    1.4570    0.9400 n3        1 I39     -0.353000
     19 C17         1.7490    1.4720   -1.4420 c1        1 I39     -0.037000
     20 C22         0.9420    2.0060   -2.4350 c1        1 I39     -0.022000
     21 C25        -0.2610    1.2330   -2.9280 c3        1 I39     -0.190000
     22 C21         1.2910    3.2040   -3.0410 c1        1 I39     -0.137000
     23 C20         2.4450    3.8660   -2.6550 c1        1 I39     -0.127500
     24 C19         3.2520    3.3320   -1.6620 c1        1 I39     -0.127500
     25 C18         2.9040    2.1350   -1.0560 c1        1 I39     -0.116000
     26 H2         -3.2200   -3.9840    4.0820 ha        1 I39      0.171000
     27 H5         -2.6060   -0.4530    1.0040 ha        1 I39      0.153000
     28 H6         -4.7400   -1.4320    1.2680 ha        1 I39      0.159000
     29 H16         0.6590   -2.9690    0.8190 ha        1 I39      0.159000
     30 H15         1.8990   -2.9290   -1.1910 ha        1 I39      0.188000
     31 HN24        0.4800    2.2530    0.5300 hn        1 I39      0.251500
     32 HN2A       -0.1120    1.4460    1.7570 hn        1 I39      0.251500
     33 H25        -0.8850    1.8460   -3.3690 hc        1 I39      0.092667
     34 H25A       -0.7070    0.8040   -2.1680 hc        1 I39      0.092667
     35 H25B        0.0300    0.5470   -3.5650 hc        1 I39      0.092667
     36 H21         0.7220    3.5800   -3.7400 ha        1 I39      0.136000
     37 H20         2.6900    4.7090   -3.0810 ha        1 I39      0.134500
     38 H19         4.0650    3.7980   -1.3900 ha        1 I39      0.134500
     39 H18         3.4720    1.7590   -0.3570 ha        1 I39      0.137000
@<TRIPOS>BOND
     1    1    2 1   
     2    2   11 1   
     3    3    4 1   
     4    3    7 1   
     5    4    5 1   
     6    4    6 1   
     7    6   26 1   
     8    7   27 1   
     9    8    9 1   
    10    8   28 1   
    11    9   10 1   
    12   11   12 1   
    13   11   17 1   
    14   12   13 1   
    15   12   29 1   
    16   13   30 1   
    17   14   15 1   
    18   14   16 1   
    19   17   18 1   
    20   18   31 1   
    21   18   32 1   
    22   19   25 1   
    23   20   21 1   
    24   20   22 1   
    25   21   33 1   
    26   21   34 1   
    27   21   35 1   
    28   22   36 1   
    29   23   24 1   
    30   23   37 1   
    31   24   38 1   
    32   25   39 1   
@<TRIPOS>SUBSTRUCTURE
     1 I39         1 TEMP              0 ****  ****    0 ROOT
