@<TRIPOS>MOLECULE
I39
   39    41     1     0     0
SMALL
bcc


@<TRIPOS>ATOM
      1 O10         0.1750   -1.0840   -0.0260 o         1 I39     -0.504100
      2 C9          1.2610   -0.4940   -0.0500 c         1 I39      0.604300
      3 C4          1.9010   -0.0250    1.2040 ca        1 I39     -0.237600
      4 C3          1.1330    0.5190    2.2580 ca        1 I39      0.201900
      5 F8         -0.1980    0.7000    2.1180 f         1 I39     -0.110900
      6 C2          1.7440    0.9000    3.4660 ca        1 I39     -0.225000
      7 C5          3.2800   -0.1880    1.3880 ca        1 I39     -0.048000
      8 C6          3.9000    0.1730    2.5760 ca        1 I39     -0.194000
      9 C1          3.1270    0.7200    3.6200 ca        1 I39      0.178900
     10 F7          3.7220    1.0760    4.7800 f         1 I39     -0.125900
     11 C11         2.0030   -0.2940   -1.3080 ca        1 I39     -0.306600
     12 C16         2.0690   -1.3650   -2.2040 ca        1 I39      0.002000
     13 C15         2.7720   -1.2680   -3.3910 ca        1 I39     -0.284300
     14 N14         3.4300   -0.0910   -3.7650 na        1 I39      0.306600
     15 O23         4.0660   -0.0530   -4.8040 o         1 I39     -0.251000
     16 C13         3.3400    1.0100   -2.9130 cp        1 I39     -0.235300
     17 C12         2.6070    0.9390   -1.6800 ca        1 I39      0.290600
     18 N24         2.4590    2.0690   -0.9210 nh        1 I39     -0.852200
     19 C17         3.9830    2.2750   -3.3040 cp        1 I39     -0.039000
     20 C22         5.3820    2.4070   -3.3410 ca        1 I39     -0.031300
     21 C25         6.2680    1.2600   -3.0370 c3        1 I39     -0.063800
     22 C21         5.9400    3.6420   -3.6970 ca        1 I39     -0.139000
     23 C20         5.1270    4.7240   -4.0210 ca        1 I39     -0.113000
     24 C19         3.7390    4.5860   -3.9970 ca        1 I39     -0.143000
     25 C18         3.1700    3.3660   -3.6430 ca        1 I39     -0.111000
     26 H2          1.1410    1.3250    4.2820 ha        1 I39      0.173000
     27 H5          3.8800   -0.6200    0.5690 ha        1 I39      0.156000
     28 H6          4.9820    0.0350    2.7140 ha        1 I39      0.161000
     29 H16         1.5530   -2.3100   -1.9620 ha        1 I39      0.168000
     30 H15         2.8560   -2.0950   -4.1150 h4        1 I39      0.190000
     31 HN24        2.9740    2.8830   -1.1590 hn        1 I39      0.441300
     32 HN2A        2.0930    1.9920   -0.0040 hn        1 I39      0.441300
     33 H25         5.9140    0.7140   -2.1280 hc        1 I39      0.052367
     34 H25A        7.3210    1.5930   -2.8640 hc        1 I39      0.052367
     35 H25B        6.2570    0.5440   -3.9010 hc        1 I39      0.052367
     36 H21         7.0350    3.7510   -3.7280 ha        1 I39      0.135000
     37 H20         5.5790    5.6860   -4.3040 ha        1 I39      0.134000
     38 H19         3.0940    5.4360   -4.2650 ha        1 I39      0.135000
     39 H18         2.0750    3.2490   -3.6380 ha        1 I39      0.141000
@<TRIPOS>BOND
     1    1    2 2   
     2    2    3 1   
     3    2   11 1   
     4    3    4 ar  
     5    3    7 ar  
     6    4    5 1   
     7    4    6 ar  
     8    6    9 ar  
     9    6   26 1   
    10    7    8 ar  
    11    7   27 1   
    12    8    9 ar  
    13    8   28 1   
    14    9   10 1   
    15   11   12 ar  
    16   11   17 ar  
    17   12   13 ar  
    18   12   29 1   
    19   13   14 1   
    20   13   30 1   
    21   14   15 1   
    22   14   16 2   
    23   16   17 ar  
    24   16   19 1   
    25   17   18 1   
    26   18   31 1   
    27   18   32 1   
    28   19   20 ar  
    29   19   25 ar  
    30   20   21 1   
    31   20   22 ar  
    32   21   33 1   
    33   21   34 1   
    34   21   35 1   
    35   22   23 ar  
    36   22   36 1   
    37   23   24 ar  
    38   23   37 1   
    39   24   25 ar  
    40   24   38 1   
    41   25   39 1   
@<TRIPOS>SUBSTRUCTURE
     1 I39         1 TEMP              0 ****  ****    0 ROOT
