@<TRIPOS>MOLECULE
I39
   39    41     1     0     0
SMALL
bcc


@<TRIPOS>ATOM
      1 O10         0.1870   -1.0980   -0.0200 o         1 I39     -0.504100
      2 C9          1.2710   -0.5040   -0.0460 c         1 I39      0.604300
      3 C4          1.9160   -0.0380    1.2060 ca        1 I39     -0.236600
      4 C3          1.1500    0.5030    2.2650 ca        1 I39      0.201900
      5 F8         -0.1810    0.6820    2.1310 f         1 I39     -0.110900
      6 C2          1.7660    0.8820    3.4710 ca        1 I39     -0.225000
      7 C5          3.2950   -0.1990    1.3840 ca        1 I39     -0.048000
      8 C6          3.9190    0.1600    2.5710 ca        1 I39     -0.194000
      9 C1          3.1500    0.7030    3.6200 ca        1 I39      0.178900
     10 F7          3.7490    1.0560    4.7790 f         1 I39     -0.125900
     11 C11         2.0070   -0.2980   -1.3060 ca        1 I39     -0.306600
     12 C16         2.0720   -1.3660   -2.2070 ca        1 I39      0.002000
     13 C15         2.7700   -1.2630   -3.3960 ca        1 I39     -0.284300
     14 N14         3.4230   -0.0830   -3.7700 na        1 I39      0.306600
     15 O23         4.0540   -0.0400   -4.8110 o         1 I39     -0.251000
     16 C13         3.3330    1.0150   -2.9140 cp        1 I39     -0.235300
     17 C12         2.6050    0.9380   -1.6780 ca        1 I39      0.290600
     18 N24         2.4580    2.0650   -0.9140 nv        1 I39     -0.852200
     19 C17         3.9710    2.2840   -3.3030 cp        1 I39     -0.039000
     20 C22         5.3690    2.4190   -3.3450 ca        1 I39     -0.031300
     21 C25         6.2600    1.2740   -3.0490 c3        1 I39     -0.063800
     22 C21         5.9220    3.6570   -3.6990 ca        1 I39     -0.139000
     23 C20         5.1050    4.7380   -4.0170 ca        1 I39     -0.113000
     24 C19         3.7170    4.5960   -3.9870 ca        1 I39     -0.143000
     25 C18         3.1530    3.3730   -3.6340 ca        1 I39     -0.111000
     26 H2          1.1650    1.3030    4.2900 ha        1 I39      0.173000
     27 H5          3.8930   -0.6280    0.5620 ha        1 I39      0.156000
     28 H6          5.0020    0.0230    2.7040 ha        1 I39      0.161000
     29 H16         1.5600   -2.3130   -1.9650 ha        1 I39      0.168000
     30 H15         2.8530   -2.0870   -4.1230 h4        1 I39      0.190000
     31 HN24        2.0960    1.9840    0.0040 hn        1 I39      0.441300
     32 HN2A        2.9700    2.8810   -1.1510 hn        1 I39      0.441300
     33 H25         5.9120    0.7240   -2.1400 hc        1 I39      0.052367
     34 H25A        7.3120    1.6100   -2.8800 hc        1 I39      0.052367
     35 H25B        6.2470    0.5610   -3.9150 hc        1 I39      0.052367
     36 H21         7.0170    3.7690   -3.7350 ha        1 I39      0.135000
     37 H20         5.5530    5.7020   -4.2990 ha        1 I39      0.134000
     38 H19         3.0690    5.4450   -4.2500 ha        1 I39      0.135000
     39 H18         2.0590    3.2530   -3.6250 ha        1 I39      0.141000
@<TRIPOS>BOND
     1    1    2 2   
     2    2    3 1   
     3    2   11 1   
     4    3    4 ar  
     5    3    7 ar  
     6    4    5 1   
     7    4    6 ar  
     8    6    9 ar  
     9    6   26 1   
    10    7    8 ar  
    11    7   27 1   
    12    8    9 ar  
    13    8   28 1   
    14    9   10 1   
    15   11   12 ar  
    16   11   17 ar  
    17   12   13 ar  
    18   12   29 1   
    19   13   14 1   
    20   13   30 1   
    21   14   15 1   
    22   14   16 2   
    23   16   17 ar  
    24   16   19 1   
    25   17   18 1   
    26   18   31 1   
    27   18   32 1   
    28   19   20 ar  
    29   19   25 ar  
    30   20   21 1   
    31   20   22 ar  
    32   21   33 1   
    33   21   34 1   
    34   21   35 1   
    35   22   23 ar  
    36   22   36 1   
    37   23   24 ar  
    38   23   37 1   
    39   24   25 ar  
    40   24   38 1   
    41   25   39 1   
@<TRIPOS>SUBSTRUCTURE
     1 I39         1 TEMP              0 ****  ****    0 ROOT
