@<TRIPOS>MOLECULE
I39
   40    42     1     0     0
SMALL
bcc


@<TRIPOS>ATOM
      1 O10         1.5860    2.2100    0.9120 o         1 I39     -0.565100
      2 C9          2.0960    1.0900    0.7330 c         1 I39      0.622300
      3 C4          2.0720    0.0550    1.7760 ca        1 I39     -0.255600
      4 C3          0.8830   -0.1880    2.5050 ca        1 I39      0.226900
      5 F8         -0.2530    0.4700    2.1960 f         1 I39     -0.106900
      6 C2          0.8650   -1.1340    3.5450 ca        1 I39     -0.215000
      7 C5          3.2360   -0.6470    2.1220 ca        1 I39     -0.053000
      8 C6          3.2390   -1.5720    3.1520 ca        1 I39     -0.186000
      9 C1          2.0460   -1.8200    3.8690 ca        1 I39      0.212900
     10 F7          2.0440   -2.7220    4.8700 f         1 I39     -0.101900
     11 C11         2.7460    0.7700   -0.5620 ca        1 I39     -0.206600
     12 C16         3.0080   -0.5600   -0.9200 ca        1 I39     -0.025000
     13 C15         3.6020   -0.8790   -2.1300 ca        1 I39     -0.199300
     14 N14         3.9700    0.0920   -3.0680 na        1 I39      0.283600
     15 O23         4.5160   -0.2130   -4.1020 o         1 I39     -0.158000
     16 C13         3.6810    1.4380   -2.7510 cp        1 I39     -0.107300
     17 C12         3.0790    1.7580   -1.5160 ca        1 I39      0.049600
     18 N24         2.8030    3.1680   -1.2380 n4        1 I39     -0.713000
     19 C17         3.9840    2.4900   -3.7340 cp        1 I39     -0.135000
     20 C22         5.3090    2.8460   -4.0360 ca        1 I39     -0.011300
     21 C25         6.4580    2.1620   -3.4010 c3        1 I39     -0.075800
     22 C21         5.5360    3.8530   -4.9880 ca        1 I39     -0.125000
     23 C20         4.4740    4.4720   -5.6380 ca        1 I39     -0.078000
     24 C19         3.1580    4.0970   -5.3480 ca        1 I39     -0.126000
     25 C18         2.9130    3.1070   -4.4040 ca        1 I39     -0.132000
     26 H2         -0.0650   -1.3250    4.1040 ha        1 I39      0.190000
     27 H5          4.1720   -0.4450    1.5750 ha        1 I39      0.145000
     28 H6          4.1590   -2.1120    3.4280 ha        1 I39      0.175000
     29 H16         2.7340   -1.3850   -0.2350 ha        1 I39      0.198000
     30 H15         3.8210   -1.9230   -2.4360 h4        1 I39      0.222000
     31 HN24        3.4170    3.4870   -0.4770 hn        1 I39      0.481133
     32 HN2A        1.8240    3.2570   -0.9100 hn        1 I39      0.481133
     33 H25         7.3980    2.7580   -3.5110 hc        1 I39      0.063033
     34 H25A        6.6130    1.1660   -3.8960 hc        1 I39      0.063033
     35 H25B        6.2750    1.9880   -2.3130 hc        1 I39      0.063033
     36 H21         6.5730    4.1380   -5.2320 ha        1 I39      0.161000
     37 H20         4.6690    5.2510   -6.3940 ha        1 I39      0.161000
     38 H19         2.3190    4.5720   -5.8810 ha        1 I39      0.159000
     39 H18         1.8810    2.7750   -4.2130 ha        1 I39      0.139000
     40 H243        2.9550    3.7450   -2.0790 hn        1 I39      0.481133
@<TRIPOS>BOND
     1    1    2 2   
     2    2    3 1   
     3    2   11 1   
     4    3    4 ar  
     5    3    7 ar  
     6    4    5 1   
     7    4    6 ar  
     8    6    9 ar  
     9    6   26 1   
    10    7    8 ar  
    11    7   27 1   
    12    8    9 ar  
    13    8   28 1   
    14    9   10 1   
    15   11   12 ar  
    16   11   17 ar  
    17   12   13 ar  
    18   12   29 1   
    19   13   14 1   
    20   13   30 1   
    21   14   15 1   
    22   14   16 2   
    23   16   17 ar  
    24   16   19 1   
    25   17   18 1   
    26   18   31 1   
    27   18   32 1   
    28   18   40 1   
    29   19   20 ar  
    30   19   25 ar  
    31   20   21 1   
    32   20   22 ar  
    33   21   33 1   
    34   21   34 1   
    35   21   35 1   
    36   22   23 ar  
    37   22   36 1   
    38   23   24 ar  
    39   23   37 1   
    40   24   25 ar  
    41   24   38 1   
    42   25   39 1   
@<TRIPOS>SUBSTRUCTURE
     1 I39         1 TEMP              0 ****  ****    0 ROOT
