@<TRIPOS>MOLECULE
I39
   39    41     1     0     0
SMALL
bcc


@<TRIPOS>ATOM
      1 O10         2.2590   -2.8290    0.1220 o         1 I39     -0.504100
      2 C9          1.7350   -1.7220   -0.0460 c         1 I39      0.604300
      3 C4          2.5300   -0.4760    0.0730 ca        1 I39     -0.236600
      4 C3          3.5270   -0.3380    1.0650 ca        1 I39      0.201900
      5 F8          3.7260   -1.3080    1.9820 f         1 I39     -0.110900
      6 C2          4.3180    0.8240    1.1270 ca        1 I39     -0.225000
      7 C5          2.3520    0.5580   -0.8540 ca        1 I39     -0.048000
      8 C6          3.1280    1.7080   -0.8150 ca        1 I39     -0.194000
      9 C1          4.1170    1.8410    0.1810 ca        1 I39      0.178900
     10 F7          4.8780    2.9570    0.2280 f         1 I39     -0.125900
     11 C11         0.3220   -1.5910   -0.4450 ca        1 I39     -0.306600
     12 C16        -0.1620   -2.4580   -1.4300 ca        1 I39      0.002000
     13 C15        -1.4670   -2.3780   -1.8810 ca        1 I39     -0.284300
     14 N14        -2.3730   -1.4460   -1.3610 na        1 I39      0.306600
     15 O23        -3.5050   -1.3840   -1.8060 o         1 I39     -0.251000
     16 C13        -1.9310   -0.6010   -0.3420 cp        1 I39     -0.235300
     17 C12        -0.5840   -0.6720    0.1520 ca        1 I39      0.290600
     18 N24        -0.2190    0.1060    1.2180 nh        1 I39     -0.852200
     19 C17        -2.8750    0.3570    0.2560 cp        1 I39     -0.039000
     20 C22        -3.3540    1.4630   -0.4660 ca        1 I39     -0.031300
     21 C25        -2.9680    1.6820   -1.8790 c3        1 I39     -0.063800
     22 C21        -4.2330    2.3570    0.1620 ca        1 I39     -0.139000
     23 C20        -4.6380    2.1520    1.4770 ca        1 I39     -0.113000
     24 C19        -4.1700    1.0450    2.1870 ca        1 I39     -0.143000
     25 C18        -3.2950    0.1500    1.5780 ca        1 I39     -0.111000
     26 H2          5.0910    0.9260    1.9030 ha        1 I39      0.173000
     27 H5          1.5790    0.4490   -1.6340 ha        1 I39      0.156000
     28 H6          2.9860    2.5120   -1.5510 ha        1 I39      0.161000
     29 H16         0.5080   -3.2210   -1.8600 ha        1 I39      0.168000
     30 H15        -1.8790   -3.0360   -2.6630 h4        1 I39      0.190000
     31 HN24        0.7380    0.1770    1.4620 hn        1 I39      0.441300
     32 HN2A       -0.8430    0.8040    1.5450 hn        1 I39      0.441300
     33 H25        -3.5150    0.9490   -2.5300 hc        1 I39      0.052367
     34 H25A       -3.2240    2.7170   -2.2150 hc        1 I39      0.052367
     35 H25B       -1.8710    1.5230   -2.0200 hc        1 I39      0.052367
     36 H21        -4.6120    3.2250   -0.3990 ha        1 I39      0.135000
     37 H20        -5.3320    2.8580    1.9550 ha        1 I39      0.134000
     38 H19        -4.4990    0.8740    3.2230 ha        1 I39      0.135000
     39 H18        -2.9370   -0.7330    2.1300 ha        1 I39      0.141000
@<TRIPOS>BOND
     1    1    2 2   
     2    2    3 1   
     3    2   11 1   
     4    3    4 ar  
     5    3    7 ar  
     6    4    5 1   
     7    4    6 ar  
     8    6    9 ar  
     9    6   26 1   
    10    7    8 ar  
    11    7   27 1   
    12    8    9 ar  
    13    8   28 1   
    14    9   10 1   
    15   11   12 ar  
    16   11   17 ar  
    17   12   13 ar  
    18   12   29 1   
    19   13   14 1   
    20   13   30 1   
    21   14   15 1   
    22   14   16 2   
    23   16   17 ar  
    24   16   19 1   
    25   17   18 1   
    26   18   31 1   
    27   18   32 1   
    28   19   20 ar  
    29   19   25 ar  
    30   20   21 1   
    31   20   22 ar  
    32   21   33 1   
    33   21   34 1   
    34   21   35 1   
    35   22   23 ar  
    36   22   36 1   
    37   23   24 ar  
    38   23   37 1   
    39   24   25 ar  
    40   24   38 1   
    41   25   39 1   
@<TRIPOS>SUBSTRUCTURE
     1 I39         1 TEMP              0 ****  ****    0 ROOT
