@<TRIPOS>MOLECULE
I3A
   18    19     1     0     0
SMALL
bcc


@<TRIPOS>ATOM
      1 O           0.0050    0.0050   -0.0720 o         1 I3A     -0.557100
      2 C3'         1.2420    0.0030   -0.0390 c         1 I3A      0.605100
      3 C3          2.0180    0.0030    1.1790 cc        1 I3A     -0.266400
      4 C2          1.5160    0.0060    2.4900 cd        1 I3A     -0.014100
      5 N           2.5610    0.0050    3.4010 na        1 I3A     -0.184400
      6 C8          3.7720    0.0020    2.6920 ca        1 I3A     -0.061200
      7 C9          3.4640    0.0000    1.2800 ca        1 I3A     -0.058800
      8 C4          4.5060   -0.0040    0.3530 ca        1 I3A     -0.093000
      9 C5          5.8150   -0.0050    0.8170 ca        1 I3A     -0.142000
     10 C6          6.1050   -0.0040    2.1920 ca        1 I3A     -0.117000
     11 C7          5.0980   -0.0010    3.1470 ca        1 I3A     -0.134000
     12 H3'         1.8430    0.0000   -0.9770 h4        1 I3A     -0.002800
     13 H2          0.4700    0.0090    2.8130 h4        1 I3A      0.184000
     14 HN          2.4780    0.0070    4.3830 hn        1 I3A      0.304700
     15 H4          4.2880   -0.0050   -0.7240 ha        1 I3A      0.136000
     16 H5          6.6470   -0.0080    0.0970 ha        1 I3A      0.133000
     17 H6          7.1560   -0.0060    2.5170 ha        1 I3A      0.133000
     18 H7          5.3320    0.0010    4.2200 ha        1 I3A      0.135000
@<TRIPOS>BOND
     1    1    2 2   
     2    2    3 1   
     3    2   12 1   
     4    3    4 2   
     5    3    7 1   
     6    4    5 1   
     7    4   13 1   
     8    5    6 1   
     9    5   14 1   
    10    6    7 ar  
    11    6   11 ar  
    12    7    8 ar  
    13    8    9 ar  
    14    8   15 1   
    15    9   10 ar  
    16    9   16 1   
    17   10   11 ar  
    18   10   17 1   
    19   11   18 1   
@<TRIPOS>SUBSTRUCTURE
     1 I3A         1 TEMP              0 ****  ****    0 ROOT
