@<TRIPOS>MOLECULE
I3A
   18    13     1     0     0
SMALL
bcc


@<TRIPOS>ATOM
      1 O          -1.9360   -0.0000   -2.8390 o         1 I3A     -0.304000
      2 C3'        -0.7190   -0.0000   -2.8390 c1        1 I3A      0.253000
      3 C3          0.0370   -0.0000   -1.5280 c1        1 I3A     -0.246000
      4 C2          1.4130   -0.0000   -1.6450 c1        1 I3A     -0.018000
      5 N           1.9440   -0.0000   -0.3860 n2        1 I3A     -0.203000
      6 C8          0.8990    0.0000    0.5210 c1        1 I3A     -0.018000
      7 C9         -0.2760   -0.0000   -0.1870 c1        1 I3A     -0.041000
      8 C4         -1.5050    0.0000    0.4940 c1        1 I3A     -0.076000
      9 C5         -1.5300    0.0000    1.8810 c1        1 I3A     -0.131500
     10 C6         -0.3410    0.0000    2.5970 c1        1 I3A     -0.131500
     11 C7          0.8730    0.0000    1.9260 c1        1 I3A     -0.141000
     12 H3'        -0.2310   -0.0000   -3.6840 ha        1 I3A      0.078000
     13 H2          1.9170   -0.0000   -2.4810 DU        1 I3A      0.211000
     14 HN          2.8320   -0.0000   -0.1790 DU        1 I3A      0.211000
     15 H4         -2.3420    0.0000   -0.0090 ha        1 I3A      0.160000
     16 H5         -2.3850    0.0000    2.3540 ha        1 I3A      0.132500
     17 H6         -0.3590    0.0000    3.5730 ha        1 I3A      0.132500
     18 H7          1.7090    0.0000    2.4300 ha        1 I3A      0.133000
@<TRIPOS>BOND
     1    1    2 1   
     2    2   12 1   
     3    3    4 1   
     4    3    7 1   
     5    4    5 1   
     6    5    6 1   
     7    6   11 1   
     8    7    8 1   
     9    8   15 1   
    10    9   10 1   
    11    9   16 1   
    12   10   17 1   
    13   11   18 1   
@<TRIPOS>SUBSTRUCTURE
     1 I3A         1 TEMP              0 ****  ****    0 ROOT
