@<TRIPOS>MOLECULE
I3A
   18    19     1     0     0
SMALL
bcc


@<TRIPOS>ATOM
      1 O          -5.2470    1.5940    5.2630 o         1 I3A     -0.557100
      2 C3'        -4.2500    1.6830    4.5350 c         1 I3A      0.605100
      3 C3         -3.8760    0.6940    3.5520 cc        1 I3A     -0.266400
      4 C2         -4.5580   -0.4990    3.2640 cd        1 I3A     -0.014100
      5 N          -3.9020   -1.1950    2.2610 na        1 I3A     -0.184400
      6 C8         -2.7700   -0.4600    1.8750 ca        1 I3A     -0.061200
      7 C9         -2.7240    0.7440    2.6740 ca        1 I3A     -0.058800
      8 C4         -1.6830    1.6530    2.4800 ca        1 I3A     -0.093000
      9 C5         -0.7190    1.3730    1.5220 ca        1 I3A     -0.142000
     10 C6         -0.7720    0.2000    0.7500 ca        1 I3A     -0.117000
     11 C7         -1.7900   -0.7300    0.9100 ca        1 I3A     -0.134000
     12 H3'        -3.5650    2.5600    4.6010 h4        1 I3A     -0.002800
     13 H2         -5.4750   -0.8810    3.7250 h4        1 I3A      0.184000
     14 HN         -4.1750   -2.0600    1.8770 hn        1 I3A      0.304700
     15 H4         -1.6340    2.5730    3.0800 ha        1 I3A      0.136000
     16 H5          0.1070    2.0810    1.3590 ha        1 I3A      0.133000
     17 H6          0.0130    0.0170    0.0010 ha        1 I3A      0.133000
     18 H7         -1.8250   -1.6450    0.3030 ha        1 I3A      0.135000
@<TRIPOS>BOND
     1    1    2 2   
     2    2    3 1   
     3    2   12 1   
     4    3    4 2   
     5    3    7 1   
     6    4    5 1   
     7    4   13 1   
     8    5    6 1   
     9    5   14 1   
    10    6    7 ar  
    11    6   11 ar  
    12    7    8 ar  
    13    8    9 ar  
    14    8   15 1   
    15    9   10 ar  
    16    9   16 1   
    17   10   11 ar  
    18   10   17 1   
    19   11   18 1   
@<TRIPOS>SUBSTRUCTURE
     1 I3A         1 TEMP              0 ****  ****    0 ROOT
