@<TRIPOS>MOLECULE
I3C
   18    18     1     0     0
SMALL
bcc


@<TRIPOS>ATOM
      1 I3          2.9630    1.9290   -0.0890 i         1 I3C     -0.217900
      2 I2         -2.9630    1.9300   -0.0860 i         1 I3C     -0.217900
      3 I1         -0.0000   -3.2440    0.0400 i         1 I3C     -0.170900
      4 O8          3.0730   -1.5020    1.1390 o         1 I3C     -0.817300
      5 O9          3.0940   -1.5890   -1.0920 o         1 I3C     -0.817300
      6 C10        -2.5640   -1.2690    0.0100 c         1 I3C      0.909200
      7 N13         0.0000    3.0040   -0.1630 nh        1 I3C     -0.820200
      8 C1          1.2210   -0.5220   -0.0290 ca        1 I3C     -0.002600
      9 C6          1.2150    0.8760   -0.0630 ca        1 I3C     -0.021100
     10 C5          0.0000    1.5970   -0.0800 ca        1 I3C      0.156600
     11 C4         -1.2150    0.8760   -0.0620 ca        1 I3C     -0.021100
     12 C3         -1.2210   -0.5220   -0.0280 ca        1 I3C     -0.002600
     13 C2         -0.0000   -1.2090   -0.0130 ca        1 I3C      0.025900
     14 O11        -3.0720   -1.5020    1.1410 o         1 I3C     -0.817300
     15 O12        -3.0950   -1.5890   -1.0890 o         1 I3C     -0.817300
     16 HN13        0.8270    3.4160    0.2180 hn        1 I3C      0.371800
     17 HN1A       -0.8270    3.4160    0.2190 hn        1 I3C      0.371800
     18 C7          2.5640   -1.2690    0.0070 c         1 I3C      0.909200
@<TRIPOS>BOND
     1    1    9 1   
     2    2   11 1   
     3    3   13 1   
     4    4   18 1   
     5    5   18 1   
     6    6   12 1   
     7    6   14 1   
     8    6   15 1   
     9    7   10 1   
    10    7   16 1   
    11    7   17 1   
    12    8    9 ar  
    13    8   13 ar  
    14    8   18 1   
    15    9   10 ar  
    16   10   11 ar  
    17   11   12 ar  
    18   12   13 ar  
@<TRIPOS>SUBSTRUCTURE
     1 I3C         1 TEMP              0 ****  ****    0 ROOT
