@<TRIPOS>MOLECULE
I3C
   18    16     1     0     0
SMALL
bcc


@<TRIPOS>ATOM
      1 I3         -3.5100    0.0100   -0.0180 i         1 I3C      0.068000
      2 I2          1.7160   -0.0960   -3.0630 i         1 I3C      0.068000
      3 I1          1.7240   -0.0740    2.9950 i         1 I3C      0.115000
      4 O8         -1.6050   -0.9610    3.1720 o         1 I3C     -0.552000
      5 O9         -1.9150    1.1800    2.8970 o         1 I3C     -0.552000
      6 C10         2.8790   -0.1150   -0.0430 c1        1 I3C      0.358000
      7 N13        -1.4280    0.0690   -2.4550 n3        1 I3C     -0.329000
      8 C1         -0.7060    0.0230    1.1710 c1        1 I3C      0.018000
      9 C6         -1.4030    0.0350   -0.0260 c1        1 I3C     -0.307000
     10 C5         -0.7150    0.0140   -1.2300 c2        1 I3C      0.075000
     11 C4          0.6710   -0.0190   -1.2350 c2        1 I3C     -0.307000
     12 C3          1.3680   -0.0310   -0.0370 c1        1 I3C      0.018000
     13 C2          0.6800   -0.0100    1.1660 c2        1 I3C     -0.260000
     14 C7         -1.4560    0.0830    2.4840 c2        1 I3C      0.358000
     15 O11         3.4460   -1.2390   -0.0720 o         1 I3C     -0.552000
     16 O12         3.5680    0.9370   -0.0060 o         1 I3C     -0.552000
     17 HN13       -2.3410    0.1310   -2.4510 hn        1 I3C      0.167000
     18 HN1A       -0.9740    0.0640   -3.2480 hn        1 I3C      0.167000
@<TRIPOS>BOND
     1    1    9 1   
     2    2   11 1   
     3    3   13 1   
     4    4   14 1   
     5    5   14 1   
     6    6   15 1   
     7    6   16 1   
     8    7   10 1   
     9    7   17 1   
    10    7   18 1   
    11    8   13 1   
    12    8   14 1   
    13    9   10 1   
    14   10   11 1   
    15   11   12 1   
    16   12   13 1   
@<TRIPOS>SUBSTRUCTURE
     1 I3C         1 TEMP              0 ****  ****    0 ROOT
