@<TRIPOS>MOLECULE
I3C
   18    18     1     0     0
SMALL
bcc


@<TRIPOS>ATOM
      1 I3          0.0690   -0.0450    0.1220 i         1 I3C     -0.217900
      2 I2          5.1350    0.0460   -2.9530 i         1 I3C     -0.217900
      3 I1          5.2870    0.0150    3.0080 i         1 I3C     -0.170900
      4 O8          1.7850   -1.1270    3.1690 o         1 I3C     -0.817300
      5 O9          1.7550    1.1050    3.1440 o         1 I3C     -0.817300
      6 C10         6.4540    0.0660   -0.0110 c         1 I3C      0.909200
      7 N13         2.0440   -0.0510   -2.3360 nv        1 I3C     -0.820200
      8 C1          2.8310   -0.0130    1.3150 ca        1 I3C     -0.002600
      9 C6          2.1100   -0.0160    0.1160 ca        1 I3C     -0.021100
     10 C5          2.7740    0.0010   -1.1310 ca        1 I3C      0.156600
     11 C4          4.1880    0.0210   -1.1450 ca        1 I3C     -0.021100
     12 C3          4.9180    0.0240    0.0470 ca        1 I3C     -0.002600
     13 C2          4.2310    0.0070    1.2680 ca        1 I3C      0.025900
     14 O11         7.0750   -1.0310   -0.0420 o         1 I3C     -0.817300
     15 O12         7.0080    1.2000   -0.0450 o         1 I3C     -0.817300
     16 HN13        1.1230    0.3270   -2.2490 hn        1 I3C      0.371800
     17 HN1A        2.5360    0.3520   -3.1070 hn        1 I3C      0.371800
     18 C7          2.0700   -0.0130    2.6500 c         1 I3C      0.909200
@<TRIPOS>BOND
     1    1    9 1   
     2    2   11 1   
     3    3   13 1   
     4    4   18 1   
     5    5   18 1   
     6    6   12 1   
     7    6   14 1   
     8    6   15 1   
     9    7   10 1   
    10    7   16 1   
    11    7   17 1   
    12    8    9 ar  
    13    8   13 ar  
    14    8   18 1   
    15    9   10 ar  
    16   10   11 ar  
    17   11   12 ar  
    18   12   13 ar  
@<TRIPOS>SUBSTRUCTURE
     1 I3C         1 TEMP              0 ****  ****    0 ROOT
