@<TRIPOS>MOLECULE
I3C
   19    19     1     0     0
SMALL
bcc


@<TRIPOS>ATOM
      1 I3          0.0510    0.0250    0.1200 i         1 I3C     -0.156400
      2 I2          5.0570   -0.0250   -2.9750 i         1 I3C     -0.156400
      3 I1          5.2900    0.0020    3.0000 i         1 I3C     -0.084900
      4 O8          1.7430   -1.0970    3.1510 o         1 I3C     -0.776300
      5 O9          1.7590    1.1530    3.1410 o         1 I3C     -0.776300
      6 C10         6.4540   -0.0210   -0.0460 c         1 I3C      0.912200
      7 N13         2.0020   -0.0000   -2.3360 n4        1 I3C     -0.716000
      8 C1          2.8230    0.0110    1.3310 ca        1 I3C     -0.031600
      9 C6          2.0880    0.0110    0.1420 ca        1 I3C      0.034400
     10 C5          2.7680    0.0000   -1.0850 ca        1 I3C     -0.053400
     11 C4          4.1710   -0.0100   -1.1450 ca        1 I3C      0.034400
     12 C3          4.9040   -0.0090    0.0460 ca        1 I3C     -0.031600
     13 C2          4.2250    0.0010    1.2730 ca        1 I3C      0.094900
     14 O11         6.9990   -1.1500   -0.0930 o         1 I3C     -0.776300
     15 O12         7.0150    1.1000   -0.1030 o         1 I3C     -0.776300
     16 HN13        0.9910    0.0080   -2.1140 hn        1 I3C      0.448467
     17 HN1A        2.2480    0.8300   -2.8840 hn        1 I3C      0.448467
     18 H133        2.2360   -0.8390   -2.8760 hn        1 I3C      0.448467
     19 C7          2.0460    0.0230    2.6750 c         1 I3C      0.912200
@<TRIPOS>BOND
     1    1    9 1   
     2    2   11 1   
     3    3   13 1   
     4    4   19 1   
     5    5   19 1   
     6    6   12 1   
     7    6   14 1   
     8    6   15 1   
     9    7   10 1   
    10    7   16 1   
    11    7   17 1   
    12    7   18 1   
    13    8    9 ar  
    14    8   13 ar  
    15    8   19 1   
    16    9   10 ar  
    17   10   11 ar  
    18   11   12 ar  
    19   12   13 ar  
@<TRIPOS>SUBSTRUCTURE
     1 I3C         1 TEMP              0 ****  ****    0 ROOT
