@<TRIPOS>MOLECULE
I3E
   26    26     1     0     0
SMALL
bcc


@<TRIPOS>ATOM
      1 C1         -0.0930   -0.0400    0.0350 ca        1 I3E     -0.046300
      2 C2          1.3040   -0.1330    0.0150 ca        1 I3E     -0.145000
      3 C3          2.0270   -0.1270    1.2040 ca        1 I3E     -0.080000
      4 C4          1.3680   -0.0280    2.4380 ca        1 I3E     -0.181600
      5 C5         -0.0280    0.0660    2.4570 ca        1 I3E     -0.080000
      6 C6         -0.7510    0.0600    1.2660 ca        1 I3E     -0.145000
      7 C7         -0.8620   -0.0380   -1.2390 c3        1 I3E     -0.044100
      8 C8         -0.8600   -1.3940   -1.9050 c3        1 I3E     -0.090100
      9 C9          2.1760   -0.0260    3.6780 c         1 I3E      0.576700
     10 O9          3.4120   -0.0870    3.6380 o         1 I3E     -0.536100
     11 C10         1.4280    0.0540    4.9800 c3        1 I3E     -0.176400
     12 C11         2.3440    0.0290    6.1760 c3        1 I3E     -0.088100
     13 H2          1.8310   -0.2110   -0.9480 ha        1 I3E      0.136500
     14 H3          3.1280   -0.1990    1.1900 ha        1 I3E      0.144500
     15 H5         -0.5710    0.1460    3.4110 ha        1 I3E      0.144500
     16 H6         -1.8490    0.1360    1.2950 ha        1 I3E      0.136500
     17 H7         -0.4110    0.7200   -1.9370 hc        1 I3E      0.050200
     18 H7A        -1.9220    0.2810   -1.0470 hc        1 I3E      0.050200
     19 H8         -1.3470   -2.1560   -1.2500 hc        1 I3E      0.038367
     20 H8A        -1.4190   -1.3460   -2.8700 hc        1 I3E      0.038367
     21 H8B         0.1850   -1.7270   -2.1140 hc        1 I3E      0.038367
     22 H10         0.8240    1.0010    4.9820 hc        1 I3E      0.064700
     23 H11         1.7470    0.0940    7.1180 hc        1 I3E      0.043367
     24 H11A        3.0580    0.8870    6.1400 hc        1 I3E      0.043367
     25 H13         0.7110   -0.8080    5.0300 hc        1 I3E      0.064700
     26 H14         2.9420   -0.9140    6.1910 hc        1 I3E      0.043367
@<TRIPOS>BOND
     1    1    2 ar  
     2    1    6 ar  
     3    1    7 1   
     4    2    3 ar  
     5    2   13 1   
     6    3    4 ar  
     7    3   14 1   
     8    4    5 ar  
     9    4    9 1   
    10    5    6 ar  
    11    5   15 1   
    12    6   16 1   
    13    7    8 1   
    14    7   17 1   
    15    7   18 1   
    16    8   19 1   
    17    8   20 1   
    18    8   21 1   
    19    9   10 2   
    20    9   11 1   
    21   11   12 1   
    22   11   22 1   
    23   11   25 1   
    24   12   23 1   
    25   12   24 1   
    26   12   26 1   
@<TRIPOS>SUBSTRUCTURE
     1 I3E         1 TEMP              0 ****  ****    0 ROOT
