@<TRIPOS>MOLECULE
I3E
   26    26     1     0     0
SMALL
bcc


@<TRIPOS>ATOM
      1 C1         -0.0890   -0.0320    0.0320 ca        1 I3E     -0.046300
      2 C2          1.3090   -0.1210    0.0150 ca        1 I3E     -0.144500
      3 C3          2.0290   -0.1060    1.2050 ca        1 I3E     -0.080000
      4 C4          1.3670   -0.0010    2.4380 ca        1 I3E     -0.181600
      5 C5         -0.0290    0.0900    2.4530 ca        1 I3E     -0.080000
      6 C6         -0.7500    0.0750    1.2610 ca        1 I3E     -0.144500
      7 C7         -0.8560   -0.0400   -1.2440 c3        1 I3E     -0.044100
      8 C8         -0.8510   -1.4010   -1.8990 c3        1 I3E     -0.090100
      9 C9          2.1730    0.0110    3.6790 c         1 I3E      0.576700
     10 O9          3.4110   -0.0030    3.6410 o         1 I3E     -0.536100
     11 C10         1.4200    0.0380    4.9800 c3        1 I3E     -0.176400
     12 C11         2.3320   -0.0150    6.1780 c3        1 I3E     -0.088100
     13 H2          1.8370   -0.2040   -0.9470 ha        1 I3E      0.136500
     14 H3          3.1300   -0.1740    1.1940 ha        1 I3E      0.144500
     15 H5         -0.5730    0.1760    3.4060 ha        1 I3E      0.144500
     16 H6         -1.8470    0.1490    1.2880 ha        1 I3E      0.136500
     17 H7         -0.4040    0.7130   -1.9460 hc        1 I3E      0.050200
     18 H7A        -1.9160    0.2790   -1.0560 hc        1 I3E      0.050200
     19 H8         -1.3380   -2.1590   -1.2400 hc        1 I3E      0.038033
     20 H8A        -1.4080   -1.3610   -2.8660 hc        1 I3E      0.038033
     21 H8B         0.1950   -1.7340   -2.1040 hc        1 I3E      0.038033
     22 H10         0.8060    0.9780    5.0110 hc        1 I3E      0.064200
     23 H11         1.7330    0.0180    7.1190 hc        1 I3E      0.043033
     24 H11A        3.0390    0.8500    6.1690 hc        1 I3E      0.043033
     25 H13         0.7130   -0.8330    5.0000 hc        1 I3E      0.064200
     26 H14         2.9380   -0.9530    6.1670 hc        1 I3E      0.043033
@<TRIPOS>BOND
     1    1    2 ar  
     2    1    6 ar  
     3    1    7 1   
     4    2    3 ar  
     5    2   13 1   
     6    3    4 ar  
     7    3   14 1   
     8    4    5 ar  
     9    4    9 1   
    10    5    6 ar  
    11    5   15 1   
    12    6   16 1   
    13    7    8 1   
    14    7   17 1   
    15    7   18 1   
    16    8   19 1   
    17    8   20 1   
    18    8   21 1   
    19    9   10 2   
    20    9   11 1   
    21   11   12 1   
    22   11   22 1   
    23   11   25 1   
    24   12   23 1   
    25   12   24 1   
    26   12   26 1   
@<TRIPOS>SUBSTRUCTURE
     1 I3E         1 TEMP              0 ****  ****    0 ROOT
