@<TRIPOS>MOLECULE
I3E
   26    26     1     0     0
SMALL
bcc


@<TRIPOS>ATOM
      1 C1         -2.1490   -0.1400    0.2720 ca        1 I3E     -0.046300
      2 C2         -1.5750    1.1230    0.0840 ca        1 I3E     -0.145000
      3 C3         -0.1950    1.2590   -0.0270 ca        1 I3E     -0.080000
      4 C4          0.6410    0.1340    0.0480 ca        1 I3E     -0.181600
      5 C5          0.0650   -1.1280    0.2370 ca        1 I3E     -0.080000
      6 C6         -1.3170   -1.2630    0.3480 ca        1 I3E     -0.145000
      7 C7         -3.6260   -0.2810    0.3990 c3        1 I3E     -0.044100
      8 C8         -4.3320   -0.0430   -0.9150 c3        1 I3E     -0.090100
      9 C9          2.1030    0.3250   -0.0750 c         1 I3E      0.576700
     10 O9          2.5930    1.4520   -0.2210 o         1 I3E     -0.536100
     11 C10         2.9590   -0.9100   -0.0150 c3        1 I3E     -0.176400
     12 C11         4.4270   -0.6060   -0.1690 c3        1 I3E     -0.088100
     13 H2         -2.2210    2.0110    0.0240 ha        1 I3E      0.136500
     14 H3          0.2600    2.2530   -0.1740 ha        1 I3E      0.144500
     15 H5          0.6970   -2.0270    0.3000 ha        1 I3E      0.144500
     16 H6         -1.7560   -2.2610    0.4970 ha        1 I3E      0.136500
     17 H7         -3.8820   -1.3060    0.7790 hc        1 I3E      0.050200
     18 H7A        -3.9980    0.4570    1.1610 hc        1 I3E      0.050200
     19 H8         -4.0990    0.9760   -1.3080 hc        1 I3E      0.038367
     20 H8A        -4.0140   -0.7940   -1.6770 hc        1 I3E      0.038367
     21 H8B        -5.4370   -0.1260   -0.7750 hc        1 I3E      0.038367
     22 H10         2.7770   -1.4190    0.9700 hc        1 I3E      0.064700
     23 H11         4.6220   -0.1100   -1.1500 hc        1 I3E      0.043367
     24 H11A        4.7690    0.0860    0.6390 hc        1 I3E      0.043367
     25 H13         2.6280   -1.6110   -0.8280 hc        1 I3E      0.064700
     26 H14         5.0220   -1.5480   -0.1150 hc        1 I3E      0.043367
@<TRIPOS>BOND
     1    1    2 ar  
     2    1    6 ar  
     3    1    7 1   
     4    2    3 ar  
     5    2   13 1   
     6    3    4 ar  
     7    3   14 1   
     8    4    5 ar  
     9    4    9 1   
    10    5    6 ar  
    11    5   15 1   
    12    6   16 1   
    13    7    8 1   
    14    7   17 1   
    15    7   18 1   
    16    8   19 1   
    17    8   20 1   
    18    8   21 1   
    19    9   10 2   
    20    9   11 1   
    21   11   12 1   
    22   11   22 1   
    23   11   25 1   
    24   12   23 1   
    25   12   24 1   
    26   12   26 1   
@<TRIPOS>SUBSTRUCTURE
     1 I3E         1 TEMP              0 ****  ****    0 ROOT
