@<TRIPOS>MOLECULE
I3E
   26    23     1     0     0
SMALL
bcc


@<TRIPOS>ATOM
      1 C1         -1.2020   -0.1350   -1.5640 c1        1 I3E     -0.039000
      2 C2          0.1840   -0.1600   -1.5490 c2        1 I3E     -0.145000
      3 C3          0.8650   -0.1410   -0.3420 c1        1 I3E     -0.089000
      4 C4          0.1600   -0.0970    0.8510 c2        1 I3E     -0.161000
      5 C5         -1.2260   -0.0720    0.8360 c1        1 I3E     -0.071000
      6 C6         -1.9070   -0.0910   -0.3710 c1        1 I3E     -0.145000
      7 C7         -1.9450   -0.2420   -2.8770 c2        1 I3E     -0.130000
      8 C8         -2.3560    1.1410   -3.3380 c3        1 I3E     -0.208000
      9 C9          0.9000   -0.1550    2.1680 c2        1 I3E      0.267000
     10 O9          0.2830   -0.1160    3.2140 o         1 I3E     -0.297000
     11 C10         2.4030   -0.3190    2.1840 c3        1 I3E     -0.205000
     12 C11         2.8960   -0.3180    3.6140 c3        1 I3E     -0.206000
     13 H2          0.6810   -0.1920   -2.3900 ha        1 I3E      0.135000
     14 H3          1.8410   -0.1590   -0.3320 DU        1 I3E      0.133000
     15 H5         -1.7220   -0.0410    1.6750 ha        1 I3E      0.156000
     16 H6         -2.8830   -0.0730   -0.3820 ha        1 I3E      0.138000
     17 H7         -1.3630   -0.6500   -3.5490 ha        1 I3E      0.089500
     18 H7A        -2.7420   -0.7950   -2.7570 ha        1 I3E      0.089500
     19 H8         -3.0340    1.5000   -2.7290 hc        1 I3E      0.077667
     20 H8A        -2.7270    1.0860   -4.2440 hc        1 I3E      0.077667
     21 H8B        -1.5730    1.7300   -3.3400 hc        1 I3E      0.077667
     22 H10         2.8170    0.4200    1.6960 hc        1 I3E      0.104000
     23 H11         3.8630   -0.1590    3.6270 hc        1 I3E      0.082333
     24 H11A        2.4420    0.3900    4.1160 hc        1 I3E      0.082333
     25 H13         2.6430   -1.1660    1.7570 hc        1 I3E      0.104000
     26 H14         2.7030   -1.1860    4.0270 hc        1 I3E      0.082333
@<TRIPOS>BOND
     1    1    2 1   
     2    1    6 1   
     3    2    3 1   
     4    2   13 1   
     5    3    4 1   
     6    4    5 1   
     7    4    9 1   
     8    5   15 1   
     9    6   16 1   
    10    7    8 1   
    11    7   17 1   
    12    7   18 1   
    13    8   19 1   
    14    8   20 1   
    15    8   21 1   
    16    9   10 1   
    17    9   11 1   
    18   11   12 1   
    19   11   22 1   
    20   11   25 1   
    21   12   23 1   
    22   12   24 1   
    23   12   26 1   
@<TRIPOS>SUBSTRUCTURE
     1 I3E         1 TEMP              0 ****  ****    0 ROOT
