@<TRIPOS>MOLECULE
I3K
   51    55     1     0     0
SMALL
bcc


@<TRIPOS>ATOM
      1 C19        -0.0500   -1.1870    0.9960 c3        1 I3K      0.104700
      2 O18         1.3760   -1.1520    0.9770 os        1 I3K     -0.294900
      3 C13         1.9820   -0.5270    2.0390 ca        1 I3K      0.144100
      4 C14         1.3270    0.0150    3.1200 ca        1 I3K     -0.248300
      5 C12         3.4220   -0.4720    1.9500 ca        1 I3K      0.135100
      6 O16         3.9450   -1.0540    0.8200 os        1 I3K     -0.291900
      7 C17         5.3540   -0.9300    0.6440 c3        1 I3K      0.106700
      8 C15         4.1520    0.1210    2.9540 ca        1 I3K     -0.188000
      9 C6          3.4940    0.6810    4.0780 ca        1 I3K     -0.135300
     10 C7          2.0660    0.6430    4.1750 ca        1 I3K      0.420600
     11 N8          1.3850    1.1870    5.2450 nb        1 I3K     -0.643000
     12 C9          2.0880    1.7660    6.2040 ca        1 I3K      0.417200
     13 C10         3.5110    1.8620    6.2160 ca        1 I3K     -0.286300
     14 C11         4.1930    1.3140    5.1480 ca        1 I3K      0.117100
     15 O20         5.5760    1.4530    4.9960 os        1 I3K     -0.233200
     16 C21         6.3670    1.0600    6.0620 ca        1 I3K      0.128100
     17 C22         5.9370    0.1700    7.0500 ca        1 I3K     -0.106000
     18 C24         7.6820    1.5940    6.0190 ca        1 I3K     -0.086000
     19 C23         8.6280    1.2460    6.9760 ca        1 I3K     -0.083000
     20 C1          8.2060    0.3640    7.9630 ca        1 I3K      0.036100
     21 O5          8.9450   -0.1480    9.0370 os        1 I3K     -0.284700
     22 C2          6.8770   -0.1830    8.0250 ca        1 I3K      0.064400
     23 N3          6.7870   -1.0410    9.1420 nc        1 I3K     -0.443100
     24 C4          8.0040   -0.9950    9.6920 cd        1 I3K      0.517500
     25 N25         8.5150   -1.6720   10.8730 n4        1 I3K     -0.534400
     26 C26         7.8920   -1.1920   12.1170 ca        1 I3K     -0.071400
     27 C27         6.5760   -1.5790   12.4270 ca        1 I3K     -0.077000
     28 C28         6.0080   -1.1470   13.6200 ca        1 I3K     -0.109000
     29 C29         6.7370   -0.3270   14.4940 ca        1 I3K      0.066400
     30 CL3         6.0400    0.1930   15.9360 cl        1 I3K     -0.002400
     31 C30         8.0440    0.0650   14.1680 ca        1 I3K     -0.109000
     32 C31         8.6270   -0.3590   12.9790 ca        1 I3K     -0.077000
     33 H19        -0.4700   -0.1520    1.0030 h1        1 I3K      0.054367
     34 H19A       -0.4160   -1.7690    1.8760 h1        1 I3K      0.054367
     35 H19B       -0.3020   -1.7130    0.0390 h1        1 I3K      0.054367
     36 H14         0.2290   -0.0140    3.1950 ha        1 I3K      0.169000
     37 H17         5.5310   -1.4230   -0.3450 h1        1 I3K      0.050367
     38 H17A        5.8980   -1.4680    1.4580 h1        1 I3K      0.050367
     39 H17B        5.6560    0.1450    0.6120 h1        1 I3K      0.050367
     40 H15         5.2490    0.1860    2.9060 ha        1 I3K      0.154000
     41 H9          1.5080    2.2010    7.0400 h4        1 I3K      0.033100
     42 H10         4.0270    2.3640    7.0430 ha        1 I3K      0.152000
     43 H22         4.9110   -0.2310    7.0620 ha        1 I3K      0.190000
     44 H24         7.9420    2.2910    5.2040 ha        1 I3K      0.184000
     45 H23         9.6510    1.6490    6.9550 ha        1 I3K      0.179000
     46 HN25        8.3250   -2.6830   10.7710 hn        1 I3K      0.484300
     47 H27         5.9840   -2.2090   11.7410 ha        1 I3K      0.168000
     48 H28         4.9760   -1.4510   13.8720 ha        1 I3K      0.184500
     49 H30         8.6170    0.7150   14.8530 ha        1 I3K      0.184500
     50 H31         9.6520   -0.0330   12.7360 ha        1 I3K      0.168000
     51 H252        9.5350   -1.5120   10.9110 hn        1 I3K      0.484300
@<TRIPOS>BOND
     1    1    2 1   
     2    1   33 1   
     3    1   34 1   
     4    1   35 1   
     5    2    3 1   
     6    3    4 ar  
     7    3    5 ar  
     8    4   10 ar  
     9    4   36 1   
    10    5    6 1   
    11    5    8 ar  
    12    6    7 1   
    13    7   37 1   
    14    7   38 1   
    15    7   39 1   
    16    8    9 ar  
    17    8   40 1   
    18    9   10 ar  
    19    9   14 ar  
    20   10   11 ar  
    21   11   12 ar  
    22   12   13 ar  
    23   12   41 1   
    24   13   14 ar  
    25   13   42 1   
    26   14   15 1   
    27   15   16 1   
    28   16   17 ar  
    29   16   18 ar  
    30   17   22 ar  
    31   17   43 1   
    32   18   19 ar  
    33   18   44 1   
    34   19   20 ar  
    35   19   45 1   
    36   20   21 1   
    37   20   22 ar  
    38   21   24 1   
    39   22   23 1   
    40   23   24 2   
    41   24   25 1   
    42   25   26 1   
    43   25   46 1   
    44   25   51 1   
    45   26   27 ar  
    46   26   32 ar  
    47   27   28 ar  
    48   27   47 1   
    49   28   29 ar  
    50   28   48 1   
    51   29   30 1   
    52   29   31 ar  
    53   31   32 ar  
    54   31   49 1   
    55   32   50 1   
@<TRIPOS>SUBSTRUCTURE
     1 I3K         1 TEMP              0 ****  ****    0 ROOT
