@<TRIPOS>MOLECULE
I3K
   50    54     1     0     0
SMALL
bcc


@<TRIPOS>ATOM
      1 C19         9.3470    0.8320   -0.4120 c3        1 I3K      0.107700
      2 O18         8.4430   -0.2610   -0.2870 os        1 I3K     -0.301900
      3 C13         7.1150    0.0680   -0.1250 ca        1 I3K      0.134100
      4 C14         6.6190    1.3510   -0.0760 ca        1 I3K     -0.249300
      5 C12         6.2330   -1.0640   -0.0050 ca        1 I3K      0.110100
      6 O16         6.8600   -2.2900   -0.0720 os        1 I3K     -0.301900
      7 C17         6.0100   -3.4270    0.0340 c3        1 I3K      0.108700
      8 C15         4.8820   -0.8680    0.1630 ca        1 I3K     -0.163000
      9 C6          4.3540    0.4470    0.2160 ca        1 I3K     -0.151300
     10 C7          5.2160    1.5790    0.0970 ca        1 I3K      0.424600
     11 N8          4.7430    2.8770    0.1410 nb        1 I3K     -0.677000
     12 C9          3.4430    3.0550    0.3000 ca        1 I3K      0.437200
     13 C10         2.4890    2.0040    0.4320 ca        1 I3K     -0.327300
     14 C11         2.9550    0.7070    0.3900 ca        1 I3K      0.166100
     15 O20         2.1680   -0.4250    0.5350 os        1 I3K     -0.249200
     16 C21         0.7840   -0.2320    0.5300 ca        1 I3K      0.080100
     17 C22         0.1420    0.2390   -0.6230 ca        1 I3K     -0.102000
     18 C24         0.0990   -0.6600    1.6820 ca        1 I3K     -0.124000
     19 C23        -1.2960   -0.6430    1.7230 ca        1 I3K     -0.092000
     20 C1         -1.9390   -0.1770    0.5880 ca        1 I3K      0.012100
     21 O5         -3.3130   -0.0530    0.3700 os        1 I3K     -0.313700
     22 C2         -1.2520    0.2700   -0.5940 ca        1 I3K      0.101400
     23 N3         -2.2020    0.6690   -1.5560 nc        1 I3K     -0.609100
     24 C4         -3.4010    0.4770   -0.9630 cd        1 I3K      0.743500
     25 N25        -4.6610    0.8010   -1.4450 nh        1 I3K     -0.655600
     26 C26        -5.8430    0.1930   -0.9630 ca        1 I3K      0.126600
     27 C27        -6.0990    0.0520    0.4160 ca        1 I3K     -0.140000
     28 C28        -7.3110   -0.4730    0.8540 ca        1 I3K     -0.103500
     29 C29        -8.2860   -0.8570   -0.0700 ca        1 I3K      0.004400
     30 CL3        -9.7640   -1.4940    0.4710 cl        1 I3K     -0.084400
     31 C30        -8.0480   -0.7180   -1.4410 ca        1 I3K     -0.103500
     32 C31        -6.8370   -0.2030   -1.8880 ca        1 I3K     -0.140000
     33 H19         9.1040    1.4450   -1.3130 h1        1 I3K      0.047700
     34 H19A        9.3320    1.4640    0.5090 h1        1 I3K      0.047700
     35 H19B       10.3410    0.3290   -0.5310 h1        1 I3K      0.047700
     36 H14         7.2840    2.2230   -0.1680 ha        1 I3K      0.160000
     37 H17         5.4890   -3.4400    1.0230 h1        1 I3K      0.046700
     38 H17A        5.2670   -3.4450   -0.8000 h1        1 I3K      0.046700
     39 H17B        6.7200   -4.2880   -0.0500 h1        1 I3K      0.046700
     40 H15         4.1830   -1.7120    0.2580 ha        1 I3K      0.158000
     41 H9          3.0950    4.1050    0.3320 h4        1 I3K      0.024100
     42 H10         1.4250    2.2390    0.5610 ha        1 I3K      0.158000
     43 H22         0.7150    0.5670   -1.5020 ha        1 I3K      0.171000
     44 H24         0.6750   -1.0200    2.5480 ha        1 I3K      0.158000
     45 H23        -1.8520   -0.9790    2.6070 ha        1 I3K      0.158000
     46 HN25       -4.6690    1.0200   -2.4240 hn        1 I3K      0.453800
     47 H27        -5.3450    0.3550    1.1610 ha        1 I3K      0.151500
     48 H28        -7.4970   -0.5800    1.9340 ha        1 I3K      0.152500
     49 H30        -8.8150   -1.0200   -2.1720 ha        1 I3K      0.152500
     50 H31        -6.6680   -0.1030   -2.9710 ha        1 I3K      0.151500
@<TRIPOS>BOND
     1    1    2 1   
     2    1   33 1   
     3    1   34 1   
     4    1   35 1   
     5    2    3 1   
     6    3    4 ar  
     7    3    5 ar  
     8    4   10 ar  
     9    4   36 1   
    10    5    6 1   
    11    5    8 ar  
    12    6    7 1   
    13    7   37 1   
    14    7   38 1   
    15    7   39 1   
    16    8    9 ar  
    17    8   40 1   
    18    9   10 ar  
    19    9   14 ar  
    20   10   11 ar  
    21   11   12 ar  
    22   12   13 ar  
    23   12   41 1   
    24   13   14 ar  
    25   13   42 1   
    26   14   15 1   
    27   15   16 1   
    28   16   17 ar  
    29   16   18 ar  
    30   17   22 ar  
    31   17   43 1   
    32   18   19 ar  
    33   18   44 1   
    34   19   20 ar  
    35   19   45 1   
    36   20   21 1   
    37   20   22 ar  
    38   21   24 1   
    39   22   23 1   
    40   23   24 2   
    41   24   25 1   
    42   25   26 1   
    43   25   46 1   
    44   26   27 ar  
    45   26   32 ar  
    46   27   28 ar  
    47   27   47 1   
    48   28   29 ar  
    49   28   48 1   
    50   29   30 1   
    51   29   31 ar  
    52   31   32 ar  
    53   31   49 1   
    54   32   50 1   
@<TRIPOS>SUBSTRUCTURE
     1 I3K         1 TEMP              0 ****  ****    0 ROOT
