@<TRIPOS>MOLECULE
I3K
   50    54     1     0     0
SMALL
bcc


@<TRIPOS>ATOM
      1 C19         0.5750   -0.6200   -0.5670 c3        1 I3K      0.107700
      2 O18         1.9500   -0.4200   -0.2520 os        1 I3K     -0.301900
      3 C13         2.2470   -0.2560    1.0830 ca        1 I3K      0.134100
      4 C14         1.3260   -0.2710    2.1050 ca        1 I3K     -0.249300
      5 C12         3.6460   -0.0580    1.3600 ca        1 I3K      0.110100
      6 O16         4.4580   -0.0650    0.2460 os        1 I3K     -0.301900
      7 C17         5.8490    0.1180    0.4920 c3        1 I3K      0.108700
      8 C15         4.0720    0.1200    2.6560 ca        1 I3K     -0.163000
      9 C6          3.1370    0.1070    3.7210 ca        1 I3K     -0.151300
     10 C7          1.7460   -0.0890    3.4620 ca        1 I3K      0.424600
     11 N8          0.8010   -0.1110    4.4710 nb        1 I3K     -0.677000
     12 C9          1.2210    0.0590    5.7130 ca        1 I3K      0.437200
     13 C10         2.5800    0.2660    6.0910 ca        1 I3K     -0.327300
     14 C11         3.5270    0.2880    5.0880 ca        1 I3K      0.166100
     15 O20         4.8820    0.5100    5.2800 os        1 I3K     -0.249200
     16 C21         5.3350    0.5190    6.6030 ca        1 I3K      0.080100
     17 C22         5.2740   -0.6470    7.3760 ca        1 I3K     -0.102000
     18 C24         5.9550    1.7070    7.0320 ca        1 I3K     -0.124000
     19 C23         6.5670    1.7720    8.2850 ca        1 I3K     -0.093000
     20 C1          6.5100    0.6240    9.0580 ca        1 I3K      0.012100
     21 O5          7.0330    0.4240   10.3380 os        1 I3K     -0.313700
     22 C2          5.8740   -0.5950    8.6350 ca        1 I3K      0.101400
     23 N3          6.0060   -1.5610    9.6530 nc        1 I3K     -0.609100
     24 C4          6.6820   -0.9360   10.6420 cd        1 I3K      0.743500
     25 N25         6.9900   -1.4130   11.9080 nu        1 I3K     -0.655600
     26 C26         8.0350   -0.8740   12.6930 ca        1 I3K      0.126600
     27 C27         8.1930    0.5150   12.8720 ca        1 I3K     -0.140000
     28 C28         9.1800    1.0060   13.7210 ca        1 I3K     -0.103500
     29 C29        10.0170    0.1240   14.4080 ca        1 I3K      0.004400
     30 Cl3        11.2180    0.7290   15.4450 cl        1 I3K     -0.084400
     31 C30         9.8700   -1.2570   14.2450 ca        1 I3K     -0.103500
     32 C31         8.8920   -1.7550   13.3930 ca        1 I3K     -0.140000
     33 H19        -0.0330    0.2640   -0.2570 h1        1 I3K      0.047700
     34 H19A        0.1900   -1.5500   -0.0830 h1        1 I3K      0.047700
     35 H19B        0.5800   -0.7260   -1.6810 h1        1 I3K      0.047700
     36 H14         0.2540   -0.4220    1.9050 ha        1 I3K      0.160000
     37 H17         6.2480   -0.7020    1.1370 h1        1 I3K      0.046700
     38 H17A        6.0380    1.1140    0.9620 h1        1 I3K      0.046700
     39 H17B        6.2990    0.0710   -0.5320 h1        1 I3K      0.046700
     40 H15         5.1340    0.2740    2.8990 ha        1 I3K      0.158000
     41 H9          0.4410    0.0370    6.4980 h4        1 I3K      0.024100
     42 H10         2.8440    0.3980    7.1480 ha        1 I3K      0.158000
     43 H22         4.7770   -1.5540    7.0050 ha        1 I3K      0.171000
     44 H24         5.9640    2.5810    6.3640 ha        1 I3K      0.158000
     45 H23         7.0640    2.6850    8.6380 ha        1 I3K      0.158000
     46 HN25        6.8580   -2.4020   12.0040 hn        1 I3K      0.453800
     47 H27         7.5370    1.2270   12.3440 ha        1 I3K      0.151500
     48 H28         9.2930    2.0940   13.8500 ha        1 I3K      0.152500
     49 H30        10.5290   -1.9540   14.7860 ha        1 I3K      0.152500
     50 H31         8.7930   -2.8460   13.2760 ha        1 I3K      0.151500
@<TRIPOS>BOND
     1    1    2 1   
     2    1   33 1   
     3    1   34 1   
     4    1   35 1   
     5    2    3 1   
     6    3    4 ar  
     7    3    5 ar  
     8    4   10 ar  
     9    4   36 1   
    10    5    6 1   
    11    5    8 ar  
    12    6    7 1   
    13    7   37 1   
    14    7   38 1   
    15    7   39 1   
    16    8    9 ar  
    17    8   40 1   
    18    9   10 ar  
    19    9   14 ar  
    20   10   11 ar  
    21   11   12 ar  
    22   12   13 ar  
    23   12   41 1   
    24   13   14 ar  
    25   13   42 1   
    26   14   15 1   
    27   15   16 1   
    28   16   17 ar  
    29   16   18 ar  
    30   17   22 ar  
    31   17   43 1   
    32   18   19 ar  
    33   18   44 1   
    34   19   20 ar  
    35   19   45 1   
    36   20   21 1   
    37   20   22 ar  
    38   21   24 1   
    39   22   23 1   
    40   23   24 2   
    41   24   25 1   
    42   25   26 1   
    43   25   46 1   
    44   26   27 ar  
    45   26   32 ar  
    46   27   28 ar  
    47   27   47 1   
    48   28   29 ar  
    49   28   48 1   
    50   29   30 1   
    51   29   31 ar  
    52   31   32 ar  
    53   31   49 1   
    54   32   50 1   
@<TRIPOS>SUBSTRUCTURE
     1 I3K         1 TEMP              0 ****  ****    0 ROOT
