@<TRIPOS>MOLECULE
I3M
    3     2     1     0     0
SMALL
bcc


@<TRIPOS>ATOM
      1 I01         0.0600    0.0490   -2.4090 i         1 I3M     -0.517000
      2 I02         0.0980   -1.0760    0.2340 i         1 I3M      0.035000
      3 I03        -0.1580    1.0270    2.1750 i         1 I3M     -0.517000
@<TRIPOS>BOND
     1    1    2 1   
     2    2    3 1   
@<TRIPOS>SUBSTRUCTURE
     1 I3M         1 TEMP              0 ****  ****    0 ROOT
