@<TRIPOS>MOLECULE
I3N
   41    43     1     0     0
SMALL
bcc


@<TRIPOS>ATOM
      1 C1          1.5430   -0.3660   -0.6850 c3        1 I3N      0.116700
      2 O2          0.7590    0.1510    0.3820 os        1 I3N     -0.347900
      3 C3          1.3870    0.1710    1.6230 ca        1 I3N      0.075100
      4 C4          2.7670    0.0420    1.7920 ca        1 I3N     -0.142000
      5 C5          3.2750    0.0960    3.0860 ca        1 I3N     -0.046800
      6 C6          2.3850    0.2860    4.2080 ca        1 I3N     -0.074200
      7 C7          1.0070    0.4230    4.0110 ca        1 I3N     -0.123000
      8 C8          0.5130    0.3610    2.7140 ca        1 I3N     -0.153000
      9 N9          3.1600    0.3750    5.3860 na        1 I3N     -0.077400
     10 C10         4.5150    0.1150    5.0110 cc        1 I3N     -0.080300
     11 C11         4.6220   -0.0060    3.6270 cd        1 I3N     -0.054400
     12 C12         5.8460   -0.1840    2.8400 c3        1 I3N     -0.152200
     13 C13         6.4540   -1.6040    2.9670 c         1 I3N      0.919600
     14 O14         6.2910   -2.4000    2.0030 o         1 I3N     -0.840800
     15 O15         7.1170   -1.8730    4.0110 o         1 I3N     -0.840800
     16 C16         5.6240    0.0570    5.9810 c3        1 I3N     -0.064900
     17 C17         2.6350    0.0480    6.6800 c3        1 I3N      0.086600
     18 C18         2.3500   -1.3970    6.9870 ca        1 I3N     -0.113300
     19 C19         3.1620   -2.4310    6.5090 ca        1 I3N     -0.116500
     20 C20         2.8810   -3.7540    6.8500 ca        1 I3N     -0.134000
     21 C21         1.7960   -4.0540    7.6730 ca        1 I3N     -0.139000
     22 C22         0.9850   -3.0260    8.1530 ca        1 I3N     -0.134000
     23 C23         1.2590   -1.7040    7.8100 ca        1 I3N     -0.116500
     24 H11         1.9820   -1.3580   -0.4200 h1        1 I3N      0.038033
     25 H12         0.8130   -0.4670   -1.5280 h1        1 I3N      0.038033
     26 H13         2.3530    0.3550   -0.9560 h1        1 I3N      0.038033
     27 H4          3.4500   -0.1180    0.9470 ha        1 I3N      0.153000
     28 H7          0.3240    0.5650    4.8580 ha        1 I3N      0.121000
     29 H8         -0.5640    0.4560    2.5220 ha        1 I3N      0.129000
     30 H121        6.6230    0.5470    3.1840 hc        1 I3N      0.035700
     31 H122        5.6310    0.0090    1.7570 hc        1 I3N      0.035700
     32 H161        5.9300    1.0880    6.2890 hc        1 I3N      0.061367
     33 H162        6.4950   -0.4640    5.4870 hc        1 I3N      0.061367
     34 H163        5.3430   -0.5180    6.8990 hc        1 I3N      0.061367
     35 H171        1.6800    0.6390    6.8070 h1        1 I3N      0.054700
     36 H172        3.3810    0.4170    7.4460 h1        1 I3N      0.054700
     37 H19         4.0250   -2.2090    5.8540 ha        1 I3N      0.149000
     38 H20         3.5220   -4.5600    6.4620 ha        1 I3N      0.128500
     39 H21         1.5770   -5.0970    7.9390 ha        1 I3N      0.119000
     40 H22         0.1270   -3.2570    8.7990 ha        1 I3N      0.128500
     41 H23         0.6120   -0.8970    8.1850 ha        1 I3N      0.149000
@<TRIPOS>BOND
     1    1    2 1   
     2    1   24 1   
     3    1   25 1   
     4    1   26 1   
     5    2    3 1   
     6    3    4 ar  
     7    3    8 ar  
     8    4    5 ar  
     9    4   27 1   
    10    5    6 ar  
    11    5   11 1   
    12    6    7 ar  
    13    6    9 1   
    14    7    8 ar  
    15    7   28 1   
    16    8   29 1   
    17    9   10 1   
    18    9   17 1   
    19   10   11 2   
    20   10   16 1   
    21   11   12 1   
    22   12   13 1   
    23   12   30 1   
    24   12   31 1   
    25   13   14 1   
    26   13   15 1   
    27   16   32 1   
    28   16   33 1   
    29   16   34 1   
    30   17   18 1   
    31   17   35 1   
    32   17   36 1   
    33   18   19 ar  
    34   18   23 ar  
    35   19   20 ar  
    36   19   37 1   
    37   20   21 ar  
    38   20   38 1   
    39   21   22 ar  
    40   21   39 1   
    41   22   23 ar  
    42   22   40 1   
    43   23   41 1   
@<TRIPOS>SUBSTRUCTURE
     1 I3N         1 TEMP              0 ****  ****    0 ROOT
