@<TRIPOS>MOLECULE
I3N
   41    43     1     0     0
SMALL
bcc


@<TRIPOS>ATOM
      1 C1          1.9510   -1.1970    4.6680 c3        1 I3N      0.116700
      2 O2          2.7380   -0.3830    3.8100 os        1 I3N     -0.347900
      3 C3          2.0840    0.0920    2.6770 ca        1 I3N      0.075100
      4 C4          0.6960    0.0950    2.5320 ca        1 I3N     -0.142000
      5 C5          0.1630    0.6130    1.3560 ca        1 I3N     -0.046800
      6 C6          1.0360    1.1330    0.3310 ca        1 I3N     -0.074200
      7 C7          2.4250    1.1280    0.5050 ca        1 I3N     -0.123000
      8 C8          2.9440    0.6020    1.6810 ca        1 I3N     -0.153000
      9 N9          0.2420    1.6590   -0.7130 na        1 I3N     -0.077400
     10 C10        -1.1180    1.3500   -0.3930 cc        1 I3N     -0.080300
     11 C11        -1.1990    0.7670    0.8710 cd        1 I3N     -0.054400
     12 C12        -2.4130    0.3890    1.5990 c3        1 I3N     -0.152200
     13 C13        -3.1080   -0.8710    1.0210 c         1 I3N      0.919600
     14 O14        -2.9700   -1.9560    1.6480 o         1 I3N     -0.840800
     15 O15        -3.8090   -0.7340   -0.0240 o         1 I3N     -0.840800
     16 C16        -2.2500    1.6810   -1.2780 c3        1 I3N     -0.064900
     17 C17         0.7160    1.7700   -2.0620 c3        1 I3N      0.086600
     18 C18         0.9090    0.5060   -2.8550 ca        1 I3N     -0.113300
     19 C19         0.0480   -0.5890   -2.7250 ca        1 I3N     -0.116500
     20 C20         0.2420   -1.7270   -3.5090 ca        1 I3N     -0.134000
     21 C21         1.2880   -1.7770   -4.4290 ca        1 I3N     -0.139000
     22 C22         2.1470   -0.6860   -4.5630 ca        1 I3N     -0.134000
     23 C23         1.9610    0.4490   -3.7780 ca        1 I3N     -0.116500
     24 H11         1.4480   -2.0160    4.0990 h1        1 I3N      0.038033
     25 H12         2.6920   -1.6150    5.3940 h1        1 I3N      0.038033
     26 H13         1.1910   -0.5750    5.2020 h1        1 I3N      0.038033
     27 H4          0.0240   -0.3140    3.3000 ha        1 I3N      0.153000
     28 H7          3.0950    1.5200   -0.2710 ha        1 I3N      0.121000
     29 H8          4.0280    0.5740    1.8490 ha        1 I3N      0.129000
     30 H121       -2.1630    0.1880    2.6730 hc        1 I3N      0.035700
     31 H122       -3.1540    1.2300    1.5580 hc        1 I3N      0.035700
     32 H161       -2.0250    1.4430   -2.3470 hc        1 I3N      0.061367
     33 H162       -3.1380    1.0650   -0.9550 hc        1 I3N      0.061367
     34 H163       -2.5010    2.7680   -1.2020 hc        1 I3N      0.061367
     35 H171       -0.0230    2.4150   -2.6230 h1        1 I3N      0.054700
     36 H172        1.7020    2.3220   -2.0190 h1        1 I3N      0.054700
     37 H19        -0.7850   -0.5640   -1.9980 ha        1 I3N      0.149000
     38 H20        -0.4360   -2.5850   -3.3920 ha        1 I3N      0.128500
     39 H21         1.4390   -2.6750   -5.0440 ha        1 I3N      0.119000
     40 H22         2.9750   -0.7230   -5.2850 ha        1 I3N      0.128500
     41 H23         2.6450    1.3030   -3.8820 ha        1 I3N      0.149000
@<TRIPOS>BOND
     1    1    2 1   
     2    1   24 1   
     3    1   25 1   
     4    1   26 1   
     5    2    3 1   
     6    3    4 ar  
     7    3    8 ar  
     8    4    5 ar  
     9    4   27 1   
    10    5    6 ar  
    11    5   11 1   
    12    6    7 ar  
    13    6    9 1   
    14    7    8 ar  
    15    7   28 1   
    16    8   29 1   
    17    9   10 1   
    18    9   17 1   
    19   10   11 2   
    20   10   16 1   
    21   11   12 1   
    22   12   13 1   
    23   12   30 1   
    24   12   31 1   
    25   13   14 1   
    26   13   15 1   
    27   16   32 1   
    28   16   33 1   
    29   16   34 1   
    30   17   18 1   
    31   17   35 1   
    32   17   36 1   
    33   18   19 ar  
    34   18   23 ar  
    35   19   20 ar  
    36   19   37 1   
    37   20   21 ar  
    38   20   38 1   
    39   21   22 ar  
    40   21   39 1   
    41   22   23 ar  
    42   22   40 1   
    43   23   41 1   
@<TRIPOS>SUBSTRUCTURE
     1 I3N         1 TEMP              0 ****  ****    0 ROOT
