@<TRIPOS>MOLECULE
I3N
   41    43     1     0     0
SMALL
bcc


@<TRIPOS>ATOM
      1 C1          1.5680   -0.4510   -0.7000 c3        1 I3N      0.116700
      2 O2          0.7760    0.0780    0.3550 os        1 I3N     -0.347900
      3 C3          1.3970    0.1200    1.5990 ca        1 I3N      0.075100
      4 C4          2.7760    0.0020    1.7770 ca        1 I3N     -0.142000
      5 C5          3.2760    0.0770    3.0730 ca        1 I3N     -0.046800
      6 C6          2.3800    0.2790    4.1870 ca        1 I3N     -0.074200
      7 C7          1.0020    0.4050    3.9800 ca        1 I3N     -0.123000
      8 C8          0.5150    0.3220    2.6820 ca        1 I3N     -0.153000
      9 N9          3.1470    0.3910    5.3680 na        1 I3N     -0.077400
     10 C10         4.5060    0.1320    5.0040 cc        1 I3N     -0.080300
     11 C11         4.6210   -0.0090    3.6220 cd        1 I3N     -0.054400
     12 C12         5.8500   -0.1920    2.8450 c3        1 I3N     -0.152200
     13 C13         6.4660   -1.6060    2.9970 c         1 I3N      0.919600
     14 O14         6.3130   -2.4170    2.0440 o         1 I3N     -0.840800
     15 O15         7.1240   -1.8570    4.0480 o         1 I3N     -0.840800
     16 C16         5.6100    0.0950    5.9810 c3        1 I3N     -0.064900
     17 C17         2.6180    0.0800    6.6640 c3        1 I3N      0.086600
     18 C18         2.3380   -1.3630    6.9910 ca        1 I3N     -0.113300
     19 C19         3.1590   -2.3980    6.5330 ca        1 I3N     -0.116500
     20 C20         2.8850   -3.7180    6.8920 ca        1 I3N     -0.134000
     21 C21         1.7970   -4.0120    7.7130 ca        1 I3N     -0.139000
     22 C22         0.9770   -2.9810    8.1740 ca        1 I3N     -0.134000
     23 C23         1.2450   -1.6630    7.8120 ca        1 I3N     -0.116500
     24 H11         2.0110   -1.4360   -0.4180 h1        1 I3N      0.038033
     25 H12         0.8430   -0.5680   -1.5450 h1        1 I3N      0.038033
     26 H13         2.3750    0.2710   -0.9770 h1        1 I3N      0.038033
     27 H4          3.4650   -0.1680    0.9380 ha        1 I3N      0.153000
     28 H7          0.3130    0.5560    4.8220 ha        1 I3N      0.121000
     29 H8         -0.5610    0.4070    2.4830 ha        1 I3N      0.129000
     30 H121        6.6220    0.5490    3.1820 hc        1 I3N      0.035700
     31 H122        5.6410   -0.0160    1.7590 hc        1 I3N      0.035700
     32 H161        5.9090    1.1320    6.2740 hc        1 I3N      0.061367
     33 H162        6.4860   -0.4280    5.5000 hc        1 I3N      0.061367
     34 H163        5.3270   -0.4670    6.9060 hc        1 I3N      0.061367
     35 H171        1.6580    0.6660    6.7770 h1        1 I3N      0.054700
     36 H172        3.3570    0.4650    7.4280 h1        1 I3N      0.054700
     37 H19         4.0250   -2.1810    5.8800 ha        1 I3N      0.149000
     38 H20         3.5320   -4.5260    6.5190 ha        1 I3N      0.128500
     39 H21         1.5820   -5.0530    7.9940 ha        1 I3N      0.119000
     40 H22         0.1170   -3.2090    8.8180 ha        1 I3N      0.128500
     41 H23         0.5910   -0.8550    8.1710 ha        1 I3N      0.149000
@<TRIPOS>BOND
     1    1    2 1   
     2    1   24 1   
     3    1   25 1   
     4    1   26 1   
     5    2    3 1   
     6    3    4 ar  
     7    3    8 ar  
     8    4    5 ar  
     9    4   27 1   
    10    5    6 ar  
    11    5   11 1   
    12    6    7 ar  
    13    6    9 1   
    14    7    8 ar  
    15    7   28 1   
    16    8   29 1   
    17    9   10 1   
    18    9   17 1   
    19   10   11 2   
    20   10   16 1   
    21   11   12 1   
    22   12   13 1   
    23   12   30 1   
    24   12   31 1   
    25   13   14 1   
    26   13   15 1   
    27   16   32 1   
    28   16   33 1   
    29   16   34 1   
    30   17   18 1   
    31   17   35 1   
    32   17   36 1   
    33   18   19 ar  
    34   18   23 ar  
    35   19   20 ar  
    36   19   37 1   
    37   20   21 ar  
    38   20   38 1   
    39   21   22 ar  
    40   21   39 1   
    41   22   23 ar  
    42   22   40 1   
    43   23   41 1   
@<TRIPOS>SUBSTRUCTURE
     1 I3N         1 TEMP              0 ****  ****    0 ROOT
