@<TRIPOS>MOLECULE
I3N
   41    34     1     0     0
SMALL
bcc


@<TRIPOS>ATOM
      1 C1         -3.6240    1.7160   -4.2190 c3        1 I3N     -0.073000
      2 O2         -2.8770    0.6020   -3.7840 os        1 I3N     -0.231000
      3 C3         -2.1950    0.8100   -2.5630 c2        1 I3N      0.030000
      4 C4         -0.8130    0.8570   -2.6130 c2        1 I3N     -0.142000
      5 C5         -0.0600    0.7450   -1.4250 c1        1 I3N     -0.035000
      6 C6         -0.6990    0.5910   -0.2190 c1        1 I3N     -0.029000
      7 C7         -2.1010    0.5430   -0.1680 c1        1 I3N     -0.123000
      8 C8         -2.8430    0.6530   -1.3380 c1        1 I3N     -0.153000
      9 N9          0.2680    0.5060    0.7710 n1        1 I3N     -0.169000
     10 C10         1.4960    0.6090    0.1750 c1        1 I3N     -0.049000
     11 C11         1.3000    0.7570   -1.1870 c1        1 I3N     -0.062000
     12 C12         2.3210    0.8930   -2.3060 c2        1 I3N     -0.185000
     13 C13         2.7890   -0.4860   -2.7340 c2        1 I3N      0.339000
     14 O14         1.9910   -1.4510   -2.7140 o         1 I3N     -0.575500
     15 O15         3.9650   -0.6510   -3.1440 o         1 I3N     -0.575500
     16 C16         2.7920    1.0940    0.7960 c2        1 I3N     -0.187000
     17 C17        -0.0400    0.5770    2.1800 c2        1 I3N      0.020000
     18 C18         0.1030   -0.8180    2.8060 c2        1 I3N     -0.106000
     19 C19        -1.0080   -1.6270    2.9510 c2        1 I3N     -0.099000
     20 C20        -0.8930   -2.8630    3.5840 c1        1 I3N     -0.124000
     21 C21         0.3370   -3.2820    4.0690 c1        1 I3N     -0.141500
     22 C22         1.4500   -2.4720    3.9240 c1        1 I3N     -0.141500
     23 C23         1.3350   -1.2380    3.2920 c1        1 I3N     -0.134000
     24 H11        -3.9120    1.5750   -5.1480 h1        1 I3N      0.077333
     25 H12        -3.0650    2.5260   -4.1690 h1        1 I3N      0.077333
     26 H13        -4.4120    1.8260   -3.6450 h1        1 I3N      0.077333
     27 H4         -0.3550    0.9030   -3.4830 ha        1 I3N      0.153000
     28 H7         -2.5560    0.4330    0.6920 ha        1 I3N      0.121000
     29 H8         -3.8190    0.5680   -1.3080 ha        1 I3N      0.129000
     30 H121        1.9100    1.3520   -3.0710 ha        1 I3N      0.075000
     31 H122        3.0890    1.4140   -1.9860 ha        1 I3N      0.075000
     32 H161        3.4870    0.4200    0.6660 ha        1 I3N      0.100667
     33 H162        3.0630    1.9250    0.3710 ha        1 I3N      0.100667
     34 H163        2.6570    1.2460    1.7600 ha        1 I3N      0.100667
     35 H171       -0.9630    0.8970    2.2980 ha        1 I3N      0.094000
     36 H172        0.5840    1.2020    2.6220 ha        1 I3N      0.094000
     37 H19        -1.8780   -1.3310    2.6080 ha        1 I3N      0.180000
     38 H20        -1.6790   -3.4320    3.6890 ha        1 I3N      0.141000
     39 H21         0.4170   -4.1470    4.5120 ha        1 I3N      0.117500
     40 H22         2.3190   -2.7690    4.2660 ha        1 I3N      0.117500
     41 H23         2.1170   -0.6700    3.1900 ha        1 I3N      0.118000
@<TRIPOS>BOND
     1    1    2 1   
     2    1   24 1   
     3    1   25 1   
     4    1   26 1   
     5    2    3 1   
     6    3    4 1   
     7    3    8 1   
     8    4    5 1   
     9    4   27 1   
    10    6    7 1   
    11    7   28 1   
    12    8   29 1   
    13    9   10 1   
    14   10   11 1   
    15   12   13 1   
    16   12   30 1   
    17   12   31 1   
    18   13   14 1   
    19   13   15 1   
    20   16   32 1   
    21   16   33 1   
    22   16   34 1   
    23   17   18 1   
    24   17   35 1   
    25   17   36 1   
    26   18   19 1   
    27   18   23 1   
    28   19   20 1   
    29   19   37 1   
    30   20   38 1   
    31   21   22 1   
    32   21   39 1   
    33   22   40 1   
    34   23   41 1   
@<TRIPOS>SUBSTRUCTURE
     1 I3N         1 TEMP              0 ****  ****    0 ROOT
