@<TRIPOS>MOLECULE
I3P
   33    33     1     0     0
SMALL
bcc


@<TRIPOS>ATOM
      1 C1         -0.5620   -0.4230   -1.4710 c3        1 I3P      0.214100
      2 C2          0.9580   -0.4240   -1.5030 c3        1 I3P      0.107100
      3 C3          1.5710   -0.4530   -0.1050 c3        1 I3P      0.119100
      4 C4          1.0030    0.6500    0.8080 c3        1 I3P      0.199100
      5 C5         -0.5240    0.6520    0.8380 c3        1 I3P      0.185100
      6 C6         -1.1310    0.6800   -0.5550 c3        1 I3P      0.107100
      7 O1         -1.0090   -1.6690   -1.0140 os        1 I3P     -0.604200
      8 O2          1.4090   -1.5750   -2.2360 oh        1 I3P     -0.685800
      9 O3          1.3120   -1.7030    0.4780 oh        1 I3P     -0.663800
     10 O4          1.4500    1.9100    0.3370 os        1 I3P     -0.593200
     11 O5         -0.9750   -0.5120    1.5180 os        1 I3P     -0.624200
     12 O6         -0.8650    1.9370   -1.1400 oh        1 I3P     -0.674800
     13 P1         -1.9000   -2.5210   -1.9610 p5        1 I3P      1.347900
     14 O11        -3.2490   -1.8150   -2.1640 o         1 I3P     -0.962500
     15 O12        -2.1290   -3.8770   -1.3560 o         1 I3P     -0.962500
     16 O13        -1.2090   -2.6770   -3.2920 o         1 I3P     -0.962500
     17 P4          2.3970    2.7600    1.2590 p5        1 I3P      1.347900
     18 O41         3.5510    1.9130    1.7060 o         1 I3P     -0.965167
     19 O42         2.9310    3.9900    0.4650 o         1 I3P     -0.965167
     20 O43         1.6200    3.2410    2.4780 o         1 I3P     -0.965167
     21 P5         -1.9110   -0.3320    2.7940 p5        1 I3P      1.356900
     22 O51        -3.1410    0.5180    2.4110 o         1 I3P     -0.962833
     23 O52        -2.3850   -1.7410    3.3000 o         1 I3P     -0.962833
     24 O53        -1.1330    0.3650    3.8950 o         1 I3P     -0.962833
     25 H1         -0.9020   -0.2800   -2.3960 h1        1 I3P      0.035700
     26 H2          1.2700    0.3980   -1.9730 h1        1 I3P      0.042700
     27 H3          2.5600   -0.3330   -0.1830 h1        1 I3P      0.035700
     28 H4          1.3540    0.5080    1.7600 h1        1 I3P      0.045700
     29 H5         -0.8260    1.4330    1.3220 h1        1 I3P      0.034700
     30 H6         -2.0760    0.5660   -0.4800 h1        1 I3P      0.023700
     31 HO2         2.0450   -1.3450   -2.7680 ho        1 I3P      0.449000
     32 HO3         2.1160   -2.1300    0.6660 ho        1 I3P      0.424000
     33 HO6        -1.6170    2.2890   -1.4380 ho        1 I3P      0.443000
@<TRIPOS>BOND
     1    1    2 1   
     2    1    6 1   
     3    1    7 1   
     4    1   25 1   
     5    2    3 1   
     6    2    8 1   
     7    2   26 1   
     8    3    4 1   
     9    3    9 1   
    10    3   27 1   
    11    4    5 1   
    12    4   10 1   
    13    4   28 1   
    14    5    6 1   
    15    5   11 1   
    16    5   29 1   
    17    6   12 1   
    18    6   30 1   
    19    7   13 1   
    20    8   31 1   
    21    9   32 1   
    22   10   17 1   
    23   11   21 1   
    24   12   33 1   
    25   13   14 1   
    26   13   15 1   
    27   13   16 1   
    28   17   18 1   
    29   17   19 1   
    30   17   20 1   
    31   21   22 1   
    32   21   23 1   
    33   21   24 1   
@<TRIPOS>SUBSTRUCTURE
     1 I3P         1 TEMP              0 ****  ****    0 ROOT
