@<TRIPOS>MOLECULE
I3P
   33    33     1     0     0
SMALL
bcc


@<TRIPOS>ATOM
      1 C1          0.3590   -0.1110    2.0040 c3        1 I3P      0.201100
      2 C2          1.7640   -0.2430    1.3570 c3        1 I3P      0.109100
      3 C3          1.6840   -0.8890   -0.0350 c3        1 I3P      0.110100
      4 C4          0.8910   -0.0030   -1.0570 c3        1 I3P      0.211100
      5 C5         -0.5960   -0.1320   -0.5270 c3        1 I3P      0.198100
      6 C6         -0.6070    0.4960    0.9330 c3        1 I3P      0.102100
      7 O1          0.4560    0.7220    3.1180 os        1 I3P     -0.603200
      8 O2          2.4380    1.0090    1.2900 oh        1 I3P     -0.634800
      9 O3          2.9930   -1.2690   -0.4200 oh        1 I3P     -0.703800
     10 O4          1.1180   -0.4460   -2.3490 os        1 I3P     -0.584200
     11 O5         -1.5390    0.5250   -1.2990 os        1 I3P     -0.585200
     12 O6         -1.9020    0.4250    1.5060 oh        1 I3P     -0.660800
     13 P1          0.5460    0.1370    4.7270 p5        1 I3P      1.351900
     14 O11         0.4450   -1.3710    4.6960 o         1 I3P     -0.965833
     15 O12         1.9000    0.6320    5.2060 o         1 I3P     -0.965833
     16 O13        -0.5680    0.8130    5.5020 o         1 I3P     -0.965833
     17 P4          2.1870    0.3350   -3.4390 p5        1 I3P      1.353900
     18 O41         3.5360   -0.2500   -3.0360 o         1 I3P     -0.957833
     19 O42         1.8090   -0.1400   -4.8270 o         1 I3P     -0.957833
     20 O43         2.1430    1.8330   -3.2710 o         1 I3P     -0.957833
     21 P5         -3.0360   -0.1870   -1.7510 p5        1 I3P      1.348900
     22 O51        -3.9400    0.2800   -0.6200 o         1 I3P     -0.958167
     23 O52        -3.4590    0.4440   -3.0620 o         1 I3P     -0.958167
     24 O53        -2.9090   -1.6900   -1.8020 o         1 I3P     -0.958167
     25 H1         -0.0040   -1.1250    2.3240 h1        1 I3P      0.041700
     26 H2          2.4100   -0.9020    2.0080 h1        1 I3P      0.006700
     27 H3          1.1230   -1.8640    0.0910 h1        1 I3P      0.005700
     28 H4          1.2290    1.0670   -0.9680 h1        1 I3P      0.033700
     29 H5         -0.8760   -1.2210   -0.4640 h1        1 I3P      0.021700
     30 H6         -0.3370    1.5850    0.8180 h1        1 I3P     -0.000300
     31 HO2         1.9030    1.6310    1.8000 ho        1 I3P      0.406000
     32 HO3         3.1630   -0.8740   -1.3040 ho        1 I3P      0.469000
     33 HO6        -2.5450    0.4380    0.7660 ho        1 I3P      0.447000
@<TRIPOS>BOND
     1    1    2 1   
     2    1    6 1   
     3    1    7 1   
     4    1   25 1   
     5    2    3 1   
     6    2    8 1   
     7    2   26 1   
     8    3    4 1   
     9    3    9 1   
    10    3   27 1   
    11    4    5 1   
    12    4   10 1   
    13    4   28 1   
    14    5    6 1   
    15    5   11 1   
    16    5   29 1   
    17    6   12 1   
    18    6   30 1   
    19    7   13 1   
    20    8   31 1   
    21    9   32 1   
    22   10   17 1   
    23   11   21 1   
    24   12   33 1   
    25   13   14 1   
    26   13   15 1   
    27   13   16 1   
    28   17   18 1   
    29   17   19 1   
    30   17   20 1   
    31   21   22 1   
    32   21   23 1   
    33   21   24 1   
@<TRIPOS>SUBSTRUCTURE
     1 I3P         1 TEMP              0 ****  ****    0 ROOT
