@<TRIPOS>MOLECULE
I3P
   33    33     1     0     0
SMALL
bcc


@<TRIPOS>ATOM
      1 C1         -0.1350    0.1910    0.0940 c3        1 I3P      0.201100
      2 C2          1.4160    0.1370    0.1240 c3        1 I3P      0.109100
      3 C3          1.9450   -0.0310    1.5580 c3        1 I3P      0.110100
      4 C4          1.5170   -1.3980    2.1920 c3        1 I3P      0.211100
      5 C5         -0.0360   -1.1910    2.4170 c3        1 I3P      0.198100
      6 C6         -0.6730   -0.9840    0.9760 c3        1 I3P      0.102100
      7 O1         -0.5620    0.0610   -1.2270 os        1 I3P     -0.603200
      8 O2          1.9290   -0.8860   -0.7220 oh        1 I3P     -0.634800
      9 O3          3.3340    0.2480    1.5500 oh        1 I3P     -0.703800
     10 O4          2.2680   -1.6540    3.3270 os        1 I3P     -0.584200
     11 O5         -0.6750   -2.2530    3.0340 os        1 I3P     -0.585200
     12 O6         -2.0740   -0.7810    1.0640 oh        1 I3P     -0.660800
     13 P1         -1.0350    1.3910   -2.2000 p5        1 I3P      1.351900
     14 O11        -0.9580    2.6490   -1.3650 o         1 I3P     -0.965833
     15 O12        -0.0290    1.3700   -3.3380 o         1 I3P     -0.965833
     16 O13        -2.4250    1.0800   -2.7190 o         1 I3P     -0.965833
     17 P4          3.5860   -2.7510    3.3600 p5        1 I3P      1.353900
     18 O41         4.7300   -1.8910    2.8350 o         1 I3P     -0.957833
     19 O42         3.8220   -3.0980    4.8160 o         1 I3P     -0.957833
     20 O43         3.3230   -3.9480    2.4790 o         1 I3P     -0.957833
     21 P5         -1.8000   -2.0510    4.3170 p5        1 I3P      1.348900
     22 O51        -3.1120   -1.9770    3.5520 o         1 I3P     -0.958167
     23 O52        -1.7500   -3.3060    5.1640 o         1 I3P     -0.958167
     24 O53        -1.5050   -0.7800    5.0770 o         1 I3P     -0.958167
     25 H1         -0.4850    1.1770    0.5050 h1        1 I3P      0.041700
     26 H2          1.8280    1.1060   -0.2850 h1        1 I3P      0.006700
     27 H3          1.4840    0.7990    2.1740 h1        1 I3P      0.005700
     28 H4          1.6810   -2.2260    1.4470 h1        1 I3P      0.033700
     29 H5         -0.2040   -0.2630    3.0330 h1        1 I3P      0.021700
     30 H6         -0.4950   -1.9390    0.4040 h1        1 I3P     -0.000300
     31 HO2         1.1760   -1.2180   -1.2300 ho        1 I3P      0.406000
     32 HO3         3.7880   -0.5190    1.9630 ho        1 I3P      0.469000
     33 HO6        -2.3810   -1.2440    1.8720 ho        1 I3P      0.447000
@<TRIPOS>BOND
     1    1    2 1   
     2    1    6 1   
     3    1    7 1   
     4    1   25 1   
     5    2    3 1   
     6    2    8 1   
     7    2   26 1   
     8    3    4 1   
     9    3    9 1   
    10    3   27 1   
    11    4    5 1   
    12    4   10 1   
    13    4   28 1   
    14    5    6 1   
    15    5   11 1   
    16    5   29 1   
    17    6   12 1   
    18    6   30 1   
    19    7   13 1   
    20    8   31 1   
    21    9   32 1   
    22   10   17 1   
    23   11   21 1   
    24   12   33 1   
    25   13   14 1   
    26   13   15 1   
    27   13   16 1   
    28   17   18 1   
    29   17   19 1   
    30   17   20 1   
    31   21   22 1   
    32   21   23 1   
    33   21   24 1   
@<TRIPOS>SUBSTRUCTURE
     1 I3P         1 TEMP              0 ****  ****    0 ROOT
