@<TRIPOS>MOLECULE
I3P
   33    33     1     0     0
SMALL
bcc


@<TRIPOS>ATOM
      1 C1         -0.1400    0.1950    0.1000 c3        1 I3P      0.201100
      2 C2          1.4100    0.1260    0.1130 c3        1 I3P      0.109100
      3 C3          1.9540   -0.0440    1.5400 c3        1 I3P      0.110100
      4 C4          1.5200   -1.4060    2.1830 c3        1 I3P      0.211100
      5 C5         -0.0290   -1.1830    2.4240 c3        1 I3P      0.198100
      6 C6         -0.6800   -0.9730    0.9910 c3        1 I3P      0.102100
      7 O1         -0.5830    0.0670   -1.2160 os        1 I3P     -0.603200
      8 O2          1.9040   -0.9040   -0.7370 oh        1 I3P     -0.634800
      9 O3          3.3450    0.2210    1.5170 oh        1 I3P     -0.703800
     10 O4          2.2810   -1.6670    3.3100 os        1 I3P     -0.584200
     11 O5         -0.6700   -2.2380    3.0510 os        1 I3P     -0.585200
     12 O6         -2.0780   -0.7560    1.0940 oh        1 I3P     -0.660800
     13 P1         -1.0540    1.3990   -2.1870 p5        1 I3P      1.351900
     14 O11        -0.9560    2.6580   -1.3560 o         1 I3P     -0.965833
     15 O12        -0.0610    1.3650   -3.3360 o         1 I3P     -0.965833
     16 O13        -2.4530    1.1010   -2.6890 o         1 I3P     -0.965833
     17 P4          3.5890   -2.7770    3.3290 p5        1 I3P      1.353900
     18 O41         4.7350   -1.9290    2.7900 o         1 I3P     -0.957833
     19 O42         3.8380   -3.1230    4.7830 o         1 I3P     -0.957833
     20 O43         3.3040   -3.9730    2.4550 o         1 I3P     -0.957833
     21 P5         -1.7790   -2.0220    4.3460 p5        1 I3P      1.348900
     22 O51        -3.0990   -1.9360    3.5960 o         1 I3P     -0.958167
     23 O52        -1.7320   -3.2760    5.1950 o         1 I3P     -0.958167
     24 O53        -1.4630   -0.7520    5.1010 o         1 I3P     -0.958167
     25 H1         -0.4760    1.1850    0.5130 h1        1 I3P      0.041700
     26 H2          1.8270    1.0890   -0.3030 h1        1 I3P      0.006700
     27 H3          1.5080    0.7910    2.1600 h1        1 I3P      0.005700
     28 H4          1.6670   -2.2370    1.4380 h1        1 I3P      0.033700
     29 H5         -0.1800   -0.2520    3.0400 h1        1 I3P      0.021700
     30 H6         -0.5180   -1.9310    0.4180 h1        1 I3P     -0.000300
     31 HO2         1.1420   -1.2300   -1.2350 ho        1 I3P      0.406000
     32 HO3         3.7960   -0.5500    1.9260 ho        1 I3P      0.469000
     33 HO6        -2.3800   -1.2140    1.9070 ho        1 I3P      0.447000
@<TRIPOS>BOND
     1    1    2 1   
     2    1    6 1   
     3    1    7 1   
     4    1   25 1   
     5    2    3 1   
     6    2    8 1   
     7    2   26 1   
     8    3    4 1   
     9    3    9 1   
    10    3   27 1   
    11    4    5 1   
    12    4   10 1   
    13    4   28 1   
    14    5    6 1   
    15    5   11 1   
    16    5   29 1   
    17    6   12 1   
    18    6   30 1   
    19    7   13 1   
    20    8   31 1   
    21    9   32 1   
    22   10   17 1   
    23   11   21 1   
    24   12   33 1   
    25   13   14 1   
    26   13   15 1   
    27   13   16 1   
    28   17   18 1   
    29   17   19 1   
    30   17   20 1   
    31   21   22 1   
    32   21   23 1   
    33   21   24 1   
@<TRIPOS>SUBSTRUCTURE
     1 I3P         1 TEMP              0 ****  ****    0 ROOT
