@<TRIPOS>MOLECULE
I3S
   33    33     1     0     0
SMALL
bcc


@<TRIPOS>ATOM
      1 O11        -0.0590    0.2510   -0.0840 o         1 I3S     -0.962167
      2 P3          1.3130   -0.0150    0.5050 p5        1 I3S      1.347900
      3 O12         1.1800   -0.8450    1.7680 o         1 I3S     -0.962167
      4 O10         2.1450    1.2340    0.6880 o         1 I3S     -0.962167
      5 O3          2.1380   -1.0620   -0.5900 os        1 I3S     -0.585200
      6 C3          3.4970   -0.9530   -0.8350 c3        1 I3S      0.192100
      7 C2          4.2360   -2.0590    0.0300 c3        1 I3S      0.093100
      8 O2          3.7000   -3.3410   -0.3000 oh        1 I3S     -0.638800
      9 C1          5.7870   -2.1140   -0.0830 c3        1 I3S      0.208100
     10 O1          6.3270   -3.2000    0.5980 os        1 I3S     -0.599200
     11 P1          7.7190   -3.1330    1.5720 p5        1 I3S      1.345900
     12 OP2         7.7380   -1.8380    2.3480 o         1 I3S     -0.961167
     13 OP3         7.6290   -4.3640    2.4550 o         1 I3S     -0.961167
     14 OP1         8.8590   -3.2390    0.5730 o         1 I3S     -0.961167
     15 C6          6.1410   -2.1780   -1.5910 c3        1 I3S      0.113100
     16 O6          7.5450   -2.1000   -1.8150 oh        1 I3S     -0.678800
     17 C5          5.4590   -1.0210   -2.3460 c3        1 I3S      0.117100
     18 O5          6.0490   -0.9220   -3.6310 oh        1 I3S     -0.684800
     19 C4          3.8970   -1.2060   -2.3450 c3        1 I3S      0.198100
     20 O4          3.3240   -0.3560   -3.2770 os        1 I3S     -0.585200
     21 P4          2.7520   -0.8920   -4.8040 p5        1 I3S      1.350900
     22 OP5         1.7050    0.0990   -5.2650 o         1 I3S     -0.957833
     23 OP6         4.0070   -0.7650   -5.6600 o         1 I3S     -0.957833
     24 OP4         2.2680   -2.3190   -4.7230 o         1 I3S     -0.957833
     25 H3          3.8540    0.0630   -0.5120 h1        1 I3S      0.035700
     26 H2          3.9980   -1.8740    1.1150 h1        1 I3S      0.033700
     27 HO2         2.8000   -3.1660   -0.6110 ho        1 I3S      0.405000
     28 H1          6.2040   -1.1630    0.3580 h1        1 I3S      0.019700
     29 H6          5.7810   -3.1610   -2.0040 h1        1 I3S      0.022700
     30 HO6         7.9660   -2.5110   -1.0320 ho        1 I3S      0.442000
     31 H5          5.7030   -0.0530   -1.8200 h1        1 I3S      0.003700
     32 HO5         5.3170   -0.8380   -4.2790 ho        1 I3S      0.457000
     33 H4          3.6430   -2.2690   -2.6160 h1        1 I3S      0.029700
@<TRIPOS>BOND
     1    1    2 1   
     2    2    3 1   
     3    2    4 1   
     4    2    5 1   
     5    5    6 1   
     6    6    7 1   
     7    6   19 1   
     8    6   25 1   
     9    7    8 1   
    10    7    9 1   
    11    7   26 1   
    12    8   27 1   
    13    9   10 1   
    14    9   15 1   
    15    9   28 1   
    16   10   11 1   
    17   11   12 1   
    18   11   13 1   
    19   11   14 1   
    20   15   16 1   
    21   15   17 1   
    22   15   29 1   
    23   16   30 1   
    24   17   18 1   
    25   17   19 1   
    26   17   31 1   
    27   18   32 1   
    28   19   20 1   
    29   19   33 1   
    30   20   21 1   
    31   21   22 1   
    32   21   23 1   
    33   21   24 1   
@<TRIPOS>SUBSTRUCTURE
     1 I3S         1 TEMP              0 ****  ****    0 ROOT
