@<TRIPOS>MOLECULE
I3S
   33    33     1     0     0
SMALL
bcc


@<TRIPOS>ATOM
      1 O11         3.1950   -3.4490   -0.5060 o         1 I3S     -0.964167
      2 P3          1.7490   -3.0620   -0.7590 p5        1 I3S      1.345900
      3 O12         0.8240   -4.1410   -0.2290 o         1 I3S     -0.964167
      4 O10         1.4670   -2.7000   -2.2010 o         1 I3S     -0.964167
      5 O3          1.4340   -1.6760    0.2140 os        1 I3S     -0.563200
      6 C3          0.6030   -0.6630   -0.2120 c3        1 I3S      0.243100
      7 C2         -0.8360   -0.8040    0.4370 c3        1 I3S      0.085100
      8 O2         -0.7000   -0.6850    1.8500 oh        1 I3S     -0.617800
      9 C1         -1.9590    0.1820   -0.0510 c3        1 I3S      0.206100
     10 O1         -3.0390    0.1020    0.8250 os        1 I3S     -0.613200
     11 P1         -4.6880   -0.0110    0.3770 p5        1 I3S      1.358900
     12 OP2        -5.1910   -1.1870    1.1930 o         1 I3S     -0.965167
     13 OP3        -5.3370    1.2760    0.8540 o         1 I3S     -0.965167
     14 OP1        -4.7850   -0.2260   -1.1150 o         1 I3S     -0.965167
     15 C6         -1.3490    1.6030   -0.0240 c3        1 I3S      0.108100
     16 O6         -2.2240    2.4990   -0.7150 oh        1 I3S     -0.618800
     17 C5          0.0430    1.6650   -0.6830 c3        1 I3S      0.080100
     18 O5          0.3520    3.0440   -0.8360 oh        1 I3S     -0.730800
     19 C4          1.0940    0.8090    0.1080 c3        1 I3S      0.208100
     20 O4          2.3750    1.1510   -0.2920 os        1 I3S     -0.584200
     21 P4          3.4080    2.1690    0.6210 p5        1 I3S      1.353900
     22 OP5         4.8180    1.9210    0.1290 o         1 I3S     -0.957167
     23 OP6         2.9320    3.5530    0.1840 o         1 I3S     -0.957167
     24 OP4         3.2270    1.9640    2.1040 o         1 I3S     -0.957167
     25 H3          0.4600   -0.7650   -1.3290 h1        1 I3S      0.023700
     26 H2         -1.2110   -1.8430    0.2150 h1        1 I3S      0.030700
     27 HO2        -1.6000   -0.5900    2.1920 ho        1 I3S      0.384000
     28 H1         -2.2920   -0.0770   -1.0910 h1        1 I3S      0.040700
     29 H6         -1.2730    1.9380    1.0480 h1        1 I3S      0.022700
     30 HO6        -1.7480    3.3360   -0.7660 ho        1 I3S      0.361000
     31 H5         -0.0350    1.2590   -1.7320 h1        1 I3S      0.016700
     32 HO5         1.2680    3.1790   -0.5000 ho        1 I3S      0.478000
     33 H4          0.9920    0.9960    1.2130 h1        1 I3S      0.038700
@<TRIPOS>BOND
     1    1    2 1   
     2    2    3 1   
     3    2    4 1   
     4    2    5 1   
     5    5    6 1   
     6    6    7 1   
     7    6   19 1   
     8    6   25 1   
     9    7    8 1   
    10    7    9 1   
    11    7   26 1   
    12    8   27 1   
    13    9   10 1   
    14    9   15 1   
    15    9   28 1   
    16   10   11 1   
    17   11   12 1   
    18   11   13 1   
    19   11   14 1   
    20   15   16 1   
    21   15   17 1   
    22   15   29 1   
    23   16   30 1   
    24   17   18 1   
    25   17   19 1   
    26   17   31 1   
    27   18   32 1   
    28   19   20 1   
    29   19   33 1   
    30   20   21 1   
    31   21   22 1   
    32   21   23 1   
    33   21   24 1   
@<TRIPOS>SUBSTRUCTURE
     1 I3S         1 TEMP              0 ****  ****    0 ROOT
