@<TRIPOS>MOLECULE
I3S
   33    33     1     0     0
SMALL
bcc


@<TRIPOS>ATOM
      1 O11        -0.0500    0.2690   -0.0740 o         1 I3S     -0.962167
      2 P3          1.3230    0.0040    0.5100 p5        1 I3S      1.347900
      3 O12         1.1940   -0.8180    1.7790 o         1 I3S     -0.962167
      4 O10         2.1590    1.2510    0.6820 o         1 I3S     -0.962167
      5 O3          2.1410   -1.0520   -0.5820 os        1 I3S     -0.585200
      6 C3          3.4990   -0.9480   -0.8340 c3        1 I3S      0.192100
      7 C2          4.2390   -2.0510    0.0340 c3        1 I3S      0.093100
      8 O2          3.6990   -3.3330   -0.2860 oh        1 I3S     -0.638800
      9 C1          5.7890   -2.1100   -0.0860 c3        1 I3S      0.208100
     10 O1          6.3290   -3.1940    0.5990 os        1 I3S     -0.599200
     11 P1          7.7260   -3.1240    1.5680 p5        1 I3S      1.345900
     12 OP2         7.7520   -1.8260    2.3360 o         1 I3S     -0.961167
     13 OP3         7.6370   -4.3510    2.4580 o         1 I3S     -0.961167
     14 OP1         8.8620   -3.2400    0.5640 o         1 I3S     -0.961167
     15 C6          6.1370   -2.1840   -1.5950 c3        1 I3S      0.113100
     16 O6          7.5400   -2.1110   -1.8250 oh        1 I3S     -0.678800
     17 C5          5.4540   -1.0290   -2.3530 c3        1 I3S      0.117100
     18 O5          6.0390   -0.9400   -3.6410 oh        1 I3S     -0.684800
     19 C4          3.8930   -1.2110   -2.3440 c3        1 I3S      0.198100
     20 O4          3.3170   -0.3650   -3.2790 os        1 I3S     -0.585200
     21 P4          2.7370   -0.9080   -4.8000 p5        1 I3S      1.350900
     22 OP5         1.6900    0.0830   -5.2630 o         1 I3S     -0.957833
     23 OP6         3.9890   -0.7890   -5.6620 o         1 I3S     -0.957833
     24 OP4         2.2500   -2.3340   -4.7080 o         1 I3S     -0.957833
     25 H3          3.8610    0.0690   -0.5190 h1        1 I3S      0.035700
     26 H2          4.0060   -1.8590    1.1190 h1        1 I3S      0.033700
     27 HO2         2.7980   -3.1570   -0.5940 ho        1 I3S      0.405000
     28 H1          6.2110   -1.1580    0.3490 h1        1 I3S      0.019700
     29 H6          5.7730   -3.1680   -2.0000 h1        1 I3S      0.022700
     30 HO6         7.9640   -2.5190   -1.0410 ho        1 I3S      0.442000
     31 H5          5.7030   -0.0590   -1.8340 h1        1 I3S      0.003700
     32 HO5         5.3040   -0.8580   -4.2870 ho        1 I3S      0.457000
     33 H4          3.6340   -2.2750   -2.6080 h1        1 I3S      0.029700
@<TRIPOS>BOND
     1    1    2 1   
     2    2    3 1   
     3    2    4 1   
     4    2    5 1   
     5    5    6 1   
     6    6    7 1   
     7    6   19 1   
     8    6   25 1   
     9    7    8 1   
    10    7    9 1   
    11    7   26 1   
    12    8   27 1   
    13    9   10 1   
    14    9   15 1   
    15    9   28 1   
    16   10   11 1   
    17   11   12 1   
    18   11   13 1   
    19   11   14 1   
    20   15   16 1   
    21   15   17 1   
    22   15   29 1   
    23   16   30 1   
    24   17   18 1   
    25   17   19 1   
    26   17   31 1   
    27   18   32 1   
    28   19   20 1   
    29   19   33 1   
    30   20   21 1   
    31   21   22 1   
    32   21   23 1   
    33   21   24 1   
@<TRIPOS>SUBSTRUCTURE
     1 I3S         1 TEMP              0 ****  ****    0 ROOT
