@<TRIPOS>MOLECULE
I40
   43    46     1     0     0
SMALL
bcc


@<TRIPOS>ATOM
      1 C1         -0.0190   -0.0460   -0.0340 c3        1 I40     -0.140700
      2 C2          1.4910   -0.0970   -0.0250 c3        1 I40     -0.086400
      3 C3          2.0070   -0.0940    1.3940 c3        1 I40     -0.077400
      4 C4          1.6400    1.1960    2.0980 c3        1 I40     -0.057100
      5 C5         -0.3270    2.6680    2.6220 ca        1 I40     -0.028400
      6 C6         -2.3260    4.1230    3.1360 ca        1 I40     -0.169000
      7 C7         -3.6130    4.4990    2.8300 ca        1 I40     -0.069000
      8 C8         -4.3090    3.8800    1.7660 ca        1 I40     -0.111000
      9 C9         -3.7140    2.8930    1.0240 ca        1 I40     -0.135300
     10 N1         -1.8080    1.4800    0.5550 nb        1 I40     -0.612000
     11 C10        -0.5700    1.0740    0.8100 ca        1 I40      0.449600
     12 C11         0.2410    1.6470    1.8640 ca        1 I40     -0.120600
     13 C12        -1.6700    3.1130    2.3880 ca        1 I40     -0.134300
     14 C13        -2.3720    2.4760    1.3160 ca        1 I40      0.412600
     15 N2          0.4550    3.3290    3.6710 n4        1 I40     -0.636400
     16 I1          5.2270    2.7980    7.1780 i         1 I40     -0.080900
     17 C14         0.2140    2.7220    5.0290 c3        1 I40      0.174100
     18 C15         1.1250    3.3210    6.0430 ca        1 I40     -0.193300
     19 C16         2.4560    2.8910    6.1160 ca        1 I40     -0.081000
     20 C17         3.3100    3.4180    7.0830 ca        1 I40      0.019900
     21 C18         2.8290    4.3710    7.9860 ca        1 I40     -0.048000
     22 C19         1.5000    4.7950    7.9190 ca        1 I40     -0.121000
     23 C20         0.6460    4.2750    6.9480 ca        1 I40     -0.080000
     24 H12        -0.4350   -1.0110    0.3690 hc        1 I40      0.088200
     25 H11        -0.3830    0.0540   -1.0930 hc        1 I40      0.088200
     26 H22         1.8280   -1.0290   -0.5510 hc        1 I40      0.066700
     27 H21         1.9120    0.7760   -0.5890 hc        1 I40      0.066700
     28 H32         1.5780   -0.9680    1.9530 hc        1 I40      0.065700
     29 H31         3.1230   -0.2080    1.3990 hc        1 I40      0.065700
     30 H42         2.3330    2.0090    1.7370 hc        1 I40      0.053700
     31 H41         1.8230    1.0500    3.1980 hc        1 I40      0.053700
     32 H6         -1.8250    4.6200    3.9800 ha        1 I40      0.117000
     33 H7         -4.1180    5.2860    3.4140 ha        1 I40      0.158000
     34 H8         -5.3400    4.2030    1.5410 ha        1 I40      0.166000
     35 H9         -4.2530    2.4030    0.1940 ha        1 I40      0.178000
     36 H2N1        0.2040    4.3260    3.6960 hn        1 I40      0.455300
     37 H142       -0.8700    2.8940    5.2890 hx        1 I40      0.114200
     38 H141        0.3880    1.6100    4.9370 hx        1 I40      0.114200
     39 H16         2.8180    2.1200    5.4160 ha        1 I40      0.142000
     40 H18         3.4930    4.7910    8.7610 ha        1 I40      0.171000
     41 H19         1.1250    5.5400    8.6390 ha        1 I40      0.165000
     42 H20        -0.4040    4.6040    6.9080 ha        1 I40      0.145000
     43 H221        1.4580    3.2630    3.4500 hn        1 I40      0.455300
@<TRIPOS>BOND
     1    1    2 1   
     2    1   11 1   
     3    1   24 1   
     4    1   25 1   
     5    2    3 1   
     6    2   26 1   
     7    2   27 1   
     8    3    4 1   
     9    3   28 1   
    10    3   29 1   
    11    4   12 1   
    12    4   30 1   
    13    4   31 1   
    14    5   12 ar  
    15    5   13 ar  
    16    5   15 1   
    17    6    7 ar  
    18    6   13 ar  
    19    6   32 1   
    20    7    8 ar  
    21    7   33 1   
    22    8    9 ar  
    23    8   34 1   
    24    9   14 ar  
    25    9   35 1   
    26   10   11 ar  
    27   10   14 ar  
    28   11   12 ar  
    29   13   14 ar  
    30   15   17 1   
    31   15   36 1   
    32   15   43 1   
    33   16   20 1   
    34   17   18 1   
    35   17   37 1   
    36   17   38 1   
    37   18   19 ar  
    38   18   23 ar  
    39   19   20 ar  
    40   19   39 1   
    41   20   21 ar  
    42   21   22 ar  
    43   21   40 1   
    44   22   23 ar  
    45   22   41 1   
    46   23   42 1   
@<TRIPOS>SUBSTRUCTURE
     1 I40         1 TEMP              0 ****  ****    0 ROOT
