@<TRIPOS>MOLECULE
I40
   42    39     1     0     0
SMALL
bcc


@<TRIPOS>ATOM
      1 C1         -0.3860   -2.8450   -3.2770 c3        1 I40     -0.116000
      2 C2          0.9930   -2.8920   -3.3270 c3        1 I40     -0.156000
      3 C3          1.6950   -2.7630   -2.0810 c3        1 I40     -0.156000
      4 C4          1.3660   -1.6220   -1.2640 c3        1 I40     -0.116000
      5 C5         -0.6180   -0.2560   -0.3730 c1        1 I40      0.069000
      6 C6         -2.5150    1.0220    0.5490 c1        1 I40     -0.100000
      7 C7         -3.8540    1.3500    0.5220 c1        1 I40     -0.129500
      8 C8         -4.7460    0.6750   -0.4000 c1        1 I40     -0.129500
      9 C9         -4.2480   -0.3150   -1.2670 c1        1 I40     -0.107000
     10 N1         -2.3670   -1.5800   -2.1800 n1        1 I40     -0.154000
     11 C10        -1.0270   -1.8410   -2.2200 c1        1 I40     -0.065000
     12 C11        -0.1150   -1.1590   -1.2870 c1        1 I40     -0.065000
     13 C12        -2.0040    0.0120   -0.3350 c1        1 I40     -0.079000
     14 C13        -2.8820   -0.6510   -1.2400 c1        1 I40      0.016000
     15 N2          0.4450    0.1540    0.4520 n3        1 I40     -0.278000
     16 I1          0.8370    4.3830    5.4240 i         1 I40      0.145000
     17 C14         0.7710    1.5870    0.5810 c3        1 I40     -0.026000
     18 C15         1.5050    1.8270    1.9230 c2        1 I40     -0.094000
     19 C16         0.9500    2.6880    2.8720 c2        1 I40     -0.074000
     20 C17         1.6710    3.0270    4.0170 c2        1 I40     -0.267000
     21 C18         2.9340    2.5150    4.2150 c2        1 I40     -0.092000
     22 C19         3.4860    1.6650    3.2820 c1        1 I40     -0.135000
     23 C20         2.7470    1.3190    2.1130 c1        1 I40     -0.107000
     24 H12        -0.7120   -2.5990   -4.1660 hc        1 I40      0.095000
     25 H11        -0.7280   -3.7940   -3.0620 hc        1 I40      0.095000
     26 H22         1.2580   -3.7690   -3.7480 hc        1 I40      0.085250
     27 H21         1.3010   -2.1520   -3.9310 hc        1 I40      0.085250
     28 H32         2.6190   -2.7320   -2.2680 hc        1 I40      0.085250
     29 H31         1.5080   -3.6160   -1.5230 hc        1 I40      0.085250
     30 H42         1.9400   -0.8460   -1.5670 hc        1 I40      0.095000
     31 H41         1.5940   -1.8240   -0.3780 hc        1 I40      0.095000
     32 H6         -1.9210    1.4720    1.1630 ha        1 I40      0.143000
     33 H7         -4.2220    2.0820    1.1620 ha        1 I40      0.134500
     34 H8         -5.7520    0.9210   -0.4200 ha        1 I40      0.134500
     35 H9         -4.8380   -0.7610   -1.8740 ha        1 I40      0.150000
     36 H2N1        0.9300   -0.4750    0.9280 hn        1 I40      0.181000
     37 H142       -0.0930    2.1380    0.5600 h1        1 I40      0.089000
     38 H141        1.3790    1.8730   -0.1970 h1        1 I40      0.089000
     39 H16         0.1010    3.0410    2.7390 ha        1 I40      0.157000
     40 H18         3.4480    2.7590    5.0360 ha        1 I40      0.145000
     41 H19         4.4070    1.2900    3.4250 ha        1 I40      0.138000
     42 H20         3.1480    0.6930    1.4230 ha        1 I40      0.136000
@<TRIPOS>BOND
     1    1    2 1   
     2    1   11 1   
     3    1   24 1   
     4    1   25 1   
     5    2    3 1   
     6    2   26 1   
     7    2   27 1   
     8    3    4 1   
     9    3   28 1   
    10    3   29 1   
    11    4   12 1   
    12    4   30 1   
    13    4   31 1   
    14    5   13 1   
    15    5   15 1   
    16    6   13 1   
    17    6   32 1   
    18    7    8 1   
    19    7   33 1   
    20    8   34 1   
    21    9   14 1   
    22    9   35 1   
    23   10   14 1   
    24   11   12 1   
    25   15   17 1   
    26   15   36 1   
    27   16   20 1   
    28   17   18 1   
    29   17   37 1   
    30   17   38 1   
    31   18   19 1   
    32   18   23 1   
    33   19   20 1   
    34   19   39 1   
    35   20   21 1   
    36   21   22 1   
    37   21   40 1   
    38   22   41 1   
    39   23   42 1   
@<TRIPOS>SUBSTRUCTURE
     1 I40         1 TEMP              0 ****  ****    0 ROOT
