@<TRIPOS>MOLECULE
I40
   42    45     1     0     0
SMALL
bcc


@<TRIPOS>ATOM
      1 C1          3.2350   -0.4070   -4.4790 c3        1 I40     -0.133700
      2 C2          4.1490    0.1360   -3.4050 c3        1 I40     -0.080400
      3 C3          3.7230   -0.3810   -2.0520 c3        1 I40     -0.080400
      4 C4          2.3320    0.1000   -1.7000 c3        1 I40     -0.025100
      5 C5         -0.0040    0.2690   -2.5750 ca        1 I40      0.116600
      6 C6         -2.3260    0.4430   -3.5310 ca        1 I40     -0.123000
      7 C7         -3.1600    0.4450   -4.6230 ca        1 I40     -0.126000
      8 C8         -2.6360    0.2660   -5.9240 ca        1 I40     -0.127000
      9 C9         -1.2910    0.0800   -6.1140 ca        1 I40     -0.162300
     10 N1          0.9480   -0.1340   -5.2190 nb        1 I40     -0.673000
     11 C10         1.7790   -0.1470   -4.1820 ca        1 I40      0.443600
     12 C11         1.3530    0.0550   -2.8200 ca        1 I40     -0.163600
     13 C12        -0.9250    0.2640   -3.6840 ca        1 I40     -0.168300
     14 C13        -0.3940    0.0680   -4.9930 ca        1 I40      0.405600
     15 N2         -0.4510    0.5540   -1.2500 nh        1 I40     -0.713600
     16 I1         -0.2020    2.0110    4.2560 i         1 I40     -0.141900
     17 C14        -0.8790   -0.6220   -0.5040 c3        1 I40      0.210100
     18 C15        -1.4380   -0.2840    0.8470 ca        1 I40     -0.102300
     19 C16        -0.7240    0.5400    1.7240 ca        1 I40     -0.075000
     20 C17        -1.2340    0.8190    2.9920 ca        1 I40      0.018900
     21 C18        -2.4560    0.2740    3.3900 ca        1 I40     -0.093000
     22 C19        -3.1670   -0.5490    2.5160 ca        1 I40     -0.136000
     23 C20        -2.6630   -0.8270    1.2470 ca        1 I40     -0.108000
     24 H12         3.3710   -1.5200   -4.5640 hc        1 I40      0.065200
     25 H11         3.5180    0.0400   -5.4700 hc        1 I40      0.065200
     26 H22         5.2020   -0.1790   -3.6240 hc        1 I40      0.047700
     27 H21         4.1240    1.2570   -3.4100 hc        1 I40      0.047700
     28 H32         3.7490   -1.5030   -2.0550 hc        1 I40      0.044200
     29 H31         4.4420   -0.0330   -1.2640 hc        1 I40      0.044200
     30 H42         2.3880    1.1650   -1.3380 hc        1 I40      0.058700
     31 H41         1.9560   -0.5160   -0.8370 hc        1 I40      0.058700
     32 H6         -2.7590    0.5740   -2.5280 ha        1 I40      0.127000
     33 H7         -4.2440    0.5840   -4.4970 ha        1 I40      0.134000
     34 H8         -3.3240    0.2760   -6.7830 ha        1 I40      0.136000
     35 H9         -0.8780   -0.0630   -7.1250 ha        1 I40      0.151000
     36 H2N1       -1.1780    1.2470   -1.2680 hn        1 I40      0.379800
     37 H142        0.0250   -1.2830   -0.3630 h1        1 I40      0.048200
     38 H141       -1.6450   -1.2220   -1.0810 h1        1 I40      0.048200
     39 H16         0.2410    0.9640    1.4010 ha        1 I40      0.158000
     40 H18        -2.8660    0.4870    4.3890 ha        1 I40      0.145000
     41 H19        -4.1290   -0.9790    2.8310 ha        1 I40      0.138000
     42 H20        -3.2290   -1.4760    0.5620 ha        1 I40      0.136000
@<TRIPOS>BOND
     1    1    2 1   
     2    1   11 1   
     3    1   24 1   
     4    1   25 1   
     5    2    3 1   
     6    2   26 1   
     7    2   27 1   
     8    3    4 1   
     9    3   28 1   
    10    3   29 1   
    11    4   12 1   
    12    4   30 1   
    13    4   31 1   
    14    5   12 ar  
    15    5   13 ar  
    16    5   15 1   
    17    6    7 ar  
    18    6   13 ar  
    19    6   32 1   
    20    7    8 ar  
    21    7   33 1   
    22    8    9 ar  
    23    8   34 1   
    24    9   14 ar  
    25    9   35 1   
    26   10   11 ar  
    27   10   14 ar  
    28   11   12 ar  
    29   13   14 ar  
    30   15   17 1   
    31   15   36 1   
    32   16   20 1   
    33   17   18 1   
    34   17   37 1   
    35   17   38 1   
    36   18   19 ar  
    37   18   23 ar  
    38   19   20 ar  
    39   19   39 1   
    40   20   21 ar  
    41   21   22 ar  
    42   21   40 1   
    43   22   23 ar  
    44   22   41 1   
    45   23   42 1   
@<TRIPOS>SUBSTRUCTURE
     1 I40         1 TEMP              0 ****  ****    0 ROOT
