@<TRIPOS>MOLECULE
I40
   42    45     1     0     0
SMALL
bcc


@<TRIPOS>ATOM
      1 C1         -0.1470   -0.1440    0.0000 c3        1 I40     -0.133700
      2 C2          1.3560   -0.2910    0.0120 c3        1 I40     -0.080400
      3 C3          1.8630   -0.3280    1.4340 c3        1 I40     -0.080400
      4 C4          1.5630    0.9700    2.1520 c3        1 I40     -0.025100
      5 C5         -0.2660    2.6010    2.6500 ca        1 I40      0.116600
      6 C6         -2.1430    4.2220    3.0820 ca        1 I40     -0.123000
      7 C7         -3.3770    4.7210    2.7440 ca        1 I40     -0.126000
      8 C8         -4.0960    4.1760    1.6560 ca        1 I40     -0.127000
      9 C9         -3.5770    3.1370    0.9280 ca        1 I40     -0.162300
     10 N1         -1.8080    1.5380    0.5160 nb        1 I40     -0.673000
     11 C10        -0.6180    1.0290    0.8220 ca        1 I40      0.443600
     12 C11         0.2090    1.5300    1.8910 ca        1 I40     -0.163600
     13 C12        -1.5640    3.1530    2.3480 ca        1 I40     -0.168300
     14 C13        -2.2920    2.5900    1.2590 ca        1 I40      0.405600
     15 N2          0.5600    3.1750    3.6620 nu        1 I40     -0.713600
     16 I1          5.2650    4.3620    6.6530 i         1 I40     -0.141900
     17 C14         0.3430    2.6170    4.9900 c3        1 I40      0.210100
     18 C15         1.1500    3.3050    6.0510 ca        1 I40     -0.102300
     19 C16         2.5280    3.4890    5.8870 ca        1 I40     -0.075000
     20 C17         3.2760    4.0960    6.8950 ca        1 I40      0.018900
     21 C18         2.6550    4.5190    8.0700 ca        1 I40     -0.093000
     22 C19         1.2820    4.3350    8.2350 ca        1 I40     -0.136000
     23 C20         0.5290    3.7320    7.2290 ca        1 I40     -0.108000
     24 H12        -0.5040   -0.0470   -1.0610 hc        1 I40      0.065200
     25 H11        -0.6210   -1.0710    0.4270 hc        1 I40      0.065200
     26 H22         1.8300    0.5630   -0.5390 hc        1 I40      0.047700
     27 H21         1.6390   -1.2350   -0.5220 hc        1 I40      0.047700
     28 H32         1.3830   -1.1840    1.9780 hc        1 I40      0.044200
     29 H31         2.9700   -0.5050    1.4430 hc        1 I40      0.044200
     30 H42         1.7020    0.8010    3.2550 hc        1 I40      0.058700
     31 H41         2.3170    1.7470    1.8440 hc        1 I40      0.058700
     32 H6         -1.6070    4.6560    3.9390 ha        1 I40      0.127000
     33 H7         -3.8200    5.5500    3.3170 ha        1 I40      0.134000
     34 H8         -5.0800    4.5980    1.4020 ha        1 I40      0.136000
     35 H9         -4.1340    2.7070    0.0810 ha        1 I40      0.151000
     36 H2N1        0.4520    4.1740    3.6750 hn        1 I40      0.379800
     37 H142        0.6470    1.5300    4.9560 h1        1 I40      0.048200
     38 H141       -0.7510    2.6480    5.2800 h1        1 I40      0.048200
     39 H16         3.0100    3.1490    4.9560 ha        1 I40      0.158000
     40 H18         3.2380    4.9990    8.8720 ha        1 I40      0.145000
     41 H19         0.7930    4.6680    9.1620 ha        1 I40      0.138000
     42 H20        -0.5540    3.5900    7.3650 ha        1 I40      0.136000
@<TRIPOS>BOND
     1    1    2 1   
     2    1   11 1   
     3    1   24 1   
     4    1   25 1   
     5    2    3 1   
     6    2   26 1   
     7    2   27 1   
     8    3    4 1   
     9    3   28 1   
    10    3   29 1   
    11    4   12 1   
    12    4   30 1   
    13    4   31 1   
    14    5   12 ar  
    15    5   13 ar  
    16    5   15 1   
    17    6    7 ar  
    18    6   13 ar  
    19    6   32 1   
    20    7    8 ar  
    21    7   33 1   
    22    8    9 ar  
    23    8   34 1   
    24    9   14 ar  
    25    9   35 1   
    26   10   11 ar  
    27   10   14 ar  
    28   11   12 ar  
    29   13   14 ar  
    30   15   17 1   
    31   15   36 1   
    32   16   20 1   
    33   17   18 1   
    34   17   37 1   
    35   17   38 1   
    36   18   19 ar  
    37   18   23 ar  
    38   19   20 ar  
    39   19   39 1   
    40   20   21 ar  
    41   21   22 ar  
    42   21   40 1   
    43   22   23 ar  
    44   22   41 1   
    45   23   42 1   
@<TRIPOS>SUBSTRUCTURE
     1 I40         1 TEMP              0 ****  ****    0 ROOT
