@<TRIPOS>MOLECULE
I40
   42    45     1     0     0
SMALL
bcc


@<TRIPOS>ATOM
      1 C1         -0.1540   -0.1470    0.0040 c3        1 I40     -0.133700
      2 C2          1.3500   -0.2950    0.0130 c3        1 I40     -0.080400
      3 C3          1.8580   -0.3310    1.4350 c3        1 I40     -0.080400
      4 C4          1.5600    0.9690    2.1510 c3        1 I40     -0.025100
      5 C5         -0.2670    2.6010    2.6500 ca        1 I40      0.116600
      6 C6         -2.1430    4.2230    3.0830 ca        1 I40     -0.123000
      7 C7         -3.3770    4.7230    2.7470 ca        1 I40     -0.126000
      8 C8         -4.0980    4.1760    1.6600 ca        1 I40     -0.127000
      9 C9         -3.5810    3.1360    0.9330 ca        1 I40     -0.162300
     10 N1         -1.8120    1.5360    0.5200 nb        1 I40     -0.673000
     11 C10        -0.6230    1.0270    0.8240 ca        1 I40      0.443600
     12 C11         0.2060    1.5290    1.8920 ca        1 I40     -0.163600
     13 C12        -1.5650    3.1520    2.3500 ca        1 I40     -0.168300
     14 C13        -2.2960    2.5890    1.2620 ca        1 I40      0.405600
     15 N2          0.5600    3.1760    3.6600 nh        1 I40     -0.713600
     16 I1          5.2720    4.3590    6.6430 i         1 I40     -0.141900
     17 C14         0.3440    2.6200    4.9890 c3        1 I40      0.210100
     18 C15         1.1550    3.3080    6.0480 ca        1 I40     -0.102300
     19 C16         2.5320    3.4890    5.8820 ca        1 I40     -0.075000
     20 C17         3.2840    4.0970    6.8880 ca        1 I40      0.018900
     21 C18         2.6640    4.5220    8.0630 ca        1 I40     -0.093000
     22 C19         1.2920    4.3400    8.2310 ca        1 I40     -0.136000
     23 C20         0.5360    3.7370    7.2260 ca        1 I40     -0.108000
     24 H12        -0.5110   -0.0510   -1.0570 hc        1 I40      0.065200
     25 H11        -0.6270   -1.0730    0.4330 hc        1 I40      0.065200
     26 H22         1.6320   -1.2400   -0.5200 hc        1 I40      0.047700
     27 H21         1.8240    0.5590   -0.5390 hc        1 I40      0.047700
     28 H32         2.9650   -0.5080    1.4430 hc        1 I40      0.044200
     29 H31         1.3790   -1.1860    1.9810 hc        1 I40      0.044200
     30 H42         1.7010    0.8020    3.2540 hc        1 I40      0.058700
     31 H41         2.3140    1.7450    1.8410 hc        1 I40      0.058700
     32 H6         -1.6060    4.6590    3.9390 ha        1 I40      0.127000
     33 H7         -3.8190    5.5520    3.3190 ha        1 I40      0.134000
     34 H8         -5.0830    4.5970    1.4070 ha        1 I40      0.136000
     35 H9         -4.1400    2.7040    0.0880 ha        1 I40      0.151000
     36 H2N1        0.4530    4.1750    3.6730 hn        1 I40      0.379800
     37 H142        0.6470    1.5320    4.9560 h1        1 I40      0.048200
     38 H141       -0.7480    2.6530    5.2810 h1        1 I40      0.048200
     39 H16         3.0120    3.1480    4.9500 ha        1 I40      0.158000
     40 H18         3.2500    5.0010    8.8640 ha        1 I40      0.145000
     41 H19         0.8050    4.6750    9.1590 ha        1 I40      0.138000
     42 H20        -0.5470    3.5970    7.3650 ha        1 I40      0.136000
@<TRIPOS>BOND
     1    1    2 1   
     2    1   11 1   
     3    1   24 1   
     4    1   25 1   
     5    2    3 1   
     6    2   26 1   
     7    2   27 1   
     8    3    4 1   
     9    3   28 1   
    10    3   29 1   
    11    4   12 1   
    12    4   30 1   
    13    4   31 1   
    14    5   12 ar  
    15    5   13 ar  
    16    5   15 1   
    17    6    7 ar  
    18    6   13 ar  
    19    6   32 1   
    20    7    8 ar  
    21    7   33 1   
    22    8    9 ar  
    23    8   34 1   
    24    9   14 ar  
    25    9   35 1   
    26   10   11 ar  
    27   10   14 ar  
    28   11   12 ar  
    29   13   14 ar  
    30   15   17 1   
    31   15   36 1   
    32   16   20 1   
    33   17   18 1   
    34   17   37 1   
    35   17   38 1   
    36   18   19 ar  
    37   18   23 ar  
    38   19   20 ar  
    39   19   39 1   
    40   20   21 ar  
    41   21   22 ar  
    42   21   40 1   
    43   22   23 ar  
    44   22   41 1   
    45   23   42 1   
@<TRIPOS>SUBSTRUCTURE
     1 I40         1 TEMP              0 ****  ****    0 ROOT
