@<TRIPOS>MOLECULE
I41
   48    43     1     0     0
SMALL
bcc


@<TRIPOS>ATOM
      1 O04        -0.4260    1.5680   -2.8310 o         1 I41     -0.365000
      2 C03         0.7340    1.5620   -2.4360 c1        1 I41      0.285000
      3 O02         1.7800    1.1460   -3.3050 o         1 I41     -0.250000
      4 C01         1.3780    0.9940   -4.6580 c3        1 I41     -0.062000
      5 C05         1.0550    2.0000   -1.0200 c3        1 I41      0.046000
      6 C06         2.1800    3.0090   -1.0470 c3        1 I41     -0.107000
      7 C07         1.6070    4.4090   -0.9190 c2        1 I41     -0.104000
      8 C08         1.0430    5.1410   -1.9320 c1        1 I41     -0.198000
      9 N09         0.7920    6.3700   -1.4640 n2        1 I41     -0.160000
     10 C10         1.1930    6.4150   -0.1650 c1        1 I41     -0.123000
     11 N11         1.6950    5.1980    0.1620 n2        1 I41     -0.179000
     12 N12         1.4560    0.8540   -0.2410 n         1 I41     -0.361000
     13 C13         0.4350   -0.0790    0.2810 c2        1 I41      0.319000
     14 O14        -0.4180   -0.5210   -0.4580 o         1 I41     -0.462000
     15 C15         0.4850   -0.5300    1.7610 c3        1 I41     -0.077000
     16 N16         0.0030   -1.9160    1.8710 n3        1 I41     -0.262000
     17 C17         0.9000   -2.6710    2.7150 c3        1 I41     -0.142000
     18 C18         1.9010   -3.4300    1.8480 c2        1 I41      0.335000
     19 O19         1.8620   -4.6790    1.8030 o         1 I41     -0.572500
     20 O20         2.8590   -2.8050    1.2880 o         1 I41     -0.572500
     21 C21        -1.3410   -1.9200    2.4620 c3        1 I41     -0.021000
     22 C22        -2.2680   -2.8070    1.6200 c2        1 I41     -0.061000
     23 C23        -2.4990   -2.4950    0.2870 c2        1 I41     -0.093000
     24 C24        -3.4740   -3.1910   -0.4370 c1        1 I41     -0.134000
     25 C25        -4.2120   -4.1970    0.1810 c1        1 I41     -0.143500
     26 C26        -3.9800   -4.5110    1.5240 c1        1 I41     -0.143500
     27 C27        -3.0140   -3.8210    2.2410 c1        1 I41     -0.141000
     28 H05         0.2620    2.4080   -0.6160 h1        1 I41      0.140000
     29 H011        2.1720    1.0290   -5.2420 h1        1 I41      0.089333
     30 H012        0.9280    0.1310   -4.7700 h1        1 I41      0.089333
     31 H013        0.7690    1.7100   -4.8970 h1        1 I41      0.089333
     32 H061        2.7970    2.8360   -0.2970 hc        1 I41      0.114000
     33 H062        2.6650    2.9330   -1.8930 hc        1 I41      0.114000
     34 H12         2.3510    0.7010   -0.0730 hn        1 I41      0.307000
     35 H08         0.8290    4.8080   -2.8440 DU        1 I41      0.214667
     36 H11         2.0660    4.9640    0.9780 DU        1 I41      0.214667
     37 H10         1.1300    7.1990    0.4360 DU        1 I41      0.214667
     38 H151       -0.0810    0.0520    2.2950 h1        1 I41      0.118000
     39 H152        1.4050   -0.4780    2.0860 h1        1 I41      0.118000
     40 H171        0.3920   -3.2970    3.2410 h1        1 I41      0.067500
     41 H172        1.3820   -2.0570    3.3120 h1        1 I41      0.067500
     42 H211       -1.6920   -1.0070    2.4810 h1        1 I41      0.070000
     43 H212       -1.2950   -2.2750    3.3850 h1        1 I41      0.070000
     44 H23        -1.9910   -1.8010   -0.1370 ha        1 I41      0.168000
     45 H27        -2.8530   -4.0410    3.1770 ha        1 I41      0.120000
     46 H24        -3.5830   -3.0230   -1.3930 ha        1 I41      0.127000
     47 H25        -4.8870   -4.6790   -0.3190 ha        1 I41      0.115500
     48 H26        -4.4940   -5.2110    1.9540 ha        1 I41      0.115500
@<TRIPOS>BOND
     1    1    2 1   
     2    2    5 1   
     3    3    4 1   
     4    4   29 1   
     5    4   30 1   
     6    4   31 1   
     7    5    6 1   
     8    5   12 1   
     9    5   28 1   
    10    6    7 1   
    11    6   32 1   
    12    6   33 1   
    13    7    8 1   
    14    7   11 1   
    15    8    9 1   
    16    9   10 1   
    17   10   11 1   
    18   12   13 1   
    19   12   34 1   
    20   13   14 1   
    21   13   15 1   
    22   15   16 1   
    23   15   38 1   
    24   15   39 1   
    25   16   17 1   
    26   16   21 1   
    27   17   18 1   
    28   17   40 1   
    29   17   41 1   
    30   18   19 1   
    31   18   20 1   
    32   21   22 1   
    33   21   42 1   
    34   21   43 1   
    35   22   23 1   
    36   22   27 1   
    37   23   24 1   
    38   23   44 1   
    39   24   46 1   
    40   25   26 1   
    41   25   47 1   
    42   26   48 1   
    43   27   45 1   
@<TRIPOS>SUBSTRUCTURE
     1 I41         1 TEMP              0 ****  ****    0 ROOT
