@<TRIPOS>MOLECULE
I41
   50    51     1     0     0
SMALL
bcc


@<TRIPOS>ATOM
      1 O04         0.0920    1.2590    0.7690 o         1 I41     -0.617000
      2 C03         1.1510    0.6540    0.5520 c         1 I41      0.639100
      3 O02         1.5410    0.4370   -0.7250 os        1 I41     -0.410900
      4 C01         0.6890    0.9360   -1.7670 c3        1 I41      0.122700
      5 C05         2.1540    0.1140    1.5780 c3        1 I41      0.062700
      6 C06         2.4610   -1.3600    1.2380 c3        1 I41     -0.005100
      7 C07         3.2560   -2.0080    2.2920 cc        1 I41     -0.259900
      8 C08         2.8040   -2.7170    3.4290 cd        1 I41      0.299200
      9 N09         3.8860   -3.1470    4.1860 nd        1 I41     -0.655000
     10 C10         4.9900   -2.7200    3.5290 cc        1 I41      0.416400
     11 N11         4.6550   -2.0120    2.3720 na        1 I41     -0.303900
     12 N12         1.6580    0.2860    2.9250 n         1 I41     -0.533900
     13 C13         1.5620    1.5290    3.4820 c         1 I41      0.645100
     14 O14         2.0720    2.5540    2.9870 o         1 I41     -0.589100
     15 C15         0.7120    1.6810    4.7590 c3        1 I41      0.017800
     16 N16        -0.2350    2.8250    4.5790 n4        1 I41     -0.663400
     17 C17        -1.1230    2.6190    3.3960 c3        1 I41     -0.018200
     18 C18        -1.8960    1.3120    3.4050 c         1 I41      0.631100
     19 O19        -2.3450    0.8140    2.2360 oh        1 I41     -0.526100
     20 O20        -2.1800    0.6600    4.4100 o         1 I41     -0.492000
     21 C21        -1.0110    3.0810    5.8490 c3        1 I41      0.169100
     22 C22        -1.6840    4.4090    5.8160 ca        1 I41     -0.188300
     23 C23        -0.9290    5.5780    5.9790 ca        1 I41     -0.104500
     24 C24        -1.5630    6.8180    6.0000 ca        1 I41     -0.118500
     25 C25        -2.9520    6.8950    5.8660 ca        1 I41     -0.080000
     26 C26        -3.7050    5.7310    5.7090 ca        1 I41     -0.118500
     27 C27        -3.0750    4.4870    5.6810 ca        1 I41     -0.104500
     28 H05         3.0950    0.7360    1.4540 h1        1 I41      0.116700
     29 H011        0.5970    2.0450   -1.6790 h1        1 I41      0.066700
     30 H012        1.2270    0.6370   -2.7010 h1        1 I41      0.066700
     31 H013       -0.3150    0.4530   -1.6960 h1        1 I41      0.066700
     32 H061        1.5000   -1.9280    1.1130 hc        1 I41      0.089700
     33 H062        2.9880   -1.3660    0.2450 hc        1 I41      0.089700
     34 H12         1.3830   -0.5310    3.4250 hn        1 I41      0.352500
     35 H08         1.7800   -2.9640    3.7080 h4        1 I41      0.042100
     36 H11         5.2750   -1.6480    1.6970 hn        1 I41      0.310700
     37 H10         6.0270   -2.8940    3.8410 h5        1 I41      0.078100
     38 H151        1.4050    1.9130    5.6180 hx        1 I41      0.134200
     39 H152        0.1130    0.7580    5.0080 hx        1 I41      0.134200
     40 H171       -1.8730    3.4660    3.3750 hx        1 I41      0.147200
     41 H172       -0.4790    2.6660    2.4610 hx        1 I41      0.147200
     42 H211       -1.7570    2.2390    5.9720 hx        1 I41      0.120200
     43 H212       -0.2710    3.0420    6.7010 hx        1 I41      0.120200
     44 H23         0.1630    5.5220    6.1090 ha        1 I41      0.141500
     45 H27        -3.6750    3.5700    5.5740 ha        1 I41      0.141500
     46 H24        -0.9710    7.7370    6.1320 ha        1 I41      0.160000
     47 H25        -3.4530    7.8760    5.8910 ha        1 I41      0.161000
     48 H26        -4.8010    5.7910    5.6140 ha        1 I41      0.160000
     49 H122       -1.9760    1.2980    1.4740 ho        1 I41      0.471000
     50 H161        0.3310    3.6680    4.3700 hn        1 I41      0.469800
@<TRIPOS>BOND
     1    1    2 2   
     2    2    3 1   
     3    2    5 1   
     4    3    4 1   
     5    4   29 1   
     6    4   30 1   
     7    4   31 1   
     8    5    6 1   
     9    5   12 1   
    10    5   28 1   
    11    6    7 1   
    12    6   32 1   
    13    6   33 1   
    14    7    8 2   
    15    7   11 1   
    16    8    9 1   
    17    8   35 1   
    18    9   10 2   
    19   10   11 1   
    20   10   37 1   
    21   11   36 1   
    22   12   13 1   
    23   12   34 1   
    24   13   14 2   
    25   13   15 1   
    26   15   16 1   
    27   15   38 1   
    28   15   39 1   
    29   16   17 1   
    30   16   21 1   
    31   16   50 1   
    32   17   18 1   
    33   17   40 1   
    34   17   41 1   
    35   18   19 1   
    36   18   20 2   
    37   19   49 1   
    38   21   22 1   
    39   21   42 1   
    40   21   43 1   
    41   22   23 ar  
    42   22   27 ar  
    43   23   24 ar  
    44   23   44 1   
    45   24   25 ar  
    46   24   46 1   
    47   25   26 ar  
    48   25   47 1   
    49   26   27 ar  
    50   26   48 1   
    51   27   45 1   
@<TRIPOS>SUBSTRUCTURE
     1 I41         1 TEMP              0 ****  ****    0 ROOT
