@<TRIPOS>MOLECULE
I41
   50    51     1     0     0
SMALL
bcc


@<TRIPOS>ATOM
      1 O04         0.1170    1.2800    0.7640 o         1 I41     -0.617000
      2 C03         1.1630    0.6490    0.5570 c         1 I41      0.639100
      3 O02         1.5640    0.4300   -0.7160 os        1 I41     -0.410900
      4 C01         0.7390    0.9560   -1.7660 c3        1 I41      0.122700
      5 C05         2.1380    0.0780    1.5930 c3        1 I41      0.062700
      6 C06         2.4120   -1.4010    1.2490 c3        1 I41     -0.005100
      7 C07         3.1760   -2.0750    2.3090 cc        1 I41     -0.259900
      8 C08         2.6910   -2.7790    3.4360 cd        1 I41      0.299200
      9 N09         3.7520   -3.2400    4.2050 nd        1 I41     -0.655000
     10 C10         4.8740   -2.8370    3.5650 cc        1 I41      0.416400
     11 N11         4.5740   -2.1150    2.4080 na        1 I41     -0.303900
     12 N12         1.6280    0.2550    2.9340 n         1 I41     -0.533900
     13 C13         1.5560    1.4970    3.4980 c         1 I41      0.645100
     14 O14         2.0990    2.5120    3.0160 o         1 I41     -0.589100
     15 C15         0.6930    1.6630    4.7640 c3        1 I41      0.017800
     16 N16        -0.2230    2.8320    4.5780 n4        1 I41     -0.663400
     17 C17        -1.0990    2.6550    3.3820 c3        1 I41     -0.018200
     18 C18        -1.9050    1.3690    3.3730 c         1 I41      0.631100
     19 O19        -2.2200    0.7180    4.3710 o         1 I41     -0.492000
     20 O20        -2.3500    0.8880    2.1950 oh        1 I41     -0.526100
     21 C21        -1.0100    3.1000    5.8400 c3        1 I41      0.169100
     22 C22        -1.6480    4.4450    5.8060 ca        1 I41     -0.188300
     23 C23        -3.0340    4.5590    5.6520 ca        1 I41     -0.104500
     24 C24        -3.6340    5.8170    5.6790 ca        1 I41     -0.118500
     25 C25        -2.8540    6.9620    5.8530 ca        1 I41     -0.080000
     26 C26        -1.4700    6.8490    6.0050 ca        1 I41     -0.118500
     27 C27        -0.8660    5.5940    5.9850 ca        1 I41     -0.104500
     28 H05         3.0950    0.6770    1.4860 h1        1 I41      0.116700
     29 H011       -0.2780    0.4980   -1.7110 h1        1 I41      0.066700
     30 H012        1.2820    0.6480   -2.6940 h1        1 I41      0.066700
     31 H013        0.6740    2.0660   -1.6730 h1        1 I41      0.066700
     32 H061        1.4380   -1.9440    1.1070 hc        1 I41      0.089700
     33 H062        2.9520   -1.4140    0.2630 hc        1 I41      0.089700
     34 H12         1.3250   -0.5570    3.4260 hn        1 I41      0.352500
     35 H08         1.6580   -3.0010    3.7000 h4        1 I41      0.042100
     36 H11         5.2110   -1.7630    1.7440 hn        1 I41      0.310700
     37 H10         5.9030   -3.0400    3.8890 h5        1 I41      0.078100
     38 H151        0.0670    0.7540    5.0000 hx        1 I41      0.134200
     39 H152        1.3800    1.8720    5.6340 hx        1 I41      0.134200
     40 H171       -0.4410    2.6910    2.4560 hx        1 I41      0.147200
     41 H172       -1.8280    3.5210    3.3560 hx        1 I41      0.147200
     42 H211       -0.2820    3.0380    6.7010 hx        1 I41      0.120200
     43 H212       -1.7780    2.2770    5.9470 hx        1 I41      0.120200
     44 H23        -3.6560    3.6570    5.5310 ha        1 I41      0.141500
     45 H27         0.2220    5.5090    6.1310 ha        1 I41      0.141500
     46 H24        -4.7270    5.9060    5.5700 ha        1 I41      0.160000
     47 H25        -3.3310    7.9550    5.8770 ha        1 I41      0.161000
     48 H26        -0.8560    7.7520    6.1510 ha        1 I41      0.160000
     49 H122       -1.9600    1.3670    1.4410 ho        1 I41      0.471000
     50 H161        0.3670    3.6610    4.3820 hn        1 I41      0.469800
@<TRIPOS>BOND
     1    1    2 2   
     2    2    3 1   
     3    2    5 1   
     4    3    4 1   
     5    4   29 1   
     6    4   30 1   
     7    4   31 1   
     8    5    6 1   
     9    5   12 1   
    10    5   28 1   
    11    6    7 1   
    12    6   32 1   
    13    6   33 1   
    14    7    8 2   
    15    7   11 1   
    16    8    9 1   
    17    8   35 1   
    18    9   10 2   
    19   10   11 1   
    20   10   37 1   
    21   11   36 1   
    22   12   13 1   
    23   12   34 1   
    24   13   14 2   
    25   13   15 1   
    26   15   16 1   
    27   15   38 1   
    28   15   39 1   
    29   16   17 1   
    30   16   21 1   
    31   16   50 1   
    32   17   18 1   
    33   17   40 1   
    34   17   41 1   
    35   18   19 2   
    36   18   20 1   
    37   20   49 1   
    38   21   22 1   
    39   21   42 1   
    40   21   43 1   
    41   22   23 ar  
    42   22   27 ar  
    43   23   24 ar  
    44   23   44 1   
    45   24   25 ar  
    46   24   46 1   
    47   25   26 ar  
    48   25   47 1   
    49   26   27 ar  
    50   26   48 1   
    51   27   45 1   
@<TRIPOS>SUBSTRUCTURE
     1 I41         1 TEMP              0 ****  ****    0 ROOT
