@<TRIPOS>MOLECULE
I41
   50    51     1     0     0
SMALL
bcc


@<TRIPOS>ATOM
      1 O04         0.0580    1.2410    0.7760 o         1 I41     -0.617000
      2 C03         1.1210    0.6490    0.5450 c         1 I41      0.639100
      3 O02         1.4930    0.4290   -0.7370 os        1 I41     -0.410900
      4 C01         0.6180    0.9110   -1.7670 c3        1 I41      0.122700
      5 C05         2.1470    0.1270    1.5580 c3        1 I41      0.062700
      6 C06         2.4670   -1.3440    1.2220 c3        1 I41     -0.005100
      7 C07         3.2880   -1.9760    2.2670 cc        1 I41     -0.259900
      8 C08         2.8620   -2.6840    3.4150 cd        1 I41      0.299200
      9 N09         3.9620   -3.0950    4.1570 nd        1 I41     -0.655000
     10 C10         5.0490   -2.6590    3.4800 cc        1 I41      0.416400
     11 N11         4.6870   -1.9620    2.3250 na        1 I41     -0.303900
     12 N12         1.6700    0.3010    2.9120 ns        1 I41     -0.533900
     13 C13         1.5670    1.5460    3.4630 c         1 I41      0.645100
     14 O14         2.0560    2.5750    2.9540 o         1 I41     -0.589100
     15 C15         0.7360    1.6950    4.7530 c3        1 I41      0.017800
     16 N16        -0.2290    2.8250    4.5820 nx        1 I41     -0.663400
     17 C17        -1.1330    2.6000    3.4140 c3        1 I41     -0.018200
     18 C18        -1.8890    1.2840    3.4430 c         1 I41      0.631100
     19 O19        -2.1480    0.6340    4.4570 o         1 I41     -0.492000
     20 O20        -2.3490    0.7720    2.2840 oh        1 I41     -0.526100
     21 C21        -0.9880    3.0790    5.8630 c3        1 I41      0.169100
     22 C22        -1.6790    4.3980    5.8330 ca        1 I41     -0.188300
     23 C23        -3.0730    4.4560    5.7190 ca        1 I41     -0.104500
     24 C24        -3.7200    5.6900    5.7500 ca        1 I41     -0.118500
     25 C25        -2.9810    6.8660    5.8880 ca        1 I41     -0.080000
     26 C26        -1.5890    6.8090    6.0000 ca        1 I41     -0.118500
     27 C27        -0.9380    5.5780    5.9760 ca        1 I41     -0.104500
     28 H05         3.0780    0.7610    1.4160 h1        1 I41      0.116700
     29 H011        0.5140    2.0190   -1.6850 h1        1 I41      0.066700
     30 H012        1.1460    0.6130   -2.7080 h1        1 I41      0.066700
     31 H013       -0.3780    0.4160   -1.6770 h1        1 I41      0.066700
     32 H061        1.5110   -1.9250    1.1160 hc        1 I41      0.089700
     33 H062        2.9780   -1.3490    0.2210 hc        1 I41      0.089700
     34 H12         1.4130   -0.5160    3.4210 hn        1 I41      0.352500
     35 H08         1.8460   -2.9420    3.7120 h4        1 I41      0.042100
     36 H11         5.2920   -1.5950    1.6370 hn        1 I41      0.310700
     37 H10         6.0930   -2.8180    3.7760 h5        1 I41      0.078100
     38 H151        1.4400    1.9410    5.6000 hx        1 I41      0.134200
     39 H152        0.1530    0.7650    5.0170 hx        1 I41      0.134200
     40 H171       -1.8950    3.4380    3.4010 hx        1 I41      0.147200
     41 H172       -0.5040    2.6510    2.4690 hx        1 I41      0.147200
     42 H211       -1.7200    2.2280    6.0030 hx        1 I41      0.120200
     43 H212       -0.2340    3.0550    6.7030 hx        1 I41      0.120200
     44 H23        -3.6630    3.5300    5.6270 ha        1 I41      0.141500
     45 H27         0.1560    5.5370    6.0900 ha        1 I41      0.141500
     46 H24        -4.8190    5.7350    5.6730 ha        1 I41      0.160000
     47 H25        -3.4950    7.8400    5.9150 ha        1 I41      0.161000
     48 H26        -1.0070    7.7370    6.1170 ha        1 I41      0.160000
     49 H122       -1.9990    1.2570    1.5140 ho        1 I41      0.471000
     50 H161        0.3220    3.6740    4.3580 hn        1 I41      0.469800
@<TRIPOS>BOND
     1    1    2 2   
     2    2    3 1   
     3    2    5 1   
     4    3    4 1   
     5    4   29 1   
     6    4   30 1   
     7    4   31 1   
     8    5    6 1   
     9    5   12 1   
    10    5   28 1   
    11    6    7 1   
    12    6   32 1   
    13    6   33 1   
    14    7    8 2   
    15    7   11 1   
    16    8    9 1   
    17    8   35 1   
    18    9   10 2   
    19   10   11 1   
    20   10   37 1   
    21   11   36 1   
    22   12   13 1   
    23   12   34 1   
    24   13   14 2   
    25   13   15 1   
    26   15   16 1   
    27   15   38 1   
    28   15   39 1   
    29   16   17 1   
    30   16   21 1   
    31   16   50 1   
    32   17   18 1   
    33   17   40 1   
    34   17   41 1   
    35   18   19 2   
    36   18   20 1   
    37   20   49 1   
    38   21   22 1   
    39   21   42 1   
    40   21   43 1   
    41   22   23 ar  
    42   22   27 ar  
    43   23   24 ar  
    44   23   44 1   
    45   24   25 ar  
    46   24   46 1   
    47   25   26 ar  
    48   25   47 1   
    49   26   27 ar  
    50   26   48 1   
    51   27   45 1   
@<TRIPOS>SUBSTRUCTURE
     1 I41         1 TEMP              0 ****  ****    0 ROOT
