@<TRIPOS>MOLECULE
I41
   48    49     1     0     0
SMALL
bcc


@<TRIPOS>ATOM
      1 O04         3.7030    2.4700    0.4690 o         1 I41     -0.559000
      2 C03         2.8240    1.6100    0.5600 c         1 I41      0.615100
      3 O02         1.7000    1.9100    1.2720 os        1 I41     -0.413900
      4 C01         1.5630    3.2570    1.7250 c3        1 I41      0.126700
      5 C05         2.8510    0.1750    0.0250 c3        1 I41      0.067700
      6 C06         4.0420    0.0660   -0.9490 c3        1 I41     -0.020100
      7 C07         4.5740   -1.3000   -1.1020 cc        1 I41     -0.199900
      8 C08         5.7900   -1.6820   -1.7220 cd        1 I41      0.268200
      9 N09         5.9380   -3.0620   -1.6790 nd        1 I41     -0.685000
     10 C10         4.8350   -3.5260   -1.0440 cc        1 I41      0.364400
     11 N11         3.9760   -2.4880   -0.6780 na        1 I41     -0.294900
     12 N12         1.6030   -0.2250   -0.5660 n         1 I41     -0.558900
     13 C13         0.8530   -1.2620   -0.0570 c         1 I41      0.679100
     14 O14         1.3450   -2.0970    0.7410 o         1 I41     -0.679100
     15 C15        -0.5650   -1.4460   -0.6120 c3        1 I41      0.097800
     16 N16        -1.5650   -0.6750    0.1220 n3        1 I41     -0.692600
     17 C17        -1.4020    0.7650   -0.0380 c3        1 I41      0.008800
     18 C18        -1.4080    1.2800   -1.4990 c         1 I41      0.885600
     19 O19        -2.5140    1.6050   -2.0110 o         1 I41     -0.840300
     20 O20        -0.3000    1.3430   -2.1130 o         1 I41     -0.840300
     21 C21        -2.9050   -1.1240   -0.2760 c3        1 I41      0.201100
     22 C22        -4.0130   -0.5630    0.5680 ca        1 I41     -0.068300
     23 C23        -4.6520    0.6190    0.1720 ca        1 I41     -0.117000
     24 C24        -5.7230    1.1110    0.9150 ca        1 I41     -0.149000
     25 C25        -6.1580    0.4340    2.0560 ca        1 I41     -0.144000
     26 C26        -5.5130   -0.7350    2.4580 ca        1 I41     -0.149000
     27 C27        -4.4410   -1.2330    1.7170 ca        1 I41     -0.117000
     28 H05         3.0550   -0.4710    0.9380 h1        1 I41      0.098700
     29 H011        2.3580    3.4860    2.4740 h1        1 I41      0.049033
     30 H012        1.6320    3.9610    0.8620 h1        1 I41      0.049033
     31 H013        0.5440    3.2740    2.1860 h1        1 I41      0.049033
     32 H061        3.7430    0.4590   -1.9600 hc        1 I41      0.081700
     33 H062        4.8740    0.7220   -0.5680 hc        1 I41      0.081700
     34 H12         1.1330    0.4500   -1.1610 hn        1 I41      0.389500
     35 H08         6.5350   -1.0360   -2.1820 h4        1 I41      0.032100
     36 H11         3.1160   -2.5710   -0.1880 hn        1 I41      0.335700
     37 H10         4.6110   -4.5750   -0.8310 h5        1 I41      0.052100
     38 H151       -0.5600   -1.1910   -1.7140 h1        1 I41      0.062700
     39 H152       -0.8010   -2.5410   -0.4930 h1        1 I41      0.062700
     40 H171       -2.2420    1.2660    0.5160 h1        1 I41      0.052200
     41 H172       -0.4400    1.0630    0.4630 h1        1 I41      0.052200
     42 H211       -3.1140   -0.8480   -1.3550 h1        1 I41      0.044700
     43 H212       -2.9310   -2.2490   -0.1880 h1        1 I41      0.044700
     44 H23        -4.2760    1.1590   -0.7230 ha        1 I41      0.163000
     45 H27        -3.9250   -2.1480    2.0400 ha        1 I41      0.163000
     46 H24        -6.2230    2.0380    0.6020 ha        1 I41      0.117500
     47 H25        -7.0030    0.8240    2.6390 ha        1 I41      0.112000
     48 H26        -5.8470   -1.2640    3.3610 ha        1 I41      0.117500
@<TRIPOS>BOND
     1    1    2 2   
     2    2    3 1   
     3    2    5 1   
     4    3    4 1   
     5    4   29 1   
     6    4   30 1   
     7    4   31 1   
     8    5    6 1   
     9    5   12 1   
    10    5   28 1   
    11    6    7 1   
    12    6   32 1   
    13    6   33 1   
    14    7    8 2   
    15    7   11 1   
    16    8    9 1   
    17    8   35 1   
    18    9   10 2   
    19   10   11 1   
    20   10   37 1   
    21   11   36 1   
    22   12   13 1   
    23   12   34 1   
    24   13   14 2   
    25   13   15 1   
    26   15   16 1   
    27   15   38 1   
    28   15   39 1   
    29   16   17 1   
    30   16   21 1   
    31   17   18 1   
    32   17   40 1   
    33   17   41 1   
    34   18   19 1   
    35   18   20 1   
    36   21   22 1   
    37   21   42 1   
    38   21   43 1   
    39   22   23 ar  
    40   22   27 ar  
    41   23   24 ar  
    42   23   44 1   
    43   24   25 ar  
    44   24   46 1   
    45   25   26 ar  
    46   25   47 1   
    47   26   27 ar  
    48   26   48 1   
    49   27   45 1   
@<TRIPOS>SUBSTRUCTURE
     1 I41         1 TEMP              0 ****  ****    0 ROOT
