@<TRIPOS>MOLECULE
I43
   33    33     1     0     0
SMALL
bcc


@<TRIPOS>ATOM
      1 N1          0.0040    0.1120   -0.1060 n         1 I43     -0.373000
      2 C01        -0.7850    0.2000   -1.3060 c3        1 I43      0.067300
      3 O1          1.9580    0.3300   -1.3100 o         1 I43     -0.610500
      4 O2          2.2510   -0.0210    3.3430 os        1 I43     -0.403400
      5 C02         3.6790    0.0840    3.3070 c3        1 I43      0.121700
      6 N2          2.2100    0.1610    0.9950 nc        1 I43     -0.713100
      7 C1          1.4420    0.2080   -0.1820 c         1 I43      0.833900
      8 C2          1.5730    0.0300    2.1510 cd        1 I43      0.731900
      9 C3          0.1290   -0.0730    2.2940 cd        1 I43     -0.320800
     10 C4         -0.4690   -0.2120    3.6350 c3        1 I43     -0.027900
     11 C5         -0.6130   -0.0320    1.1250 cc        1 I43      0.132600
     12 C11        -2.0840   -0.0960    1.1880 ce        1 I43     -0.131000
     13 C12        -2.8230   -1.1850    0.9400 c2        1 I43     -0.134400
     14 C13        -2.2510   -2.4970    0.4960 c3        1 I43      0.159100
     15 C14        -4.3140   -1.1820    1.0540 c3        1 I43      0.159100
     16 O3         -2.8430   -3.5980    1.1570 oh        1 I43     -0.598800
     17 O4         -4.7500    0.0560    1.5980 oh        1 I43     -0.598800
     18 H1         -1.3060   -0.7790   -1.4910 h1        1 I43      0.060367
     19 H2         -1.5580    1.0080   -1.1980 h1        1 I43      0.060367
     20 H3         -0.1190    0.4350   -2.1800 h1        1 I43      0.060367
     21 H4          3.9880    1.0630    2.8710 h1        1 I43      0.057367
     22 H5          4.1170   -0.7620    2.7270 h1        1 I43      0.057367
     23 H6          3.9580    0.0180    4.3890 h1        1 I43      0.057367
     24 H7          0.0290    0.4920    4.3490 hc        1 I43      0.048700
     25 H8         -1.5650    0.0080    3.6190 hc        1 I43      0.048700
     26 H9         -0.3170   -1.2520    4.0180 hc        1 I43      0.048700
     27 H10        -2.5630    0.8550    1.4930 ha        1 I43      0.174000
     28 H13        -1.1360   -2.5130    0.6350 h1        1 I43      0.054700
     29 H14        -2.4900   -2.6650   -0.5930 h1        1 I43      0.054700
     30 H15        -4.7630   -1.3290    0.0330 h1        1 I43      0.054700
     31 H16        -4.6380   -2.0310    1.7190 h1        1 I43      0.054700
     32 H17        -2.5970   -3.5390    2.0890 ho        1 I43      0.407500
     33 H18        -5.7090   -0.0070    1.6780 ho        1 I43      0.407500
@<TRIPOS>BOND
     1    1    2 1   
     2    1    7 1   
     3    1   11 1   
     4    2   18 1   
     5    2   19 1   
     6    2   20 1   
     7    3    7 2   
     8    4    5 1   
     9    4    8 1   
    10    5   21 1   
    11    5   22 1   
    12    5   23 1   
    13    6    7 1   
    14    6    8 2   
    15    8    9 1   
    16    9   10 1   
    17    9   11 2   
    18   10   24 1   
    19   10   25 1   
    20   10   26 1   
    21   11   12 1   
    22   12   13 2   
    23   12   27 1   
    24   13   14 1   
    25   13   15 1   
    26   14   16 1   
    27   14   28 1   
    28   14   29 1   
    29   15   17 1   
    30   15   30 1   
    31   15   31 1   
    32   16   32 1   
    33   17   33 1   
@<TRIPOS>SUBSTRUCTURE
     1 I43         1 TEMP              0 ****  ****    0 ROOT
