@<TRIPOS>MOLECULE
I43
   33    33     1     0     0
SMALL
bcc


@<TRIPOS>ATOM
      1 N1         -0.3570    1.4500   -0.5190 n         1 I43     -0.373000
      2 C01         0.5840    2.5070   -0.7820 c3        1 I43      0.067300
      3 O1         -2.0990    2.9550   -0.3980 o         1 I43     -0.610500
      4 O2         -3.0600   -1.5930    0.1140 os        1 I43     -0.403400
      5 C02        -4.4570   -1.3260    0.2770 c3        1 I43      0.121700
      6 N2         -2.6800    0.7190   -0.1280 nc        1 I43     -0.713100
      7 C1         -1.7560    1.7580   -0.3470 c         1 I43      0.833900
      8 C2         -2.2230   -0.5250   -0.0910 cd        1 I43      0.731900
      9 C3         -0.8260   -0.9000   -0.2570 cd        1 I43     -0.320800
     10 C4         -0.4350   -2.3210   -0.1990 c3        1 I43     -0.027900
     11 C5          0.0720    0.1340   -0.4630 cc        1 I43      0.132600
     12 C11         1.5000   -0.1670   -0.6740 ce        1 I43     -0.131000
     13 C12         2.4600   -0.0480    0.2510 c2        1 I43     -0.134400
     14 C13         2.2240    0.4760    1.6350 c3        1 I43      0.159100
     15 C14         3.8860   -0.4010   -0.0280 c3        1 I43      0.159100
     16 O3          2.8970   -0.2800    2.6230 oh        1 I43     -0.598800
     17 O4          3.9870   -1.0040   -1.3090 oh        1 I43     -0.598800
     18 H1          1.3020    2.5990    0.0780 h1        1 I43      0.060367
     19 H2          1.1630    2.2810   -1.7170 h1        1 I43      0.060367
     20 H3          0.0340    3.4780   -0.9100 h1        1 I43      0.060367
     21 H4         -4.6310   -0.6870    1.1760 h1        1 I43      0.057367
     22 H5         -4.8720   -0.8390   -0.6380 h1        1 I43      0.057367
     23 H6         -4.8880   -2.3490    0.4200 h1        1 I43      0.057367
     24 H7         -1.1630   -2.9410   -0.7830 hc        1 I43      0.049033
     25 H8          0.5890   -2.4810   -0.6170 hc        1 I43      0.049033
     26 H9         -0.4510   -2.6820    0.8600 hc        1 I43      0.049033
     27 H10         1.7360   -0.5390   -1.6900 ha        1 I43      0.174000
     28 H13         2.6630    1.5100    1.7290 h1        1 I43      0.054700
     29 H14         1.1240    0.5200    1.8630 h1        1 I43      0.054700
     30 H15         4.5110    0.5340    0.0040 h1        1 I43      0.054700
     31 H16         4.2550   -1.1110    0.7650 h1        1 I43      0.054700
     32 H17         2.4990   -1.1590    2.6330 ho        1 I43      0.407500
     33 H18         4.9150   -1.2390   -1.4250 ho        1 I43      0.407500
@<TRIPOS>BOND
     1    1    2 1   
     2    1    7 1   
     3    1   11 1   
     4    2   18 1   
     5    2   19 1   
     6    2   20 1   
     7    3    7 2   
     8    4    5 1   
     9    4    8 1   
    10    5   21 1   
    11    5   22 1   
    12    5   23 1   
    13    6    7 1   
    14    6    8 2   
    15    8    9 1   
    16    9   10 1   
    17    9   11 2   
    18   10   24 1   
    19   10   25 1   
    20   10   26 1   
    21   11   12 1   
    22   12   13 2   
    23   12   27 1   
    24   13   14 1   
    25   13   15 1   
    26   14   16 1   
    27   14   28 1   
    28   14   29 1   
    29   15   17 1   
    30   15   30 1   
    31   15   31 1   
    32   16   32 1   
    33   17   33 1   
@<TRIPOS>SUBSTRUCTURE
     1 I43         1 TEMP              0 ****  ****    0 ROOT
