@<TRIPOS>MOLECULE
I43
   33    33     1     0     0
SMALL
bcc


@<TRIPOS>ATOM
      1 N1          0.0130    0.1350   -0.0950 n         1 I43     -0.373000
      2 C01        -0.7700    0.2320   -1.2990 c3        1 I43      0.067300
      3 O1          1.9720    0.3820   -1.2840 o         1 I43     -0.610500
      4 O2          2.2390   -0.0210    3.3670 os        1 I43     -0.403400
      5 C02         3.6660    0.0940    3.3410 c3        1 I43      0.121700
      6 N2          2.2110    0.1870    1.0200 nc        1 I43     -0.713100
      7 C1          1.4500    0.2430   -0.1610 c         1 I43      0.833900
      8 C2          1.5680    0.0390    2.1710 cd        1 I43      0.731900
      9 C3          0.1230   -0.0760    2.3040 cd        1 I43     -0.320800
     10 C4         -0.4810   -0.2360    3.6390 c3        1 I43     -0.027900
     11 C5         -0.6110   -0.0280    1.1300 cc        1 I43      0.132600
     12 C11        -2.0820   -0.1030    1.1840 ce        1 I43     -0.131000
     13 C12        -2.8110   -1.1940    0.9180 c2        1 I43     -0.134400
     14 C13        -2.2270   -2.4960    0.4600 c3        1 I43      0.159100
     15 C14        -4.3030   -1.2030    1.0230 c3        1 I43      0.159100
     16 O3         -2.8140   -3.6090    1.1060 oh        1 I43     -0.598800
     17 O4         -4.7510    0.0230    1.5820 oh        1 I43     -0.598800
     18 H1         -0.1000    0.4820   -2.1660 h1        1 I43      0.060367
     19 H2         -1.2820   -0.7490   -1.4990 h1        1 I43      0.060367
     20 H3         -1.5500    1.0320   -1.1870 h1        1 I43      0.060367
     21 H4          3.9390    0.0180    4.4240 h1        1 I43      0.057367
     22 H5          4.1150   -0.7410    2.7530 h1        1 I43      0.057367
     23 H6          3.9700    1.0810    2.9180 h1        1 I43      0.057367
     24 H7          0.0050    0.4660    4.3640 hc        1 I43      0.049033
     25 H8         -1.5790   -0.0270    3.6190 hc        1 I43      0.049033
     26 H9         -0.3210   -1.2790    4.0120 hc        1 I43      0.049033
     27 H10        -2.5700    0.8410    1.4980 ha        1 I43      0.174000
     28 H13        -2.4590   -2.6530   -0.6310 h1        1 I43      0.054700
     29 H14        -1.1130   -2.5050    0.6050 h1        1 I43      0.054700
     30 H15        -4.7450   -1.3370   -0.0040 h1        1 I43      0.054700
     31 H16        -4.6250   -2.0650    1.6720 h1        1 I43      0.054700
     32 H17        -2.5730   -3.5590    2.0390 ho        1 I43      0.407500
     33 H18        -5.7100   -0.0480    1.6560 ho        1 I43      0.407500
@<TRIPOS>BOND
     1    1    2 1   
     2    1    7 1   
     3    1   11 1   
     4    2   18 1   
     5    2   19 1   
     6    2   20 1   
     7    3    7 2   
     8    4    5 1   
     9    4    8 1   
    10    5   21 1   
    11    5   22 1   
    12    5   23 1   
    13    6    7 1   
    14    6    8 2   
    15    8    9 1   
    16    9   10 1   
    17    9   11 2   
    18   10   24 1   
    19   10   25 1   
    20   10   26 1   
    21   11   12 1   
    22   12   13 2   
    23   12   27 1   
    24   13   14 1   
    25   13   15 1   
    26   14   16 1   
    27   14   28 1   
    28   14   29 1   
    29   15   17 1   
    30   15   30 1   
    31   15   31 1   
    32   16   32 1   
    33   17   33 1   
@<TRIPOS>SUBSTRUCTURE
     1 I43         1 TEMP              0 ****  ****    0 ROOT
