@<TRIPOS>MOLECULE
I43
   33    33     1     0     0
SMALL
bcc


@<TRIPOS>ATOM
      1 N1          0.0010    0.1240   -0.1070 n         1 I43     -0.373000
      2 C01        -0.7910    0.2110   -1.3050 c3        1 I43      0.067300
      3 O1          1.9510    0.3640   -1.3130 o         1 I43     -0.610500
      4 O2          2.2540   -0.0040    3.3390 os        1 I43     -0.403400
      5 C02         3.6810    0.1130    3.3010 c3        1 I43      0.121700
      6 N2          2.2080    0.1870    0.9920 nc        1 I43     -0.713100
      7 C1          1.4380    0.2330   -0.1840 c         1 I43      0.833900
      8 C2          1.5740    0.0470    2.1480 cd        1 I43      0.731900
      9 C3          0.1310   -0.0690    2.2930 cd        1 I43     -0.320800
     10 C4         -0.4630   -0.2180    3.6340 c3        1 I43     -0.027900
     11 C5         -0.6130   -0.0290    1.1250 cc        1 I43      0.132600
     12 C11        -2.0840   -0.1050    1.1910 ce        1 I43     -0.131000
     13 C12        -2.8140   -1.1980    0.9390 c2        1 I43     -0.134400
     14 C13        -2.2320   -2.5040    0.4870 c3        1 I43      0.159100
     15 C14        -4.3050   -1.2080    1.0560 c3        1 I43      0.159100
     16 O3         -2.8130   -3.6130    1.1460 oh        1 I43     -0.598800
     17 O4         -4.7490    0.0220    1.6090 oh        1 I43     -0.598800
     18 H1         -0.1290    0.4550   -2.1780 h1        1 I43      0.060367
     19 H2         -1.3040   -0.7710   -1.4930 h1        1 I43      0.060367
     20 H3         -1.5710    1.0120   -1.1920 h1        1 I43      0.060367
     21 H4          3.9620    0.0440    4.3830 h1        1 I43      0.057367
     22 H5          4.1260   -0.7270    2.7160 h1        1 I43      0.057367
     23 H6          3.9810    1.0970    2.8690 h1        1 I43      0.057367
     24 H7          0.0280    0.4900    4.3500 hc        1 I43      0.049033
     25 H8         -1.5620   -0.0100    3.6210 hc        1 I43      0.049033
     26 H9         -0.2990   -1.2580    4.0140 hc        1 I43      0.049033
     27 H10        -2.5700    0.8410    1.5010 ha        1 I43      0.174000
     28 H13        -2.4730   -2.6690   -0.6010 h1        1 I43      0.054700
     29 H14        -1.1170   -2.5110    0.6240 h1        1 I43      0.054700
     30 H15        -4.7550   -1.3510    0.0340 h1        1 I43      0.054700
     31 H16        -4.6210   -2.0650    1.7150 h1        1 I43      0.054700
     32 H17        -2.5660   -3.5550    2.0770 ho        1 I43      0.407500
     33 H18        -5.7080   -0.0480    1.6900 ho        1 I43      0.407500
@<TRIPOS>BOND
     1    1    2 1   
     2    1    7 1   
     3    1   11 1   
     4    2   18 1   
     5    2   19 1   
     6    2   20 1   
     7    3    7 2   
     8    4    5 1   
     9    4    8 1   
    10    5   21 1   
    11    5   22 1   
    12    5   23 1   
    13    6    7 1   
    14    6    8 2   
    15    8    9 1   
    16    9   10 1   
    17    9   11 2   
    18   10   24 1   
    19   10   25 1   
    20   10   26 1   
    21   11   12 1   
    22   12   13 2   
    23   12   27 1   
    24   13   14 1   
    25   13   15 1   
    26   14   16 1   
    27   14   28 1   
    28   14   29 1   
    29   15   17 1   
    30   15   30 1   
    31   15   31 1   
    32   16   32 1   
    33   17   33 1   
@<TRIPOS>SUBSTRUCTURE
     1 I43         1 TEMP              0 ****  ****    0 ROOT
