@<TRIPOS>MOLECULE
I45
   50    52     1     0     0
SMALL
bcc


@<TRIPOS>ATOM
      1 C1         -0.6380    0.0500    0.0940 ca        1 I45     -0.166300
      2 C2          0.7390   -0.2640    0.0960 ca        1 I45      0.167900
      3 C3          1.3650   -0.7290    1.2630 ca        1 I45     -0.205000
      4 C4          0.6000   -0.8900    2.4300 ca        1 I45      0.175900
      5 C5         -0.7760   -0.5880    2.4320 ca        1 I45     -0.180000
      6 C6         -1.3750   -0.1230    1.2680 ca        1 I45     -0.049000
      7 C7         -1.2810    0.5760   -1.1430 c3        1 I45      0.181700
      8 O8         -2.5710   -0.0670   -1.2430 os        1 I45     -0.293900
      9 C9         -3.2700    0.1200   -2.4000 cc        1 I45      0.272100
     10 C10        -4.4630   -0.5720   -2.5460 cd        1 I45     -0.249500
     11 C11        -5.2390   -0.4030   -3.7640 c         1 I45      0.743700
     12 N12        -4.6380    0.3420   -4.8360 n         1 I45     -0.280200
     13 C13        -3.5170    1.1290   -4.6080 cd        1 I45      0.113400
     14 C14        -2.8280    1.0220   -3.4210 cc        1 I45     -0.295000
     15 C15        -5.3000    0.2810   -6.0950 ca        1 I45      0.028600
     16 C16        -6.6730    0.5900   -6.1090 ca        1 I45     -0.064000
     17 C17        -7.4590    0.2590   -7.2180 ca        1 I45     -0.211600
     18 C18        -6.8550   -0.1680   -8.4090 ca        1 I45     -0.038000
     19 C19        -5.4810   -0.3820   -8.4250 ca        1 I45     -0.132000
     20 C20        -4.6960   -0.2350   -7.2710 ca        1 I45      0.009700
     21 F21         1.4750   -0.1140   -1.0320 f         1 I45     -0.134900
     22 F22         1.1920   -1.3400    3.5580 f         1 I45     -0.120900
     23 BR23       -5.1430   -1.7220   -1.2450 br        1 I45      0.007300
     24 O24        -6.3940   -0.8430   -3.9630 o         1 I45     -0.692500
     25 C25        -3.0610    2.1450   -5.6060 c3        1 I45     -0.085900
     26 C26        -8.9140    0.2480   -7.0920 c         1 I45      0.583700
     27 O27        -9.7880    0.5770   -7.8770 o         1 I45     -0.410100
     28 N28        -9.3990   -0.3600   -5.7700 n4        1 I45     -0.684800
     29 C29       -10.2030    0.6020   -4.9870 c3        1 I45      0.082100
     30 C30        -3.2830   -0.6730   -7.3010 c3        1 I45     -0.084800
     31 H3          2.4390   -0.9660    1.2610 ha        1 I45      0.175000
     32 H5         -1.3620   -0.7240    3.3530 ha        1 I45      0.163000
     33 H6         -2.4540    0.1070    1.2600 ha        1 I45      0.157000
     34 H7         -1.4450    1.6850   -1.0630 h1        1 I45      0.065200
     35 H7A        -0.6670    0.3340   -2.0520 h1        1 I45      0.065200
     36 H14        -1.9460    1.6580   -3.2590 ha        1 I45      0.173000
     37 H16        -7.1320    1.0500   -5.2160 ha        1 I45      0.154000
     38 H18        -7.4640   -0.3560   -9.3080 ha        1 I45      0.170000
     39 H19        -5.0020   -0.7230   -9.3590 ha        1 I45      0.171000
     40 H25        -1.9820    1.9740   -5.8510 hc        1 I45      0.074367
     41 H25A       -3.1600    3.1640   -5.1500 hc        1 I45      0.074367
     42 H25B       -3.6520    2.1280   -6.5550 hc        1 I45      0.074367
     43 HN28       -9.9740   -1.1820   -5.9880 hn        1 I45      0.474300
     44 H29        -9.5530    1.4630   -4.6770 hx        1 I45      0.109033
     45 H29A      -10.6090    0.0920   -4.0710 hx        1 I45      0.109033
     46 H29B      -11.0530    0.9800   -5.6190 hx        1 I45      0.109033
     47 H30        -3.0210   -1.1320   -8.2870 hc        1 I45      0.073367
     48 H30A       -2.5920    0.1910   -7.1270 hc        1 I45      0.073367
     49 H30B       -3.0980   -1.4350   -6.5010 hc        1 I45      0.073367
     50 H282       -8.5840   -0.6720   -5.2120 hn        1 I45      0.474300
@<TRIPOS>BOND
     1    1    2 ar  
     2    1    6 ar  
     3    1    7 1   
     4    2    3 ar  
     5    2   21 1   
     6    3    4 ar  
     7    3   31 1   
     8    4    5 ar  
     9    4   22 1   
    10    5    6 ar  
    11    5   32 1   
    12    6   33 1   
    13    7    8 1   
    14    7   34 1   
    15    7   35 1   
    16    8    9 1   
    17    9   10 2   
    18    9   14 1   
    19   10   11 1   
    20   10   23 1   
    21   11   12 1   
    22   11   24 2   
    23   12   13 1   
    24   12   15 1   
    25   13   14 2   
    26   13   25 1   
    27   14   36 1   
    28   15   16 ar  
    29   15   20 ar  
    30   16   17 ar  
    31   16   37 1   
    32   17   18 ar  
    33   17   26 1   
    34   18   19 ar  
    35   18   38 1   
    36   19   20 ar  
    37   19   39 1   
    38   20   30 1   
    39   25   40 1   
    40   25   41 1   
    41   25   42 1   
    42   26   27 2   
    43   26   28 1   
    44   28   29 1   
    45   28   43 1   
    46   28   50 1   
    47   29   44 1   
    48   29   45 1   
    49   29   46 1   
    50   30   47 1   
    51   30   48 1   
    52   30   49 1   
@<TRIPOS>SUBSTRUCTURE
     1 I45         1 TEMP              0 ****  ****    0 ROOT
