@<TRIPOS>MOLECULE
I45
   49    51     1     0     0
SMALL
bcc


@<TRIPOS>ATOM
      1 C1          4.4810    0.6780    0.8110 ca        1 I45     -0.146300
      2 C2          5.4590    1.6490    1.1230 ca        1 I45      0.154900
      3 C3          6.8060    1.2860    1.2820 ca        1 I45     -0.207000
      4 C4          7.1710   -0.0600    1.1200 ca        1 I45      0.157900
      5 C5          6.2040   -1.0320    0.8040 ca        1 I45     -0.180000
      6 C6          4.8750   -0.6530    0.6550 ca        1 I45     -0.053000
      7 C7          3.0580    1.1030    0.6760 c3        1 I45      0.180700
      8 O8          2.3760    0.0940   -0.0880 os        1 I45     -0.309900
      9 C9          1.0200    0.2510   -0.2440 cc        1 I45      0.249100
     10 C10         0.3320   -0.7710   -0.8690 cd        1 I45     -0.238500
     11 C11        -1.1130   -0.6510   -1.0770 c         1 I45      0.721700
     12 N12        -1.7450    0.5400   -0.6040 n         1 I45     -0.271200
     13 C13        -1.0230    1.5440    0.0170 cd        1 I45      0.126400
     14 C14         0.3380    1.4250    0.2020 cc        1 I45     -0.320000
     15 C15        -3.1650    0.6780   -0.7360 ca        1 I45      0.011600
     16 C16        -3.9810    0.5160    0.4000 ca        1 I45     -0.070000
     17 C17        -5.3670    0.6420    0.2920 ca        1 I45     -0.145600
     18 C18        -5.9530    0.9310   -0.9430 ca        1 I45     -0.091000
     19 C19        -5.1490    1.0860   -2.0670 ca        1 I45     -0.138000
     20 C20        -3.7570    0.9580   -1.9910 ca        1 I45     -0.020300
     21 F21         5.1040    2.9480    1.2740 f         1 I45     -0.136900
     22 F22         8.4670   -0.4210    1.2690 f         1 I45     -0.131900
     23 BR23        1.1570   -2.3330   -1.4750 br        1 I45     -0.020700
     24 O24        -1.8310   -1.4990   -1.6360 o         1 I45     -0.605500
     25 C25        -1.7240    2.7780    0.4890 c3        1 I45     -0.081900
     26 C26        -6.1800    0.4900    1.5350 c         1 I45      0.670700
     27 O27        -5.8040    0.9820    2.6190 o         1 I45     -0.606100
     28 N28        -7.3670   -0.2070    1.4310 n         1 I45     -0.567900
     29 C29        -8.1950   -0.4890    2.5590 c3        1 I45      0.077300
     30 C30        -2.9380    1.0980   -3.2170 c3        1 I45     -0.069800
     31 H3          7.5610    2.0460    1.5260 ha        1 I45      0.167000
     32 H5          6.5070   -2.0820    0.6770 ha        1 I45      0.158000
     33 H6          4.1130   -1.4110    0.4000 ha        1 I45      0.169000
     34 H7          2.5830    1.1900    1.6910 h1        1 I45      0.062200
     35 H7A         2.9910    2.0860    0.1350 h1        1 I45      0.062200
     36 H14         0.8860    2.2410    0.6880 ha        1 I45      0.159000
     37 H16        -3.5410    0.2950    1.3880 ha        1 I45      0.162000
     38 H18        -7.0430    1.0510   -1.0320 ha        1 I45      0.141000
     39 H19        -5.6140    1.3080   -3.0410 ha        1 I45      0.143000
     40 H25        -2.4800    2.5210    1.2740 hc        1 I45      0.069700
     41 H25A       -0.9880    3.4980    0.9220 hc        1 I45      0.069700
     42 H25B       -2.2540    3.2760   -0.3620 hc        1 I45      0.069700
     43 HN28       -7.5720   -0.6750    0.5810 hn        1 I45      0.312500
     44 H29        -9.2640   -0.2560    2.3050 h1        1 I45      0.046033
     45 H29A       -8.1220   -1.5730    2.8450 h1        1 I45      0.046033
     46 H29B       -7.8800    0.1390    3.4360 h1        1 I45      0.046033
     47 H30        -2.3840    0.1420   -3.4110 hc        1 I45      0.059367
     48 H30A       -3.5750    1.3240   -4.1070 hc        1 I45      0.059367
     49 H30B       -2.1910    1.9220   -3.1010 hc        1 I45      0.059367
@<TRIPOS>BOND
     1    1    2 ar  
     2    1    6 ar  
     3    1    7 1   
     4    2    3 ar  
     5    2   21 1   
     6    3    4 ar  
     7    3   31 1   
     8    4    5 ar  
     9    4   22 1   
    10    5    6 ar  
    11    5   32 1   
    12    6   33 1   
    13    7    8 1   
    14    7   34 1   
    15    7   35 1   
    16    8    9 1   
    17    9   10 2   
    18    9   14 1   
    19   10   11 1   
    20   10   23 1   
    21   11   12 1   
    22   11   24 2   
    23   12   13 1   
    24   12   15 1   
    25   13   14 2   
    26   13   25 1   
    27   14   36 1   
    28   15   16 ar  
    29   15   20 ar  
    30   16   17 ar  
    31   16   37 1   
    32   17   18 ar  
    33   17   26 1   
    34   18   19 ar  
    35   18   38 1   
    36   19   20 ar  
    37   19   39 1   
    38   20   30 1   
    39   25   40 1   
    40   25   41 1   
    41   25   42 1   
    42   26   27 2   
    43   26   28 1   
    44   28   29 1   
    45   28   43 1   
    46   29   44 1   
    47   29   45 1   
    48   29   46 1   
    49   30   47 1   
    50   30   48 1   
    51   30   49 1   
@<TRIPOS>SUBSTRUCTURE
     1 I45         1 TEMP              0 ****  ****    0 ROOT
