@<TRIPOS>MOLECULE
I45
   50    52     1     0     0
SMALL
bcc


@<TRIPOS>ATOM
      1 C1         -0.5640   -0.0680    0.0870 ca        1 I45     -0.166300
      2 C2          0.7540   -0.5750    0.0900 ca        1 I45      0.168900
      3 C3          1.3330   -1.0560    1.2760 ca        1 I45     -0.205000
      4 C4          0.5770   -1.0390    2.4600 ca        1 I45      0.175900
      5 C5         -0.7420   -0.5440    2.4610 ca        1 I45     -0.180000
      6 C6         -1.2930   -0.0650    1.2800 ca        1 I45     -0.049000
      7 C7         -1.1520    0.4740   -1.1700 c3        1 I45      0.181700
      8 O8         -2.5160   -0.0020   -1.2240 os        1 I45     -0.292900
      9 C9         -3.2090    0.2290   -2.3760 cc        1 I45      0.273100
     10 C10        -4.4870   -0.3040   -2.4710 cd        1 I45     -0.249500
     11 C11        -5.2640   -0.0820   -3.6780 c         1 I45      0.746700
     12 N12        -4.6100    0.5600   -4.7850 n         1 I45     -0.275200
     13 C13        -3.3740    1.1720   -4.6200 cd        1 I45      0.113400
     14 C14        -2.6730    1.0130   -3.4460 cc        1 I45     -0.295000
     15 C15        -5.3130    0.5580   -6.0230 ca        1 I45      0.029600
     16 C16        -6.6570    0.9790   -5.9800 ca        1 I45     -0.064000
     17 C17        -7.5250    0.6780   -7.0330 ca        1 I45     -0.208600
     18 C18        -7.0200    0.1910   -8.2460 ca        1 I45     -0.040000
     19 C19        -5.6640   -0.1010   -8.3340 ca        1 I45     -0.133000
     20 C20        -4.8050    0.0100   -7.2280 ca        1 I45      0.005700
     21 F21         1.4810   -0.5970   -1.0530 f         1 I45     -0.134900
     22 F22         1.1230   -1.5030    3.6050 f         1 I45     -0.120900
     23 Br23       -5.2780   -1.3020   -1.1080 br        1 I45      0.006300
     24 O24        -6.4680   -0.3960   -3.8350 o         1 I45     -0.703500
     25 C25        -2.7870    2.0400   -5.6860 c3        1 I45     -0.084900
     26 C26        -8.9680    0.7570   -6.8110 c         1 I45      0.582700
     27 O27        -9.8700    1.1360   -7.5390 o         1 I45     -0.409100
     28 N28        -9.3900    0.2110   -5.4410 ny        1 I45     -0.684800
     29 C29       -10.4030   -0.8580   -5.5680 c3        1 I45      0.083100
     30 C30        -3.4140   -0.4730   -7.3760 c3        1 I45     -0.084800
     31 H3          2.3620   -1.4450    1.2740 ha        1 I45      0.175000
     32 H5         -1.3210   -0.5410    3.3960 ha        1 I45      0.164000
     33 H6         -2.3280    0.3160    1.2720 ha        1 I45      0.156000
     34 H7         -1.1710    1.5970   -1.1470 h1        1 I45      0.065200
     35 H7A        -0.5900    0.1080   -2.0700 h1        1 I45      0.065200
     36 H14        -1.7020    1.5160   -3.3360 ha        1 I45      0.174000
     37 H16        -7.0290    1.5040   -5.0820 ha        1 I45      0.156000
     38 H18        -7.6890    0.0220   -9.1050 ha        1 I45      0.170000
     39 H19        -5.2540   -0.4770   -9.2890 ha        1 I45      0.171000
     40 H25        -1.8650    1.5540   -6.0960 hc        1 I45      0.074367
     41 H25A       -2.4980    3.0240   -5.2360 hc        1 I45      0.074367
     42 H25B       -3.4930    2.2350   -6.5310 hc        1 I45      0.074367
     43 HN28       -8.5570   -0.1540   -4.9420 hn        1 I45      0.474300
     44 H29       -11.2790   -0.4760   -6.1600 hx        1 I45      0.109700
     45 H29A      -10.7430   -1.1710   -4.5430 hx        1 I45      0.109700
     46 H29B       -9.9490   -1.7400   -6.0950 hx        1 I45      0.109700
     47 H30        -3.3810   -1.3720   -8.0440 hc        1 I45      0.072700
     48 H30A       -2.7840    0.3280   -7.8460 hc        1 I45      0.072700
     49 H30B       -2.9540   -0.7540   -6.3970 hc        1 I45      0.072700
     50 H282       -9.7810    0.9830   -4.8900 hn        1 I45      0.474300
@<TRIPOS>BOND
     1    1    2 ar  
     2    1    6 ar  
     3    1    7 1   
     4    2    3 ar  
     5    2   21 1   
     6    3    4 ar  
     7    3   31 1   
     8    4    5 ar  
     9    4   22 1   
    10    5    6 ar  
    11    5   32 1   
    12    6   33 1   
    13    7    8 1   
    14    7   34 1   
    15    7   35 1   
    16    8    9 1   
    17    9   10 2   
    18    9   14 1   
    19   10   11 1   
    20   10   23 1   
    21   11   12 1   
    22   11   24 2   
    23   12   13 1   
    24   12   15 1   
    25   13   14 2   
    26   13   25 1   
    27   14   36 1   
    28   15   16 ar  
    29   15   20 ar  
    30   16   17 ar  
    31   16   37 1   
    32   17   18 ar  
    33   17   26 1   
    34   18   19 ar  
    35   18   38 1   
    36   19   20 ar  
    37   19   39 1   
    38   20   30 1   
    39   25   40 1   
    40   25   41 1   
    41   25   42 1   
    42   26   27 2   
    43   26   28 1   
    44   28   29 1   
    45   28   43 1   
    46   28   50 1   
    47   29   44 1   
    48   29   45 1   
    49   29   46 1   
    50   30   47 1   
    51   30   48 1   
    52   30   49 1   
@<TRIPOS>SUBSTRUCTURE
     1 I45         1 TEMP              0 ****  ****    0 ROOT
