@<TRIPOS>MOLECULE
I45
   49    45     1     0     0
SMALL
bcc


@<TRIPOS>ATOM
      1 C1         -2.7070    4.8000    1.7840 c1        1 I45     -0.139000
      2 C2         -1.7960    5.6330    2.4210 c1        1 I45      0.121500
      3 C3         -2.1670    6.8960    2.7930 c1        1 I45     -0.193500
      4 C4         -3.4500    7.3470    2.5370 c1        1 I45      0.121500
      5 C5         -4.3560    6.5260    1.9070 c1        1 I45     -0.193500
      6 C6         -3.9830    5.2470    1.5290 c1        1 I45     -0.053000
      7 C7         -2.3630    3.4060    1.5370 c3        1 I45      0.023000
      8 O8         -1.1080    3.3390    0.8550 os        1 I45     -0.194000
      9 C9         -0.7390    1.9890    0.4160 c2        1 I45      0.205000
     10 C10        -0.5460    1.7030   -1.0490 c1        1 I45     -0.345000
     11 C11         0.0100    0.3660   -1.4870 c1        1 I45      0.360000
     12 N12         0.2410   -0.7010   -0.4930 n3        1 I45     -0.209000
     13 C13         0.0810   -0.4180    0.9510 c2        1 I45      0.128000
     14 C14        -0.3830    0.9630    1.4130 c2        1 I45     -0.320000
     15 C15         0.6870   -2.0190   -0.9310 c2        1 I45      0.019000
     16 C16         2.0300   -2.2360   -1.2280 c2        1 I45     -0.070000
     17 C17         2.4600   -3.4970   -1.6430 c1        1 I45     -0.125000
     18 C18         1.5600   -4.5260   -1.7590 c1        1 I45     -0.114500
     19 C19         0.2160   -4.3110   -1.4630 c1        1 I45     -0.114500
     20 C20        -0.2150   -3.0450   -1.0470 c1        1 I45     -0.013000
     21 F21        -0.5770    5.1850    2.7160 f         1 I45     -0.099500
     22 F22        -3.8160    8.5460    2.9370 f         1 I45     -0.099500
     23 BR23       -0.7380    3.1350   -2.3490 br        1 I45      0.105000
     24 O24         0.3070    0.1860   -2.6510 o         1 I45     -0.330000
     25 C25         0.3140   -1.5270    1.9740 c3        1 I45     -0.204000
     26 C26         3.9200   -3.7330   -1.9430 c2        1 I45      0.344000
     27 O27         4.7220   -2.8180   -1.8210 o         1 I45     -0.367000
     28 N28         4.3890   -5.0850   -2.3460 n         1 I45     -0.377000
     29 C29         5.7720   -5.3510   -2.4450 c3        1 I45     -0.078000
     30 C30        -1.7010   -3.1880   -1.1990 c3        1 I45     -0.195000
     31 H3         -1.5250    7.4810    3.2420 ha        1 I45      0.162500
     32 H5         -5.2440    6.8380    1.7310 ha        1 I45      0.162500
     33 H6         -4.6100    4.6760    1.0910 ha        1 I45      0.169000
     34 H7         -3.0530    2.9950    0.9910 h1        1 I45      0.101500
     35 H7A        -2.2980    2.9390    2.3760 h1        1 I45      0.101500
     36 H14        -0.4900    1.1510    2.3680 ha        1 I45      0.159000
     37 H16         2.6900   -1.4850   -1.1440 ha        1 I45      0.162000
     38 H18         1.8570   -5.3950   -2.0450 ha        1 I45      0.142000
     39 H19        -0.4430   -5.0620   -1.5500 ha        1 I45      0.142000
     40 H25         0.9820   -2.1310    1.6450 hc        1 I45      0.109000
     41 H25A       -0.5100   -2.0080    2.1190 hc        1 I45      0.109000
     42 H25B        0.6180   -1.1300    2.8290 hc        1 I45      0.109000
     43 HN28        3.7720   -5.7690   -2.4830 hn        1 I45      0.226000
     44 H29         5.9240   -6.3390   -2.4270 h1        1 I45      0.085333
     45 H29A        6.2360   -4.9400   -1.6950 h1        1 I45      0.085333
     46 H29B        6.1090   -4.9900   -3.2690 h1        1 I45      0.085333
     47 H30        -2.1400   -2.3180   -0.9930 hc        1 I45      0.098667
     48 H30A       -2.0310   -3.8760   -0.5790 hc        1 I45      0.098667
     49 H30B       -1.9100   -3.4510   -2.1240 hc        1 I45      0.098667
@<TRIPOS>BOND
     1    1    6 1   
     2    1    7 1   
     3    2    3 1   
     4    2   21 1   
     5    3   31 1   
     6    4    5 1   
     7    4   22 1   
     8    5   32 1   
     9    6   33 1   
    10    7    8 1   
    11    7   34 1   
    12    7   35 1   
    13    8    9 1   
    14    9   10 1   
    15    9   14 1   
    16   10   23 1   
    17   11   12 1   
    18   11   24 1   
    19   12   13 1   
    20   12   15 1   
    21   13   14 1   
    22   13   25 1   
    23   14   36 1   
    24   15   16 1   
    25   15   20 1   
    26   16   17 1   
    27   16   37 1   
    28   17   26 1   
    29   18   19 1   
    30   18   38 1   
    31   19   39 1   
    32   20   30 1   
    33   25   40 1   
    34   25   41 1   
    35   25   42 1   
    36   26   27 1   
    37   26   28 1   
    38   28   29 1   
    39   28   43 1   
    40   29   44 1   
    41   29   45 1   
    42   29   46 1   
    43   30   47 1   
    44   30   48 1   
    45   30   49 1   
@<TRIPOS>SUBSTRUCTURE
     1 I45         1 TEMP              0 ****  ****    0 ROOT
