@<TRIPOS>MOLECULE
I45
   50    52     1     0     0
SMALL
bcc


@<TRIPOS>ATOM
      1 C1         -0.5320   -0.0770    0.0680 ca        1 I45     -0.166300
      2 C2          0.7920   -0.5710    0.0530 ca        1 I45      0.168900
      3 C3          1.3850   -1.0630    1.2260 ca        1 I45     -0.205000
      4 C4          0.6400   -1.0690    2.4170 ca        1 I45      0.175900
      5 C5         -0.6840   -0.5870    2.4370 ca        1 I45     -0.180000
      6 C6         -1.2500   -0.0980    1.2660 ca        1 I45     -0.049000
      7 C7         -1.1360    0.4750   -1.1770 c3        1 I45      0.181700
      8 O8         -2.5000   -0.0030   -1.2200 os        1 I45     -0.292900
      9 C9         -3.2020    0.2290   -2.3660 cc        1 I45      0.273100
     10 C10        -4.4790   -0.3070   -2.4540 cd        1 I45     -0.249500
     11 C11        -5.2620   -0.0870   -3.6580 c         1 I45      0.746700
     12 N12        -4.6030    0.5320   -4.7750 n         1 I45     -0.275200
     13 C13        -3.3830    1.1740   -4.6090 cd        1 I45      0.113400
     14 C14        -2.6780    1.0230   -3.4360 cc        1 I45     -0.295000
     15 C15        -5.3060    0.5080   -6.0120 ca        1 I45      0.029600
     16 C16        -6.6310    0.9840   -5.9980 ca        1 I45     -0.064000
     17 C17        -7.4940    0.6980   -7.0600 ca        1 I45     -0.208600
     18 C18        -6.9930    0.1510   -8.2490 ca        1 I45     -0.040000
     19 C19        -5.6540   -0.2220   -8.3030 ca        1 I45     -0.133000
     20 C20        -4.8120   -0.1220   -7.1830 ca        1 I45      0.005700
     21 F21         1.5080   -0.5700   -1.0970 f         1 I45     -0.134900
     22 F22         1.2000   -1.5430    3.5510 f         1 I45     -0.120900
     23 BR23       -5.2620   -1.3070   -1.0870 br        1 I45      0.006300
     24 O24        -6.4700   -0.3820   -3.8090 o         1 I45     -0.703500
     25 C25        -2.8280    2.0790   -5.6620 c3        1 I45     -0.084900
     26 C26        -8.9350    0.8590   -6.8730 c         1 I45      0.582700
     27 O27        -9.7990    1.2700   -7.6280 o         1 I45     -0.409100
     28 N28        -9.4180    0.3650   -5.5030 n4        1 I45     -0.684800
     29 C29       -10.4730   -0.6610   -5.6330 c3        1 I45      0.083100
     30 C30        -3.4600   -0.7190   -7.2460 c3        1 I45     -0.084800
     31 H3          2.4180   -1.4400    1.2110 ha        1 I45      0.175000
     32 H5         -1.2550   -0.6030    3.3770 ha        1 I45      0.164000
     33 H6         -2.2890    0.2720    1.2730 ha        1 I45      0.156000
     34 H7         -0.5830    0.1200   -2.0870 h1        1 I45      0.065200
     35 H7A        -1.1570    1.5980   -1.1420 h1        1 I45      0.065200
     36 H14        -1.7160    1.5440   -3.3240 ha        1 I45      0.174000
     37 H16        -6.9940    1.5400   -5.1150 ha        1 I45      0.156000
     38 H18        -7.6550   -0.0040   -9.1170 ha        1 I45      0.170000
     39 H19        -5.2540   -0.6530   -9.2360 ha        1 I45      0.171000
     40 H25        -3.4570    2.1210   -6.5840 hc        1 I45      0.074367
     41 H25A       -2.7560    3.1150   -5.2400 hc        1 I45      0.074367
     42 H25B       -1.7980    1.7420   -5.9430 hc        1 I45      0.074367
     43 HN28       -9.7880    1.1660   -4.9810 hn        1 I45      0.474300
     44 H29       -10.8550   -0.9340   -4.6120 hx        1 I45      0.109700
     45 H29A      -11.3150   -0.2550   -6.2580 hx        1 I45      0.109700
     46 H29B      -10.0460   -1.5740   -6.1280 hx        1 I45      0.109700
     47 H30        -2.6730    0.0760   -7.2110 hc        1 I45      0.072700
     48 H30A       -3.2970   -1.4110   -6.3800 hc        1 I45      0.072700
     49 H30B       -3.3190   -1.3040   -8.1900 hc        1 I45      0.072700
     50 H282       -8.6160   -0.0250   -4.9740 hn        1 I45      0.474300
@<TRIPOS>BOND
     1    1    2 ar  
     2    1    6 ar  
     3    1    7 1   
     4    2    3 ar  
     5    2   21 1   
     6    3    4 ar  
     7    3   31 1   
     8    4    5 ar  
     9    4   22 1   
    10    5    6 ar  
    11    5   32 1   
    12    6   33 1   
    13    7    8 1   
    14    7   34 1   
    15    7   35 1   
    16    8    9 1   
    17    9   10 2   
    18    9   14 1   
    19   10   11 1   
    20   10   23 1   
    21   11   12 1   
    22   11   24 2   
    23   12   13 1   
    24   12   15 1   
    25   13   14 2   
    26   13   25 1   
    27   14   36 1   
    28   15   16 ar  
    29   15   20 ar  
    30   16   17 ar  
    31   16   37 1   
    32   17   18 ar  
    33   17   26 1   
    34   18   19 ar  
    35   18   38 1   
    36   19   20 ar  
    37   19   39 1   
    38   20   30 1   
    39   25   40 1   
    40   25   41 1   
    41   25   42 1   
    42   26   27 2   
    43   26   28 1   
    44   28   29 1   
    45   28   43 1   
    46   28   50 1   
    47   29   44 1   
    48   29   45 1   
    49   29   46 1   
    50   30   47 1   
    51   30   48 1   
    52   30   49 1   
@<TRIPOS>SUBSTRUCTURE
     1 I45         1 TEMP              0 ****  ****    0 ROOT
