@<TRIPOS>MOLECULE
I46
   28    30     1     0     0
SMALL
bcc


@<TRIPOS>ATOM
      1 C1          0.1150    0.1460    0.0590 ca        1 I46     -0.097000
      2 C2          0.0560   -0.2150    2.4510 ca        1 I46     -0.097000
      3 C3          1.5020    0.0550    0.0710 ca        1 I46     -0.164500
      4 C4          1.4420   -0.3070    2.4820 ca        1 I46     -0.164500
      5 C5         -3.3600    2.1830   -1.6470 ca        1 I46     -0.240300
      6 C6         -2.9860    3.2280   -2.5090 ca        1 I46      0.415200
      7 C7         -1.5130    2.8080   -0.2280 ca        1 I46     -0.259300
      8 C8         -2.9250   -0.7460    1.9930 cc        1 I46     -0.138300
      9 C9         -0.6250    0.0120    1.2440 ca        1 I46     -0.023000
     10 C10         2.1720   -0.1730    1.2870 ca        1 I46      0.127900
     11 C11        -2.6050    1.9700   -0.4840 ca        1 I46     -0.052500
     12 C12        -1.2220    3.8330   -1.1620 ca        1 I46      0.605500
     13 C13        -2.0640    0.0710    1.2320 cd        1 I46     -0.180300
     14 C14        -2.9600    0.9160    0.4530 cd        1 I46      0.352800
     15 N15        -4.2240   -0.3790    1.6510 na        1 I46     -0.004600
     16 N16        -1.9450    4.0510   -2.3000 nb        1 I46     -0.683000
     17 N17        -4.2610    0.5960    0.7500 nc        1 I46     -0.496800
     18 F18         3.5230   -0.2650    1.3070 f         1 I46     -0.138900
     19 F19        -0.1680    4.6550   -0.9290 f         1 I46     -0.221200
     20 H1         -0.4120    0.3270   -0.8910 ha        1 I46      0.142000
     21 H2         -0.5170   -0.3170    3.3850 ha        1 I46      0.142000
     22 H3          2.0800    0.1590   -0.8590 ha        1 I46      0.151500
     23 H4          1.9730   -0.4820    3.4280 ha        1 I46      0.151500
     24 H6         -3.5580    3.4260   -3.4350 h4        1 I46      0.031100
     25 H7         -0.8900    2.6820    0.6690 ha        1 I46      0.169000
     26 H8         -2.7050   -1.5330    2.7140 h4        1 I46      0.184000
     27 HN15       -5.0700   -0.7550    2.0120 hn        1 I46      0.328700
     28 H5         -4.2290    1.5550   -1.8830 ha        1 I46      0.161000
@<TRIPOS>BOND
     1    1    3 ar  
     2    1    9 ar  
     3    1   20 1   
     4    2    4 ar  
     5    2    9 ar  
     6    2   21 1   
     7    3   10 ar  
     8    3   22 1   
     9    4   10 ar  
    10    4   23 1   
    11    5    6 ar  
    12    5   11 ar  
    13    5   28 1   
    14    6   16 ar  
    15    6   24 1   
    16    7   11 ar  
    17    7   12 ar  
    18    7   25 1   
    19    8   13 2   
    20    8   15 1   
    21    8   26 1   
    22    9   13 1   
    23   10   18 1   
    24   11   14 1   
    25   12   16 ar  
    26   12   19 1   
    27   13   14 1   
    28   14   17 2   
    29   15   17 1   
    30   15   27 1   
@<TRIPOS>SUBSTRUCTURE
     1 I46         1 TEMP              0 ****  ****    0 ROOT
