@<TRIPOS>MOLECULE
I46
   28    20     1     0     0
SMALL
bcc


@<TRIPOS>ATOM
      1 C1          1.2840   -1.2090   -1.1860 c1        1 I46     -0.090000
      2 C2          1.3280   -1.1610    1.2290 c1        1 I46     -0.062750
      3 C3          2.6570   -1.2190   -1.1990 c1        1 I46     -0.108500
      4 C4          2.7090   -1.1700    1.2140 c1        1 I46     -0.062750
      5 C5         -1.2040    1.8660    1.1600 c1        1 I46     -0.062750
      6 C6         -0.9620    3.2350    1.1120 c1        1 I46     -0.062750
      7 C7         -1.1670    1.7760   -1.2010 c1        1 I46     -0.090000
      8 C8         -1.4890   -2.4080    0.0240 c1        1 I46      0.121900
      9 C9          0.6060   -1.1800    0.0070 c1        1 I46      0.016000
     10 C10         3.3790   -1.1990    0.0170 c1        1 I46      0.095100
     11 C11        -1.3050    1.1470    0.0010 c1        1 I46      0.016000
     12 C12        -0.9250    3.1430   -1.2420 c1        1 I46      0.464900
     13 C13        -0.7670   -1.2680    0.0150 c1        1 I46     -0.115000
     14 C14        -1.6410   -0.2160    0.0490 c1        1 I46      0.121900
     15 N15        -2.7970   -2.0720    0.0630 ne        1 I46     -0.326900
     16 N16        -0.8260    3.8570   -0.0770 n1        1 I46     -0.482800
     17 N17        -2.8830   -0.7130    0.0780 ne        1 I46     -0.326900
     18 F18         4.7650   -1.0230   -0.0170 f         1 I46     -0.106100
     19 F19        -0.6390    4.0800   -2.1820 f         1 I46     -0.083100
     20 H1          0.7930   -1.2220   -2.0200 ha        1 I46      0.095500
     21 H2          0.8250   -1.1390    2.1210 ha        1 I46      0.099750
     22 H3          3.1130   -1.2380   -2.0110 ha        1 I46      0.092500
     23 H4          3.2220   -1.1570    2.0740 ha        1 I46      0.099750
     24 H5         -1.2990    1.4420    1.9790 ha        1 I46      0.099750
     25 H6         -0.8900    3.7560    1.9560 ha        1 I46      0.099750
     26 H7         -1.2410    1.2570   -2.0460 ha        1 I46      0.095500
     27 H8         -1.1340   -3.2990    0.0030 DU        1 I46      0.231500
     28 HN15       -3.5130   -2.6650    0.0780 DU        1 I46      0.231500
@<TRIPOS>BOND
     1    1    9 3   
     2    1   20 1   
     3    2    4 3   
     4    2   21 1   
     5    3   10 3   
     6    3   22 1   
     7    4   23 1   
     8    5    6 3   
     9    5   24 1   
    10    6   25 1   
    11    7   11 3   
    12    7   26 1   
    13    8   13 2   
    14    8   15 2   
    15   10   18 1   
    16   12   16 3   
    17   12   19 1   
    18   13   14 2   
    19   14   17 2   
    20   15   17 1   
@<TRIPOS>SUBSTRUCTURE
     1 I46         1 TEMP              0 ****  ****    0 ROOT
