@<TRIPOS>MOLECULE
I46
   28    30     1     0     0
SMALL
bcc


@<TRIPOS>ATOM
      1 C1         -1.3110    0.1540    0.9250 ca        1 I46     -0.097000
      2 C2         -2.4270   -1.2130   -0.7300 ca        1 I46     -0.097000
      3 C3         -2.4480    0.9420    1.0550 ca        1 I46     -0.164500
      4 C4         -3.5730   -0.4350   -0.6150 ca        1 I46     -0.164500
      5 C5          3.0610    0.1090    0.7970 ca        1 I46     -0.240300
      6 C6          3.6020    1.4060    0.8500 ca        1 I46      0.415200
      7 C7          1.2990    0.9940   -0.5920 ca        1 I46     -0.259300
      8 C8         -0.1320   -3.1740   -0.2200 cc        1 I46     -0.138300
      9 C9         -1.2840   -0.9300    0.0350 ca        1 I46     -0.023000
     10 C10        -3.5880    0.6490    0.2820 ca        1 I46      0.127900
     11 C11         1.8850   -0.0970    0.0620 ca        1 I46     -0.052500
     12 C12         1.9260    2.2590   -0.4750 ca        1 I46      0.605500
     13 C13        -0.1200   -1.7720   -0.0770 cd        1 I46     -0.180300
     14 C14         1.2940   -1.4220   -0.0430 cd        1 I46      0.352800
     15 N15         1.2000   -3.5790   -0.2560 na        1 I46     -0.004600
     16 N16         3.0700    2.4770    0.2390 nb        1 I46     -0.683000
     17 N17         2.0480   -2.5630   -0.1540 nc        1 I46     -0.496800
     18 F18        -4.7010    1.4110    0.4030 f         1 I46     -0.138900
     19 F19         1.3730    3.3270   -1.1040 f         1 I46     -0.221200
     20 H1         -0.4170    0.3830    1.5270 ha        1 I46      0.142000
     21 H2         -2.4140   -2.0590   -1.4340 ha        1 I46      0.142000
     22 H3         -2.4670    1.7910    1.7530 ha        1 I46      0.151500
     23 H4         -4.4660   -0.6550   -1.2180 ha        1 I46      0.151500
     24 H6          4.5280    1.6070    1.4200 h4        1 I46      0.031100
     25 H7          0.3780    0.8830   -1.1790 ha        1 I46      0.169000
     26 H8         -0.9640   -3.8750   -0.2860 h4        1 I46      0.184000
     27 HN15        1.5430   -4.5070   -0.3570 hn        1 I46      0.328700
     28 H5          3.5590   -0.7190    1.3190 ha        1 I46      0.161000
@<TRIPOS>BOND
     1    1    3 ar  
     2    1    9 ar  
     3    1   20 1   
     4    2    4 ar  
     5    2    9 ar  
     6    2   21 1   
     7    3   10 ar  
     8    3   22 1   
     9    4   10 ar  
    10    4   23 1   
    11    5    6 ar  
    12    5   11 ar  
    13    5   28 1   
    14    6   16 ar  
    15    6   24 1   
    16    7   11 ar  
    17    7   12 ar  
    18    7   25 1   
    19    8   13 2   
    20    8   15 1   
    21    8   26 1   
    22    9   13 1   
    23   10   18 1   
    24   11   14 1   
    25   12   16 ar  
    26   12   19 1   
    27   13   14 1   
    28   14   17 2   
    29   15   17 1   
    30   15   27 1   
@<TRIPOS>SUBSTRUCTURE
     1 I46         1 TEMP              0 ****  ****    0 ROOT
