@<TRIPOS>MOLECULE
I47
   48    51     1     0     0
SMALL
bcc


@<TRIPOS>ATOM
      1 C1         -0.1070   -0.1340    0.0750 cc        1 I47     -0.030300
      2 N2          1.2830   -0.3060    0.1360 na        1 I47     -0.004600
      3 N3          1.7410   -0.3730    1.3820 nc        1 I47     -0.501800
      4 C4          0.6640   -0.2580    2.2140 cd        1 I47      0.348600
      5 C5         -0.5440   -0.1060    1.4190 cd        1 I47     -0.313800
      6 C6         -0.8370   -0.0020   -1.1730 ca        1 I47     -0.038000
      7 C7         -1.9050    0.0200    1.9070 ca        1 I47      0.529800
      8 C8          0.7330   -0.2870    3.6990 c3        1 I47     -0.084000
      9 C9         -1.8110    0.9960   -1.3110 ca        1 I47     -0.102000
     10 C10        -2.5140    1.1330   -2.5050 ca        1 I47     -0.125000
     11 C11        -2.2400    0.2700   -3.5720 ca        1 I47      0.026400
     12 C12        -1.2670   -0.7280   -3.4450 ca        1 I47     -0.125000
     13 C13        -0.5680   -0.8600   -2.2480 ca        1 I47     -0.102000
     14 C14        -2.8880   -0.9030    1.4730 ca        1 I47     -0.350600
     15 C15        -4.1920   -0.7510    1.9780 ca        1 I47      0.424200
     16 N16        -4.5210    0.2270    2.8450 nb        1 I47     -0.692000
     17 C17        -3.5070    1.0610    3.2030 ca        1 I47      0.624900
     18 N18        -2.2160    1.0160    2.7840 nb        1 I47     -0.692000
     19 C19         1.6410   -1.3970    4.2130 c3        1 I47     -0.101400
     20 C20         1.7080   -1.3680    5.7410 c3        1 I47      0.079000
     21 N21         2.0650   -0.0730    6.2930 n         1 I47     -0.460800
     22 C22         1.2770    1.0200    5.7670 c3        1 I47      0.079000
     23 C23         1.1980    1.0610    4.2390 c3        1 I47     -0.101400
     24 CL24       -3.0930    0.4340   -5.0300 cl        1 I47     -0.081400
     25 C25         3.3560    0.1110    6.7990 c         1 I47      0.649100
     26 O26         4.1120   -0.8580    6.9760 o         1 I47     -0.563100
     27 C27         3.7700    1.5210    7.2120 c3        1 I47      0.061400
     28 O28         5.0270    1.4060    7.8510 oh        1 I47     -0.563800
     29 H8         -0.3100   -0.4820    4.0850 hc        1 I47      0.064700
     30 H9         -2.0200    1.6750   -0.4690 ha        1 I47      0.147000
     31 H10        -3.2780    1.9180   -2.6070 ha        1 I47      0.154000
     32 H12        -1.0540   -1.4070   -4.2850 ha        1 I47      0.154000
     33 H13         0.1890   -1.6530   -2.1490 ha        1 I47      0.147000
     34 H14        -2.6360   -1.7060    0.7700 ha        1 I47      0.161000
     35 H15        -5.0040   -1.4390    1.6810 h4        1 I47      0.031100
     36 H17        -3.7620    1.8730    3.9160 h5        1 I47      0.055100
     37 H19         2.6710   -1.2850    3.7870 hc        1 I47      0.061700
     38 H19A        1.2450   -2.3940    3.8920 hc        1 I47      0.061700
     39 H20         0.6950   -1.6340    6.1580 h1        1 I47      0.058200
     40 H20A        2.4500   -2.1410    6.0920 h1        1 I47      0.058200
     41 H22         1.6650    2.0080    6.1360 h1        1 I47      0.058200
     42 H22A        0.2310    0.8940    6.1740 h1        1 I47      0.058200
     43 H23         0.4710    1.8590    3.9390 hc        1 I47      0.061700
     44 H23A        2.1970    1.3190    3.8040 hc        1 I47      0.061700
     45 H27         3.8590    2.1700    6.2990 h1        1 I47      0.043700
     46 H27A        3.0140    1.9560    7.9200 h1        1 I47      0.043700
     47 HO28        5.2690    2.3010    8.1230 ho        1 I47      0.401000
     48 HN2         1.9070   -0.3370   -0.6370 hn        1 I47      0.328700
@<TRIPOS>BOND
     1    1    2 1   
     2    1    5 2   
     3    1    6 1   
     4    2    3 1   
     5    2   48 1   
     6    3    4 2   
     7    4    5 1   
     8    4    8 1   
     9    5    7 1   
    10    6    9 ar  
    11    6   13 ar  
    12    7   14 ar  
    13    7   18 ar  
    14    8   19 1   
    15    8   23 1   
    16    8   29 1   
    17    9   10 ar  
    18    9   30 1   
    19   10   11 ar  
    20   10   31 1   
    21   11   12 ar  
    22   11   24 1   
    23   12   13 ar  
    24   12   32 1   
    25   13   33 1   
    26   14   15 ar  
    27   14   34 1   
    28   15   16 ar  
    29   15   35 1   
    30   16   17 ar  
    31   17   18 ar  
    32   17   36 1   
    33   19   20 1   
    34   19   37 1   
    35   19   38 1   
    36   20   21 1   
    37   20   39 1   
    38   20   40 1   
    39   21   22 1   
    40   21   25 1   
    41   22   23 1   
    42   22   41 1   
    43   22   42 1   
    44   23   43 1   
    45   23   44 1   
    46   25   26 2   
    47   25   27 1   
    48   27   28 1   
    49   27   45 1   
    50   27   46 1   
    51   28   47 1   
@<TRIPOS>SUBSTRUCTURE
     1 I47         1 TEMP              0 ****  ****    0 ROOT
