@<TRIPOS>MOLECULE
I47
   48    51     1     0     0
SMALL
bcc


@<TRIPOS>ATOM
      1 C1         -1.4880   -1.0550    0.1050 cc        1 I47     -0.030300
      2 N2         -0.7260   -2.2230    0.2510 na        1 I47     -0.004600
      3 N3          0.5750   -1.9800    0.3650 nc        1 I47     -0.501800
      4 C4          0.7390   -0.6250    0.3090 cd        1 I47      0.348600
      5 C5         -0.5590    0.0100    0.1460 cd        1 I47     -0.313800
      6 C6         -2.9290   -1.0640   -0.0690 ca        1 I47     -0.038000
      7 C7         -0.8370    1.4320    0.0690 ca        1 I47      0.529800
      8 C8          2.0470    0.0760    0.4040 c3        1 I47     -0.084000
      9 C9         -3.5200   -0.2590   -1.0520 ca        1 I47     -0.102000
     10 C10        -4.9010   -0.2630   -1.2280 ca        1 I47     -0.125000
     11 C11        -5.6990   -1.0800   -0.4200 ca        1 I47      0.026400
     12 C12        -5.1190   -1.8900    0.5620 ca        1 I47     -0.125000
     13 C13        -3.7370   -1.8810    0.7340 ca        1 I47     -0.102000
     14 C14        -1.7400    2.0150    0.9920 ca        1 I47     -0.350600
     15 C15        -1.9720    3.3990    0.8880 ca        1 I47      0.424200
     16 N16        -1.3710    4.1650   -0.0430 nb        1 I47     -0.692000
     17 C17        -0.5190    3.5110   -0.8810 ca        1 I47      0.624900
     18 N18        -0.2160    2.1880   -0.8810 nb        1 I47     -0.692000
     19 C19         2.9220   -0.4840    1.5170 c3        1 I47     -0.101400
     20 C20         4.2680    0.2430    1.5550 c3        1 I47      0.079000
     21 N21         4.9610    0.2720    0.2800 n         1 I47     -0.460800
     22 C22         4.1370    0.7210   -0.8200 c3        1 I47      0.079000
     23 C23         2.7870    0.0080   -0.9280 c3        1 I47     -0.101400
     24 CL24       -7.3830   -1.0900   -0.6320 cl        1 I47     -0.081400
     25 C25         6.0630   -0.5690    0.0930 c         1 I47      0.649100
     26 O26         6.5770   -1.1660    1.0540 o         1 I47     -0.563100
     27 C27         6.6710   -0.6560   -1.3050 c3        1 I47      0.061400
     28 O28         7.8610   -1.4120   -1.1860 oh        1 I47     -0.563800
     29 H8          1.8370    1.1600    0.6360 hc        1 I47      0.064700
     30 H9         -2.8860    0.3800   -1.6880 ha        1 I47      0.147000
     31 H10        -5.3590    0.3720   -2.0020 ha        1 I47      0.154000
     32 H12        -5.7490   -2.5300    1.1990 ha        1 I47      0.154000
     33 H13        -3.2850   -2.5110    1.5150 ha        1 I47      0.147000
     34 H14        -2.2350    1.4070    1.7570 ha        1 I47      0.161000
     35 H15        -2.6630    3.9150    1.5780 h4        1 I47      0.031100
     36 H17        -0.0160    4.1280   -1.6550 h5        1 I47      0.055100
     37 H19         2.4160   -0.3480    2.5060 hc        1 I47      0.061700
     38 H19A        3.0900   -1.5820    1.3660 hc        1 I47      0.061700
     39 H20         4.0970    1.3150    1.8600 h1        1 I47      0.058200
     40 H20A        4.9280   -0.2440    2.3280 h1        1 I47      0.058200
     41 H22         3.9450    1.8230   -0.6550 h1        1 I47      0.058200
     42 H22A        4.6800    0.6170   -1.7980 h1        1 I47      0.058200
     43 H23         2.9350   -1.0620   -1.2250 hc        1 I47      0.061700
     44 H23A        2.1790    0.5090   -1.7240 hc        1 I47      0.061700
     45 H27         5.9520   -1.1750   -1.9950 h1        1 I47      0.043700
     46 H27A        6.9020    0.3730   -1.6930 h1        1 I47      0.043700
     47 HO28        8.2440   -1.4440   -2.0720 ho        1 I47      0.401000
     48 HN2        -1.0690   -3.1560    0.2350 hn        1 I47      0.328700
@<TRIPOS>BOND
     1    1    2 1   
     2    1    5 2   
     3    1    6 1   
     4    2    3 1   
     5    2   48 1   
     6    3    4 2   
     7    4    5 1   
     8    4    8 1   
     9    5    7 1   
    10    6    9 ar  
    11    6   13 ar  
    12    7   14 ar  
    13    7   18 ar  
    14    8   19 1   
    15    8   23 1   
    16    8   29 1   
    17    9   10 ar  
    18    9   30 1   
    19   10   11 ar  
    20   10   31 1   
    21   11   12 ar  
    22   11   24 1   
    23   12   13 ar  
    24   12   32 1   
    25   13   33 1   
    26   14   15 ar  
    27   14   34 1   
    28   15   16 ar  
    29   15   35 1   
    30   16   17 ar  
    31   17   18 ar  
    32   17   36 1   
    33   19   20 1   
    34   19   37 1   
    35   19   38 1   
    36   20   21 1   
    37   20   39 1   
    38   20   40 1   
    39   21   22 1   
    40   21   25 1   
    41   22   23 1   
    42   22   41 1   
    43   22   42 1   
    44   23   43 1   
    45   23   44 1   
    46   25   26 2   
    47   25   27 1   
    48   27   28 1   
    49   27   45 1   
    50   27   46 1   
    51   28   47 1   
@<TRIPOS>SUBSTRUCTURE
     1 I47         1 TEMP              0 ****  ****    0 ROOT
