@<TRIPOS>MOLECULE
I47
   48    51     1     0     0
SMALL
bcc


@<TRIPOS>ATOM
      1 C1         -0.1030   -0.1300    0.0750 cc        1 I47     -0.030300
      2 N2          1.2870   -0.2980    0.1380 na        1 I47     -0.004600
      3 N3          1.7430   -0.3650    1.3840 nc        1 I47     -0.501800
      4 C4          0.6650   -0.2540    2.2150 cd        1 I47      0.348600
      5 C5         -0.5430   -0.1050    1.4180 cd        1 I47     -0.313800
      6 C6         -0.8310    0.0010   -1.1740 ca        1 I47     -0.038000
      7 C7         -1.9050    0.0170    1.9040 ca        1 I47      0.529800
      8 C8          0.7310   -0.2850    3.7000 c3        1 I47     -0.084000
      9 C9         -1.8100    0.9960   -1.3120 ca        1 I47     -0.102000
     10 C10        -2.5100    1.1310   -2.5080 ca        1 I47     -0.125000
     11 C11        -2.2310    0.2710   -3.5750 ca        1 I47      0.026400
     12 C12        -1.2540   -0.7230   -3.4490 ca        1 I47     -0.125000
     13 C13        -0.5570   -0.8540   -2.2510 ca        1 I47     -0.102000
     14 C14        -2.8840   -0.9100    1.4690 ca        1 I47     -0.350600
     15 C15        -4.1890   -0.7620    1.9720 ca        1 I47      0.424200
     16 N16        -4.5230    0.2160    2.8380 nb        1 I47     -0.692000
     17 C17        -3.5120    1.0540    3.1960 ca        1 I47      0.624900
     18 N18        -2.2200    1.0130    2.7800 nb        1 I47     -0.692000
     19 C19         1.6390   -1.3950    4.2140 c3        1 I47     -0.101400
     20 C20         1.7040   -1.3670    5.7430 c3        1 I47      0.079000
     21 N21         2.0590   -0.0730    6.2960 n         1 I47     -0.460800
     22 C22         1.2720    1.0200    5.7700 c3        1 I47      0.079000
     23 C23         1.1950    1.0630    4.2420 c3        1 I47     -0.101400
     24 CL24       -3.0820    0.4340   -5.0350 cl        1 I47     -0.081400
     25 C25         3.3490    0.1110    6.8030 c         1 I47      0.649100
     26 O26         4.1060   -0.8590    6.9810 o         1 I47     -0.563100
     27 C27         3.7630    1.5200    7.2190 c3        1 I47      0.061400
     28 O28         5.0200    1.4050    7.8600 oh        1 I47     -0.563800
     29 H8         -0.3120   -0.4800    4.0840 hc        1 I47      0.064700
     30 H9         -2.0230    1.6720   -0.4690 ha        1 I47      0.147000
     31 H10        -3.2780    1.9140   -2.6100 ha        1 I47      0.154000
     32 H12        -1.0370   -1.3990   -4.2900 ha        1 I47      0.154000
     33 H13         0.2030   -1.6440   -2.1510 ha        1 I47      0.147000
     34 H14        -2.6280   -1.7120    0.7670 ha        1 I47      0.161000
     35 H15        -4.9980   -1.4520    1.6740 h4        1 I47      0.031100
     36 H17        -3.7700    1.8650    3.9090 h5        1 I47      0.055100
     37 H19         2.6700   -1.2820    3.7890 hc        1 I47      0.061700
     38 H19A        1.2430   -2.3920    3.8920 hc        1 I47      0.061700
     39 H20         2.4440   -2.1400    6.0940 h1        1 I47      0.058200
     40 H20A        0.6890   -1.6340    6.1570 h1        1 I47      0.058200
     41 H22         1.6600    2.0080    6.1410 h1        1 I47      0.058200
     42 H22A        0.2250    0.8930    6.1760 h1        1 I47      0.058200
     43 H23         2.1950    1.3220    3.8090 hc        1 I47      0.061700
     44 H23A        0.4680    1.8610    3.9420 hc        1 I47      0.061700
     45 H27         3.8530    2.1700    6.3070 h1        1 I47      0.043700
     46 H27A        3.0060    1.9550    7.9270 h1        1 I47      0.043700
     47 HO28        5.2610    2.2990    8.1330 ho        1 I47      0.401000
     48 HN2         1.9130   -0.3270   -0.6340 hn        1 I47      0.328700
@<TRIPOS>BOND
     1    1    2 1   
     2    1    5 2   
     3    1    6 1   
     4    2    3 1   
     5    2   48 1   
     6    3    4 2   
     7    4    5 1   
     8    4    8 1   
     9    5    7 1   
    10    6    9 ar  
    11    6   13 ar  
    12    7   14 ar  
    13    7   18 ar  
    14    8   19 1   
    15    8   23 1   
    16    8   29 1   
    17    9   10 ar  
    18    9   30 1   
    19   10   11 ar  
    20   10   31 1   
    21   11   12 ar  
    22   11   24 1   
    23   12   13 ar  
    24   12   32 1   
    25   13   33 1   
    26   14   15 ar  
    27   14   34 1   
    28   15   16 ar  
    29   15   35 1   
    30   16   17 ar  
    31   17   18 ar  
    32   17   36 1   
    33   19   20 1   
    34   19   37 1   
    35   19   38 1   
    36   20   21 1   
    37   20   39 1   
    38   20   40 1   
    39   21   22 1   
    40   21   25 1   
    41   22   23 1   
    42   22   41 1   
    43   22   42 1   
    44   23   43 1   
    45   23   44 1   
    46   25   26 2   
    47   25   27 1   
    48   27   28 1   
    49   27   45 1   
    50   27   46 1   
    51   28   47 1   
@<TRIPOS>SUBSTRUCTURE
     1 I47         1 TEMP              0 ****  ****    0 ROOT
