@<TRIPOS>MOLECULE
I47
   48    51     1     0     0
SMALL
bcc


@<TRIPOS>ATOM
      1 C1         -0.1050   -0.1390    0.0760 cc        1 I47     -0.030300
      2 N2          1.2860   -0.3100    0.1380 na        1 I47     -0.004600
      3 N3          1.7420   -0.3750    1.3850 nc        1 I47     -0.501800
      4 C4          0.6640   -0.2580    2.2150 cd        1 I47      0.348600
      5 C5         -0.5430   -0.1070    1.4190 cd        1 I47     -0.313800
      6 C6         -0.8320   -0.0090   -1.1730 ca        1 I47     -0.038000
      7 C7         -1.9050    0.0200    1.9050 ca        1 I47      0.529800
      8 C8          0.7310   -0.2840    3.7010 c3        1 I47     -0.084000
      9 C9         -1.8070    0.9890   -1.3150 ca        1 I47     -0.102000
     10 C10        -2.5080    1.1230   -2.5100 ca        1 I47     -0.125000
     11 C11        -2.2320    0.2590   -3.5750 ca        1 I47      0.026400
     12 C12        -1.2600   -0.7390   -3.4450 ca        1 I47     -0.125000
     13 C13        -0.5620   -0.8690   -2.2470 ca        1 I47     -0.102000
     14 C14        -2.8870   -0.9050    1.4720 ca        1 I47     -0.350600
     15 C15        -4.1910   -0.7510    1.9760 ca        1 I47      0.424200
     16 N16        -4.5220    0.2300    2.8400 nb        1 I47     -0.692000
     17 C17        -3.5080    1.0650    3.1950 ca        1 I47      0.624900
     18 N18        -2.2170    1.0190    2.7790 nb        1 I47     -0.692000
     19 C19         1.6370   -1.3950    4.2180 c3        1 I47     -0.101400
     20 C20         1.7020   -1.3620    5.7470 c3        1 I47      0.079000
     21 N21         2.0600   -0.0670    6.2960 n         1 I47     -0.460800
     22 C22         1.2750    1.0260    5.7670 c3        1 I47      0.079000
     23 C23         1.1970    1.0640    4.2380 c3        1 I47     -0.101400
     24 Cl24       -3.0840    0.4200   -5.0350 cl        1 I47     -0.081400
     25 C25         3.3510    0.1170    6.8030 c         1 I47      0.649100
     26 O26         4.1060   -0.8530    6.9830 o         1 I47     -0.563100
     27 C27         3.7670    1.5270    7.2140 c3        1 I47      0.061400
     28 O28         5.0230    1.4120    7.8550 oh        1 I47     -0.563800
     29 H8         -0.3120   -0.4760    4.0860 hc        1 I47      0.064700
     30 H9         -2.0170    1.6700   -0.4740 ha        1 I47      0.147000
     31 H10        -3.2720    1.9090   -2.6140 ha        1 I47      0.154000
     32 H12        -1.0460   -1.4190   -4.2840 ha        1 I47      0.154000
     33 H13         0.1950   -1.6610   -2.1450 ha        1 I47      0.147000
     34 H14        -2.6340   -1.7100    0.7730 ha        1 I47      0.161000
     35 H15        -5.0030   -1.4400    1.6800 h4        1 I47      0.031100
     36 H17        -3.7640    1.8790    3.9060 h5        1 I47      0.055100
     37 H19         1.2390   -2.3910    3.8990 hc        1 I47      0.061700
     38 H19A        2.6680   -1.2850    3.7930 hc        1 I47      0.061700
     39 H20         2.4420   -2.1350    6.1000 h1        1 I47      0.058200
     40 H20A        0.6880   -1.6260    6.1620 h1        1 I47      0.058200
     41 H22         0.2280    0.9030    6.1730 h1        1 I47      0.058200
     42 H22A        1.6640    2.0140    6.1340 h1        1 I47      0.058200
     43 H23         0.4720    1.8630    3.9360 hc        1 I47      0.061700
     44 H23A        2.1980    1.3200    3.8050 hc        1 I47      0.061700
     45 H27         3.8580    2.1730    6.2990 h1        1 I47      0.043700
     46 H27A        3.0110    1.9650    7.9200 h1        1 I47      0.043700
     47 HO28        5.2660    2.3060    8.1250 ho        1 I47      0.401000
     48 HN2         1.9110   -0.3440   -0.6330 hn        1 I47      0.328700
@<TRIPOS>BOND
     1    1    2 1   
     2    1    5 2   
     3    1    6 1   
     4    2    3 1   
     5    2   48 1   
     6    3    4 2   
     7    4    5 1   
     8    4    8 1   
     9    5    7 1   
    10    6    9 ar  
    11    6   13 ar  
    12    7   14 ar  
    13    7   18 ar  
    14    8   19 1   
    15    8   23 1   
    16    8   29 1   
    17    9   10 ar  
    18    9   30 1   
    19   10   11 ar  
    20   10   31 1   
    21   11   12 ar  
    22   11   24 1   
    23   12   13 ar  
    24   12   32 1   
    25   13   33 1   
    26   14   15 ar  
    27   14   34 1   
    28   15   16 ar  
    29   15   35 1   
    30   16   17 ar  
    31   17   18 ar  
    32   17   36 1   
    33   19   20 1   
    34   19   37 1   
    35   19   38 1   
    36   20   21 1   
    37   20   39 1   
    38   20   40 1   
    39   21   22 1   
    40   21   25 1   
    41   22   23 1   
    42   22   41 1   
    43   22   42 1   
    44   23   43 1   
    45   23   44 1   
    46   25   26 2   
    47   25   27 1   
    48   27   28 1   
    49   27   45 1   
    50   27   46 1   
    51   28   47 1   
@<TRIPOS>SUBSTRUCTURE
     1 I47         1 TEMP              0 ****  ****    0 ROOT
