@<TRIPOS>MOLECULE
I48
   49    51     1     0     0
SMALL
bcc


@<TRIPOS>ATOM
      1 N1          1.2400    2.5690    1.6050 na        1 I48     -0.169100
      2 C2          2.5780    2.4160    1.8890 ca        1 I48      0.012200
      3 C3          3.0190    1.5030    2.8190 ca        1 I48     -0.239500
      4 C4          2.0760    0.6730    3.5300 ca        1 I48      0.300600
      5 C5          0.6870    0.8810    3.2240 ca        1 I48     -0.239500
      6 C6          0.3160    1.8120    2.2740 ca        1 I48      0.012200
      7 NA1         2.5120   -0.2480    4.4110 nh        1 I48     -0.681600
      8 CA2         1.6430   -1.0260    5.2610 c3        1 I48      0.153800
      9 CA3         2.3260   -2.2380    5.9180 c3        1 I48      0.121400
     10 OA4         3.6850   -2.0200    6.2750 os        1 I48     -0.333900
     11 C21         3.9020   -0.9860    7.1840 ca        1 I48      0.107100
     12 C22         4.7860    0.0090    6.7510 ca        1 I48     -0.223000
     13 C23         5.0740    1.0930    7.6040 ca        1 I48      0.202600
     14 C24         4.5210    1.0990    8.9050 ca        1 I48     -0.178000
     15 C25         3.6820    0.0680    9.3330 ca        1 I48     -0.013300
     16 C26         3.3500   -0.9800    8.4640 ca        1 I48     -0.182000
     17 C27         3.1480    0.0790   10.7150 c3        1 I48     -0.066800
     18 NB1         5.8750    2.1590    7.1700 nh        1 I48     -0.771500
     19 SB2         6.2190    2.6020    5.6310 sy        1 I48      1.534200
     20 OBA         6.0670    3.9980    5.5260 o         1 I48     -0.673800
     21 OBB         5.4320    1.8560    4.7120 o         1 I48     -0.673800
     22 C31         7.8250    2.1940    5.4720 ca        1 I48     -0.419500
     23 C32         8.2250    0.8690    5.2450 ca        1 I48     -0.010500
     24 C33         9.5670    0.5410    5.0870 ca        1 I48     -0.150500
     25 C34        10.5390    1.5410    5.1540 ca        1 I48     -0.045000
     26 C35        10.1610    2.8660    5.3760 ca        1 I48     -0.150500
     27 C36         8.8160    3.1870    5.5340 ca        1 I48     -0.010500
     28 H1          0.9450    3.2400    0.9240 hn        1 I48      0.331700
     29 H2          3.2810    3.0700    1.3350 h4        1 I48      0.197500
     30 H3          4.1030    1.4380    3.0470 ha        1 I48      0.205500
     31 H5         -0.0990    0.3090    3.7410 ha        1 I48      0.205500
     32 H6         -0.7500    1.9840    2.0170 h4        1 I48      0.197500
     33 HA1         3.4980   -0.2970    4.6050 hn        1 I48      0.487800
     34 HA21        0.7720   -1.4160    4.6590 h1        1 I48      0.072200
     35 HA22        1.2380   -0.3510    6.0710 h1        1 I48      0.072200
     36 HA31        2.3930   -3.1010    5.2000 h1        1 I48      0.081700
     37 HA32        1.7230   -2.5280    6.8190 h1        1 I48      0.081700
     38 H22         5.2480   -0.0900    5.7560 ha        1 I48      0.158000
     39 H24         4.7500    1.9220    9.6010 ha        1 I48      0.149000
     40 H26         2.6800   -1.7870    8.7910 ha        1 I48      0.151000
     41 H271        3.8800   -0.4150   11.4050 hc        1 I48      0.058367
     42 H272        2.1800   -0.4770   10.7770 hc        1 I48      0.058367
     43 H273        2.9810    1.1240   11.0730 hc        1 I48      0.058367
     44 HB1         6.2060    2.7230    7.9230 hn        1 I48      0.462800
     45 H32         7.4590    0.0760    5.1840 ha        1 I48      0.151500
     46 H33         9.8630   -0.5050    4.9100 ha        1 I48      0.153500
     47 H34        11.6040    1.2840    5.0310 ha        1 I48      0.152000
     48 H35        10.9240    3.6580    5.4260 ha        1 I48      0.153500
     49 H36         8.5170    4.2390    5.6990 ha        1 I48      0.151500
@<TRIPOS>BOND
     1    1    2 1   
     2    1    6 2   
     3    1   28 1   
     4    2    3 ar  
     5    2   29 1   
     6    3    4 ar  
     7    3   30 1   
     8    4    5 ar  
     9    4    7 1   
    10    5    6 ar  
    11    5   31 1   
    12    6   32 1   
    13    7    8 1   
    14    7   33 1   
    15    8    9 1   
    16    8   34 1   
    17    8   35 1   
    18    9   10 1   
    19    9   36 1   
    20    9   37 1   
    21   10   11 1   
    22   11   12 ar  
    23   11   16 ar  
    24   12   13 ar  
    25   12   38 1   
    26   13   14 ar  
    27   13   18 1   
    28   14   15 ar  
    29   14   39 1   
    30   15   16 ar  
    31   15   17 1   
    32   16   40 1   
    33   17   41 1   
    34   17   42 1   
    35   17   43 1   
    36   18   19 1   
    37   18   44 1   
    38   19   20 2   
    39   19   21 2   
    40   19   22 1   
    41   22   23 ar  
    42   22   27 ar  
    43   23   24 ar  
    44   23   45 1   
    45   24   25 ar  
    46   24   46 1   
    47   25   26 ar  
    48   25   47 1   
    49   26   27 ar  
    50   26   48 1   
    51   27   49 1   
@<TRIPOS>SUBSTRUCTURE
     1 I48         1 TEMP              0 ****  ****    0 ROOT
