@<TRIPOS>MOLECULE
I48
   49    43     1     0     0
SMALL
bcc


@<TRIPOS>ATOM
      1 N1          2.8210    0.5120   -6.8550 n2        1 I48     -0.167000
      2 C2          1.5660    0.3960   -6.3180 c1        1 I48     -0.102500
      3 C3          1.4130    0.1800   -4.9590 c1        1 I48     -0.102500
      4 C4          2.5080    0.0820   -4.1570 c1        1 I48      0.217000
      5 C5          3.7350    0.1950   -4.6820 c1        1 I48     -0.247000
      6 C6          3.8930    0.4150   -6.0660 c1        1 I48      0.049000
      7 NA1         2.3530   -0.0570   -2.7720 n3        1 I48     -0.233000
      8 CA2         3.1710   -0.9870   -2.0700 c3        1 I48     -0.055000
      9 CA3         2.4590   -1.4320   -0.7810 c3        1 I48     -0.034000
     10 OA4         2.8900   -0.5990    0.3280 os        1 I48     -0.246000
     11 C21         1.9620   -0.5700    1.4180 c2        1 I48      0.085000
     12 C22         0.7370    0.0610    1.2650 c2        1 I48     -0.203000
     13 C23        -0.1120    0.1820    2.3350 c1        1 I48      0.136000
     14 C24         0.2610   -0.3380    3.6010 c1        1 I48     -0.201000
     15 C25         1.4840   -0.9690    3.7580 c1        1 I48      0.007000
     16 C26         2.3390   -1.0910    2.6820 c1        1 I48     -0.221000
     17 C27         1.8750   -1.5610    5.1200 c3        1 I48     -0.190000
     18 NB1        -1.3180    0.9230    2.2050 n3        1 I48     -0.820000
     19 SB2        -2.6390    0.5790    3.2300 s4        1 I48      2.084800
     20 OBA        -2.5800    1.3160    4.3800 o         1 I48     -0.534400
     21 OBB        -2.5610   -0.7230    3.7400 o         1 I48     -0.534400
     22 C31        -4.1620    0.8510    2.3780 c1        1 I48     -0.853000
     23 C32        -5.2140   -0.0130    2.5610 c2        1 I48     -0.009000
     24 C33        -6.4170    0.2000    1.8910 c1        1 I48     -0.156000
     25 C34        -6.5570    1.2980    1.0290 c1        1 I48     -0.102500
     26 C35        -5.4790    2.1870    0.8390 c1        1 I48     -0.102500
     27 C36        -4.3000    1.9770    1.4950 c1        1 I48     -0.016000
     28 H1          2.9260    0.6550   -7.7560 hn        1 I48      0.287000
     29 H2          0.7720    0.4670   -6.8980 ha        1 I48      0.171250
     30 H3          0.5450    0.1000   -4.5870 ha        1 I48      0.171250
     31 H5          4.4910    0.1260   -4.1270 ha        1 I48      0.188000
     32 H6          4.7980    0.4980   -6.4510 ha        1 I48      0.201000
     33 HA1         1.6590    0.3110   -2.3680 hn        1 I48      0.275000
     34 HA21        4.0210   -0.5670   -1.8440 h1        1 I48      0.118500
     35 HA22        3.3340   -1.7650   -2.6410 h1        1 I48      0.118500
     36 HA31        1.5200   -1.3440   -0.8930 h1        1 I48      0.111000
     37 HA32        2.6820   -2.3830   -0.5900 h1        1 I48      0.111000
     38 H22         0.4700    0.4330    0.3660 ha        1 I48      0.145000
     39 H24        -0.3190   -0.2530    4.3280 ha        1 I48      0.180000
     40 H26         3.2570   -1.5620    2.7970 ha        1 I48      0.137000
     41 H271        1.1120   -1.5870    5.6860 hc        1 I48      0.095667
     42 H272        2.2270   -2.4880    4.9900 hc        1 I48      0.095667
     43 H273        2.5520   -1.0130    5.5230 hc        1 I48      0.095667
     44 HB1        -1.4120    1.4850    1.5530 hn        1 I48      0.243000
     45 H32        -5.1230   -0.7530    3.1430 ha        1 I48      0.157000
     46 H33        -7.1800   -0.4270    2.0250 ha        1 I48      0.149000
     47 H34        -7.3530    1.4370    0.5870 ha        1 I48      0.171250
     48 H35        -5.5820    3.0050    0.1970 ha        1 I48      0.171250
     49 H36        -3.5250    2.6110    1.3620 ha        1 I48      0.158000
@<TRIPOS>BOND
     1    1    6 1   
     2    1   28 1   
     3    2    3 1   
     4    2   29 1   
     5    3   30 1   
     6    4    5 1   
     7    4    7 1   
     8    5   31 1   
     9    6   32 1   
    10    7    8 1   
    11    7   33 1   
    12    8    9 1   
    13    8   34 1   
    14    8   35 1   
    15    9   10 1   
    16    9   36 1   
    17    9   37 1   
    18   10   11 1   
    19   11   12 1   
    20   11   16 1   
    21   12   13 1   
    22   12   38 1   
    23   13   18 1   
    24   14   15 1   
    25   14   39 1   
    26   15   17 1   
    27   16   40 1   
    28   17   41 1   
    29   17   42 1   
    30   17   43 1   
    31   18   19 1   
    32   18   44 1   
    33   19   20 1   
    34   19   21 1   
    35   22   23 1   
    36   22   27 1   
    37   23   24 1   
    38   23   45 1   
    39   24   46 1   
    40   25   26 1   
    41   25   47 1   
    42   26   48 1   
    43   27   49 1   
@<TRIPOS>SUBSTRUCTURE
     1 I48         1 TEMP              0 ****  ****    0 ROOT
