@<TRIPOS>MOLECULE
I48
   49    51     1     0     0
SMALL
bcc


@<TRIPOS>ATOM
      1 N1          1.2480    2.6480    1.6350 na        1 I48     -0.169100
      2 C2          2.5850    2.4800    1.9130 ca        1 I48      0.012200
      3 C3          3.0210    1.5510    2.8300 ca        1 I48     -0.239500
      4 C4          2.0720    0.7200    3.5320 ca        1 I48      0.300600
      5 C5          0.6840    0.9440    3.2320 ca        1 I48     -0.239500
      6 C6          0.3190    1.8910    2.2960 ca        1 I48      0.012200
      7 NA1         2.5020   -0.2170    4.3990 nu        1 I48     -0.681600
      8 CA2         1.6280   -0.9990    5.2400 c3        1 I48      0.153800
      9 CA3         2.3020   -2.2230    5.8820 c3        1 I48      0.121400
     10 OA4         3.6630   -2.0210    6.2400 os        1 I48     -0.333900
     11 C21         3.8900   -0.9990    7.1610 ca        1 I48      0.107100
     12 C22         4.7800   -0.0050    6.7390 ca        1 I48     -0.223000
     13 C23         5.0780    1.0660    7.6040 ca        1 I48      0.202600
     14 C24         4.5260    1.0610    8.9060 ca        1 I48     -0.178000
     15 C25         3.6790    0.0310    9.3220 ca        1 I48     -0.013300
     16 C26         3.3380   -1.0030    8.4410 ca        1 I48     -0.182000
     17 C27         3.1460    0.0300   10.7050 c3        1 I48     -0.066800
     18 NB1         5.8870    2.1310    7.1820 nu        1 I48     -0.771500
     19 SB2         6.2340    2.5890    5.6490 sy        1 I48      1.533200
     20 OBA         6.0940    3.9870    5.5600 o         1 I48     -0.673800
     21 OBB         5.4410    1.8600    4.7210 o         1 I48     -0.673800
     22 C31         7.8370    2.1690    5.4840 ca        1 I48     -0.419500
     23 C32         8.2250    0.8430    5.2420 ca        1 I48     -0.010500
     24 C33         9.5650    0.5060    5.0800 ca        1 I48     -0.150500
     25 C34        10.5450    1.4970    5.1580 ca        1 I48     -0.045000
     26 C35        10.1780    2.8230    5.3950 ca        1 I48     -0.150500
     27 C36         8.8360    3.1530    5.5570 ca        1 I48     -0.010500
     28 H1          0.9580    3.3310    0.9630 hn        1 I48      0.331700
     29 H2          3.2930    3.1350    1.3660 h4        1 I48      0.197500
     30 H3          4.1050    1.4740    3.0540 ha        1 I48      0.205500
     31 H5         -0.1050    0.3720    3.7440 ha        1 I48      0.205500
     32 H6         -0.7450    2.0760    2.0430 h4        1 I48      0.197500
     33 HA1         3.4880   -0.2770    4.5900 hn        1 I48      0.487800
     34 HA21        0.7540   -1.3740    4.6350 h1        1 I48      0.072200
     35 HA22        1.2300   -0.3300    6.0600 h1        1 I48      0.072200
     36 HA31        1.6980   -2.5200    6.7800 h1        1 I48      0.081700
     37 HA32        2.3630   -3.0780    5.1540 h1        1 I48      0.081700
     38 H22         5.2410   -0.0960    5.7420 ha        1 I48      0.158000
     39 H24         4.7620    1.8740    9.6110 ha        1 I48      0.149000
     40 H26         2.6620   -1.8090    8.7600 ha        1 I48      0.151000
     41 H271        2.1740   -0.5180   10.7620 hc        1 I48      0.058367
     42 H272        3.8740   -0.4780   11.3880 hc        1 I48      0.058367
     43 H273        2.9880    1.0730   11.0760 hc        1 I48      0.058367
     44 HB1         6.2220    2.6840    7.9420 hn        1 I48      0.462800
     45 H32         7.4530    0.0580    5.1730 ha        1 I48      0.151500
     46 H33         9.8510   -0.5400    4.8910 ha        1 I48      0.153500
     47 H34        11.6080    1.2330    5.0330 ha        1 I48      0.152000
     48 H35        10.9480    3.6080    5.4540 ha        1 I48      0.153500
     49 H36         8.5460    4.2050    5.7340 ha        1 I48      0.151500
@<TRIPOS>BOND
     1    1    2 1   
     2    1    6 2   
     3    1   28 1   
     4    2    3 ar  
     5    2   29 1   
     6    3    4 ar  
     7    3   30 1   
     8    4    5 ar  
     9    4    7 1   
    10    5    6 ar  
    11    5   31 1   
    12    6   32 1   
    13    7    8 1   
    14    7   33 1   
    15    8    9 1   
    16    8   34 1   
    17    8   35 1   
    18    9   10 1   
    19    9   36 1   
    20    9   37 1   
    21   10   11 1   
    22   11   12 ar  
    23   11   16 ar  
    24   12   13 ar  
    25   12   38 1   
    26   13   14 ar  
    27   13   18 1   
    28   14   15 ar  
    29   14   39 1   
    30   15   16 ar  
    31   15   17 1   
    32   16   40 1   
    33   17   41 1   
    34   17   42 1   
    35   17   43 1   
    36   18   19 1   
    37   18   44 1   
    38   19   20 2   
    39   19   21 2   
    40   19   22 1   
    41   22   23 ar  
    42   22   27 ar  
    43   23   24 ar  
    44   23   45 1   
    45   24   25 ar  
    46   24   46 1   
    47   25   26 ar  
    48   25   47 1   
    49   26   27 ar  
    50   26   48 1   
    51   27   49 1   
@<TRIPOS>SUBSTRUCTURE
     1 I48         1 TEMP              0 ****  ****    0 ROOT
