@<TRIPOS>MOLECULE
I48
   49    51     1     0     0
SMALL
bcc


@<TRIPOS>ATOM
      1 N1         -4.9610   -1.7470   -2.2160 na        1 I48     -0.169100
      2 C2         -3.8090   -2.2060   -1.6210 ca        1 I48      0.012200
      3 C3         -3.1590   -1.4800   -0.6490 ca        1 I48     -0.239500
      4 C4         -3.6770   -0.2020   -0.2260 ca        1 I48      0.300600
      5 C5         -4.8690    0.2540   -0.8890 ca        1 I48     -0.239500
      6 C6         -5.4710   -0.5300   -1.8530 ca        1 I48      0.012200
      7 NA1        -3.0630    0.4890    0.7540 nh        1 I48     -0.681600
      8 CA2        -3.4300    1.8280    1.1490 c3        1 I48      0.153800
      9 CA3        -2.8310    2.2730    2.4940 c3        1 I48      0.121400
     10 OA4        -1.5230    1.7760    2.7450 os        1 I48     -0.333900
     11 C21        -0.5560    2.1500    1.8130 ca        1 I48      0.107100
     12 C22         0.1230    1.0900    1.2030 ca        1 I48     -0.223000
     13 C23         1.1240    1.3690    0.2520 ca        1 I48      0.202600
     14 C24         1.4660    2.7180    0.0020 ca        1 I48     -0.178000
     15 C25         0.8080    3.7590    0.6610 ca        1 I48     -0.013300
     16 C26        -0.2270    3.4820    1.5640 ca        1 I48     -0.182000
     17 C27         1.2140    5.1620    0.4100 c3        1 I48     -0.066800
     18 NB1         1.7570    0.3350   -0.4530 nh        1 I48     -0.771500
     19 SB2         1.2310   -1.1970   -0.6870 sy        1 I48      1.534200
     20 OBA         1.4110   -1.5280   -2.0430 o         1 I48     -0.673800
     21 OBB        -0.1050   -1.3410   -0.2210 o         1 I48     -0.673800
     22 C31         2.2650   -2.0980    0.2580 ca        1 I48     -0.419500
     23 C32         2.0980   -2.1860    1.6480 ca        1 I48     -0.010500
     24 C33         2.9510   -2.9620    2.4250 ca        1 I48     -0.150500
     25 C34         3.9930   -3.6680    1.8210 ca        1 I48     -0.045000
     26 C35         4.1730   -3.5950    0.4390 ca        1 I48     -0.150500
     27 C36         3.3160   -2.8170   -0.3330 ca        1 I48     -0.010500
     28 H1         -5.4150   -2.2950   -2.9200 hn        1 I48      0.331700
     29 H2         -3.4270   -3.1880   -1.9680 h4        1 I48      0.197500
     30 H3         -2.2110   -1.8680   -0.2220 ha        1 I48      0.205500
     31 H5         -5.3140    1.2310   -0.6450 ha        1 I48      0.205500
     32 H6         -6.3950   -0.2010   -2.3720 h4        1 I48      0.197500
     33 HA1        -2.2060    0.1230    1.1330 hn        1 I48      0.487800
     34 HA21       -4.5520    1.9040    1.2380 h1        1 I48      0.072200
     35 HA22       -3.0900    2.5430    0.3430 h1        1 I48      0.072200
     36 HA31       -3.4230    1.8590    3.3560 h1        1 I48      0.081700
     37 HA32       -2.8400    3.3950    2.5220 h1        1 I48      0.081700
     38 H22        -0.1330    0.0590    1.4960 ha        1 I48      0.158000
     39 H24         2.2620    2.9630   -0.7200 ha        1 I48      0.149000
     40 H26        -0.7550    4.2980    2.0770 ha        1 I48      0.151000
     41 H271        1.5650    5.2970   -0.6420 hc        1 I48      0.058367
     42 H272        0.3650    5.8660    0.5940 hc        1 I48      0.058367
     43 H273        2.0530    5.4390    1.0980 hc        1 I48      0.058367
     44 HB1         2.5980    0.6330   -0.8990 hn        1 I48      0.462800
     45 H32         1.2710   -1.6340    2.1290 ha        1 I48      0.151500
     46 H33         2.8050   -3.0180    3.5150 ha        1 I48      0.153500
     47 H34         4.6720   -4.2810    2.4350 ha        1 I48      0.152000
     48 H35         4.9910   -4.1540   -0.0420 ha        1 I48      0.153500
     49 H36         3.4540   -2.7700   -1.4290 ha        1 I48      0.151500
@<TRIPOS>BOND
     1    1    2 1   
     2    1    6 2   
     3    1   28 1   
     4    2    3 ar  
     5    2   29 1   
     6    3    4 ar  
     7    3   30 1   
     8    4    5 ar  
     9    4    7 1   
    10    5    6 ar  
    11    5   31 1   
    12    6   32 1   
    13    7    8 1   
    14    7   33 1   
    15    8    9 1   
    16    8   34 1   
    17    8   35 1   
    18    9   10 1   
    19    9   36 1   
    20    9   37 1   
    21   10   11 1   
    22   11   12 ar  
    23   11   16 ar  
    24   12   13 ar  
    25   12   38 1   
    26   13   14 ar  
    27   13   18 1   
    28   14   15 ar  
    29   14   39 1   
    30   15   16 ar  
    31   15   17 1   
    32   16   40 1   
    33   17   41 1   
    34   17   42 1   
    35   17   43 1   
    36   18   19 1   
    37   18   44 1   
    38   19   20 2   
    39   19   21 2   
    40   19   22 1   
    41   22   23 ar  
    42   22   27 ar  
    43   23   24 ar  
    44   23   45 1   
    45   24   25 ar  
    46   24   46 1   
    47   25   26 ar  
    48   25   47 1   
    49   26   27 ar  
    50   26   48 1   
    51   27   49 1   
@<TRIPOS>SUBSTRUCTURE
     1 I48         1 TEMP              0 ****  ****    0 ROOT
