@<TRIPOS>MOLECULE
I48
   51    52     1     0     0
SMALL
bcc


@<TRIPOS>ATOM
      1 N1         -2.2370    1.3720    0.7020 na        1 I48     -0.052100
      2 C2         -1.9420    0.0440    0.7960 ca        1 I48      0.032700
      3 C3         -0.8560   -0.4010    1.5710 ca        1 I48     -0.129500
      4 C4         -0.0670    0.5460    2.2530 ca        1 I48      0.088600
      5 C5         -0.3860    1.9140    2.1460 ca        1 I48     -0.129500
      6 C6         -1.4840    2.3000    1.3570 ca        1 I48      0.032700
      7 NA1         1.0820    0.1120    3.0520 n4        1 I48     -0.657400
      8 CA2         0.7350   -0.1070    4.5050 c3        1 I48      0.105800
      9 CA3         1.8960   -0.7520    5.2690 c3        1 I48      0.102400
     10 OA4         3.0050    0.1400    5.1670 os        1 I48     -0.381900
     11 C21         4.0060   -0.0700    6.1260 ca        1 I48      0.114100
     12 C22         4.7480    1.0630    6.4790 ca        1 I48     -0.160000
     13 C23         5.8100    0.9090    7.3940 ca        1 I48      0.071600
     14 C24         6.0780   -0.3570    7.9480 ca        1 I48     -0.138000
     15 C25         5.3220   -1.4740    7.5770 ca        1 I48      0.012700
     16 C26         4.2770   -1.3330    6.6570 ca        1 I48     -0.175000
     17 C27         5.6390   -2.8000    8.1570 c3        1 I48     -0.080800
     18 NB1         6.6350    2.0280    7.7440 nh        1 I48     -0.878200
     19 SB2         8.6440    2.2730    6.4010 s4        1 I48      1.679300
     20 OBA         8.0050    3.2020    5.6410 o         1 I48     -0.433400
     21 OBB         8.7050    0.9660    6.0450 o         1 I48     -0.433400
     22 C31         9.5570    2.7690    7.5530 ca        1 I48     -0.628500
     23 C32        10.3770    1.8680    8.2890 ca        1 I48      0.027500
     24 C33        11.2430    2.3160    9.2700 ca        1 I48     -0.147000
     25 C34        11.3310    3.6840    9.5610 ca        1 I48      0.047000
     26 C35        10.5330    4.5980    8.8570 ca        1 I48     -0.147000
     27 C36         9.6670    4.1510    7.8760 ca        1 I48      0.027500
     28 H1         -3.0270    1.6730    0.1320 hn        1 I48      0.388700
     29 H2         -2.5900   -0.6760    0.2370 h4        1 I48      0.260000
     30 H3         -0.6590   -1.4910    1.6090 ha        1 I48      0.225000
     31 H5          0.1950    2.7090    2.6540 ha        1 I48      0.225000
     32 H6         -1.7690    3.3760    1.2440 h4        1 I48      0.260000
     33 HA1         1.8350    0.8210    3.0070 hn        1 I48      0.489300
     34 HA21        0.4890    0.8990    4.9510 hx        1 I48      0.127200
     35 HA22       -0.1650   -0.7840    4.5640 hx        1 I48      0.127200
     36 HA31        1.5740   -0.8870    6.3400 h1        1 I48      0.101200
     37 HA32        2.1770   -1.7480    4.8300 h1        1 I48      0.101200
     38 H22         4.5000    2.0400    6.0400 ha        1 I48      0.156000
     39 H24         6.8880   -0.4910    8.6850 ha        1 I48      0.161000
     40 H26         3.6910   -2.2170    6.3670 ha        1 I48      0.152000
     41 H271        5.7890   -2.7220    9.2640 hc        1 I48      0.075700
     42 H272        6.5850   -3.1970    7.7050 hc        1 I48      0.075700
     43 H273        4.8220   -3.5390    7.9640 hc        1 I48      0.075700
     44 HB1         6.9000    1.9690    8.7150 hn        1 I48      0.410300
     45 H32        10.3290    0.7870    8.0550 ha        1 I48      0.172000
     46 H33        11.8770    1.5960    9.8210 ha        1 I48      0.191500
     47 H34        12.0310    4.0430   10.3390 ha        1 I48      0.192000
     48 H35        10.6050    5.6770    9.0820 ha        1 I48      0.191500
     49 H36         9.0540    4.8810    7.3140 ha        1 I48      0.172000
     50 HA12        1.4580   -0.7680    2.6620 hn        1 I48      0.489300
     51 HB12        6.1330    2.8910    7.5930 hn        1 I48      0.410300
@<TRIPOS>BOND
     1    1    2 1   
     2    1    6 2   
     3    1   28 1   
     4    2    3 ar  
     5    2   29 1   
     6    3    4 ar  
     7    3   30 1   
     8    4    5 ar  
     9    4    7 1   
    10    5    6 ar  
    11    5   31 1   
    12    6   32 1   
    13    7    8 1   
    14    7   33 1   
    15    7   50 1   
    16    8    9 1   
    17    8   34 1   
    18    8   35 1   
    19    9   10 1   
    20    9   36 1   
    21    9   37 1   
    22   10   11 1   
    23   11   12 ar  
    24   11   16 ar  
    25   12   13 ar  
    26   12   38 1   
    27   13   14 ar  
    28   13   18 1   
    29   14   15 ar  
    30   14   39 1   
    31   15   16 ar  
    32   15   17 1   
    33   16   40 1   
    34   17   41 1   
    35   17   42 1   
    36   17   43 1   
    37   18   44 1   
    38   18   51 1   
    39   19   20 1   
    40   19   21 1   
    41   19   22 1   
    42   22   23 ar  
    43   22   27 ar  
    44   23   24 ar  
    45   23   45 1   
    46   24   25 ar  
    47   24   46 1   
    48   25   26 ar  
    49   25   47 1   
    50   26   27 ar  
    51   26   48 1   
    52   27   49 1   
@<TRIPOS>SUBSTRUCTURE
     1 I48         1 TEMP              0 ****  ****    0 ROOT
