@<TRIPOS>MOLECULE
I4A
   49    52     1     0     0
SMALL
bcc


@<TRIPOS>ATOM
      1 O27        -0.4390    0.1190   -0.4220 oh        1 I4A     -0.622100
      2 C25         0.9260    0.2490   -0.3810 c         1 I4A      0.660700
      3 O26         1.4370    0.0450    0.7260 o         1 I4A     -0.555000
      4 C4          1.5480    0.5660   -1.6680 ca        1 I4A     -0.148600
      5 C6          2.5920    1.4980   -1.8280 ca        1 I4A      0.020800
      6 C7          3.2310    1.6160   -3.1270 ca        1 I4A     -0.098800
      7 C9          4.2850    2.5990   -2.9860 cc        1 I4A     -0.123400
      8 C10         5.2150    2.9960   -4.0540 c3        1 I4A     -0.005200
      9 C12         6.6140    3.2780   -3.5400 c3        1 I4A     -0.076400
     10 C14         6.7720    4.6590   -2.9420 c3        1 I4A     -0.077400
     11 C13         5.6150    5.1010   -2.0730 c3        1 I4A     -0.073400
     12 C11         5.1700    4.0560   -1.0660 c3        1 I4A     -0.021200
     13 C8          4.2480    3.0610   -1.6710 cd        1 I4A     -0.048300
     14 C3          2.7990    0.8580   -4.2080 ca        1 I4A     -0.052000
     15 C2          1.7290   -0.0140   -4.0370 ca        1 I4A     -0.173000
     16 C1          1.1170   -0.1520   -2.7890 ca        1 I4A     -0.061000
     17 N5          3.2390    2.3740   -0.9430 na        1 I4A     -0.058400
     18 C15         2.7260    2.8320    0.3230 c3        1 I4A      0.065600
     19 C16         1.5570    3.7750    0.2350 ca        1 I4A     -0.127300
     20 C17         0.2710    3.3050    0.5180 ca        1 I4A     -0.086000
     21 C18        -0.8280    4.1610    0.4210 ca        1 I4A     -0.139600
     22 C22        -2.2160    3.6710    0.6630 c         1 I4A      0.667700
     23 N24        -2.5290    2.3960    0.2530 n         1 I4A     -0.673000
     24 O23        -3.0790    4.3810    1.2210 o         1 I4A     -0.609100
     25 C19        -0.6400    5.5070    0.0880 ca        1 I4A     -0.069000
     26 C20         0.6450    5.9790   -0.1800 ca        1 I4A     -0.140000
     27 C21         1.7380    5.1150   -0.1180 ca        1 I4A     -0.093000
     28 H10         5.2660    2.1710   -4.8160 hc        1 I4A      0.048200
     29 H10A        4.8160    3.9070   -4.5820 hc        1 I4A      0.048200
     30 H12         6.8850    2.5050   -2.7730 hc        1 I4A      0.044700
     31 H12A        7.3410    3.1710   -4.3890 hc        1 I4A      0.044700
     32 H14         7.7180    4.6790   -2.3380 hc        1 I4A      0.040200
     33 H14A        6.8930    5.4090   -3.7690 hc        1 I4A      0.040200
     34 H13         5.9250    6.0240   -1.5130 hc        1 I4A      0.046700
     35 H13A        4.7440    5.3830   -2.7220 hc        1 I4A      0.046700
     36 H11         6.0660    3.5110   -0.6580 hc        1 I4A      0.055700
     37 H11A        4.6840    4.5860   -0.2030 hc        1 I4A      0.055700
     38 H3          3.2980    0.9530   -5.1840 ha        1 I4A      0.140000
     39 H2          1.3620   -0.6080   -4.8860 ha        1 I4A      0.139000
     40 H1          0.2740   -0.8530   -2.6720 ha        1 I4A      0.145000
     41 H15         3.5670    3.3430    0.8750 h1        1 I4A      0.086200
     42 H15A        2.4370    1.9230    0.9300 h1        1 I4A      0.086200
     43 H17         0.1350    2.2540    0.8250 ha        1 I4A      0.141000
     44 HN24       -1.9010    1.8760   -0.3090 hn        1 I4A      0.316000
     45 HN2A       -3.4660    2.0870    0.3310 hn        1 I4A      0.316000
     46 H19        -1.5100    6.1810    0.0460 ha        1 I4A      0.157000
     47 H20         0.7940    7.0360   -0.4440 ha        1 I4A      0.140000
     48 H21         2.7470    5.4900   -0.3500 ha        1 I4A      0.136000
     49 H243       -0.7580   -0.1730    0.4490 ho        1 I4A      0.445000
@<TRIPOS>BOND
     1    1    2 1   
     2    1   49 1   
     3    2    3 2   
     4    2    4 1   
     5    4    5 ar  
     6    4   16 ar  
     7    5    6 ar  
     8    5   17 1   
     9    6    7 1   
    10    6   14 ar  
    11    7    8 1   
    12    7   13 2   
    13    8    9 1   
    14    8   28 1   
    15    8   29 1   
    16    9   10 1   
    17    9   30 1   
    18    9   31 1   
    19   10   11 1   
    20   10   32 1   
    21   10   33 1   
    22   11   12 1   
    23   11   34 1   
    24   11   35 1   
    25   12   13 1   
    26   12   36 1   
    27   12   37 1   
    28   13   17 1   
    29   14   15 ar  
    30   14   38 1   
    31   15   16 ar  
    32   15   39 1   
    33   16   40 1   
    34   17   18 1   
    35   18   19 1   
    36   18   41 1   
    37   18   42 1   
    38   19   20 ar  
    39   19   27 ar  
    40   20   21 ar  
    41   20   43 1   
    42   21   22 1   
    43   21   25 ar  
    44   22   23 1   
    45   22   24 2   
    46   23   44 1   
    47   23   45 1   
    48   25   26 ar  
    49   25   46 1   
    50   26   27 ar  
    51   26   47 1   
    52   27   48 1   
@<TRIPOS>SUBSTRUCTURE
     1 I4A         1 TEMP              0 ****  ****    0 ROOT
