@<TRIPOS>MOLECULE
I4A
   49    52     1     0     0
SMALL
bcc


@<TRIPOS>ATOM
      1 O27        -0.3590    0.1190   -0.2210 oh        1 I4A     -0.622100
      2 C25         1.0000    0.3000   -0.1730 c         1 I4A      0.660700
      3 O26         1.5000    0.2090    0.9540 o         1 I4A     -0.555000
      4 C4          1.6320    0.5260   -1.4740 ca        1 I4A     -0.148600
      5 C6          2.6470    1.4780   -1.7000 ca        1 I4A      0.020800
      6 C7          3.3020    1.5060   -2.9960 ca        1 I4A     -0.098800
      7 C9          4.3200    2.5340   -2.9260 cc        1 I4A     -0.123400
      8 C10         5.2530    2.8700   -4.0120 c3        1 I4A     -0.005200
      9 C12         6.6340    3.2420   -3.5050 c3        1 I4A     -0.076400
     10 C14         6.7360    4.6750   -3.0260 c3        1 I4A     -0.077400
     11 C13         5.5510    5.1480   -2.2130 c3        1 I4A     -0.073400
     12 C11         5.1250    4.1780   -1.1260 c3        1 I4A     -0.021200
     13 C8          4.2470    3.1040   -1.6550 cd        1 I4A     -0.048300
     14 C3          2.9130    0.6440   -4.0130 ca        1 I4A     -0.052000
     15 C2          1.8700   -0.2470   -3.7820 ca        1 I4A     -0.173000
     16 C1          1.2430   -0.2990   -2.5350 ca        1 I4A     -0.061000
     17 N5          3.2490    2.4480   -0.8840 na        1 I4A     -0.058400
     18 C15         2.7010    2.9930    0.3300 c3        1 I4A      0.065600
     19 C16         1.5030    3.8850    0.1470 ca        1 I4A     -0.127300
     20 C17         0.2290    3.3960    0.4520 ca        1 I4A     -0.086000
     21 C18        -0.8970    4.2020    0.2670 ca        1 I4A     -0.139600
     22 C22        -2.2710    3.6880    0.5320 c         1 I4A      0.667700
     23 N24        -2.5340    2.3720    0.2290 nt        1 I4A     -0.673000
     24 O23        -3.1660    4.4120    1.0160 o         1 I4A     -0.609100
     25 C19        -0.7480    5.5210   -0.1780 ca        1 I4A     -0.069000
     26 C20         0.5240    6.0120   -0.4680 ca        1 I4A     -0.140000
     27 C21         1.6450    5.1960   -0.3170 ca        1 I4A     -0.093000
     28 H10         4.8330    3.7180   -4.6200 hc        1 I4A      0.048200
     29 H10A        5.3440    1.9850   -4.6990 hc        1 I4A      0.048200
     30 H12         7.3780    3.0890   -4.3320 hc        1 I4A      0.044700
     31 H12A        6.9180    2.5480   -2.6710 hc        1 I4A      0.044700
     32 H14         7.6710    4.7780   -2.4130 hc        1 I4A      0.040200
     33 H14A        6.8460    5.3550   -3.9130 hc        1 I4A      0.040200
     34 H13         4.6820    5.3440   -2.8960 hc        1 I4A      0.046700
     35 H13A        5.8210    6.1260   -1.7300 hc        1 I4A      0.046700
     36 H11         4.6070    4.7640   -0.3180 hc        1 I4A      0.055700
     37 H11A        6.0320    3.7010   -0.6610 hc        1 I4A      0.055700
     38 H3          3.4240    0.6730   -4.9870 ha        1 I4A      0.140000
     39 H2          1.5370   -0.9240   -4.5820 ha        1 I4A      0.139000
     40 H1          0.4220   -1.0160   -2.3700 ha        1 I4A      0.145000
     41 H15         2.4330    2.1310    1.0100 h1        1 I4A      0.086200
     42 H15A        3.5150    3.5790    0.8480 h1        1 I4A      0.086200
     43 H17         0.1230    2.3720    0.8460 ha        1 I4A      0.141000
     44 HN24       -3.4620    2.0380    0.3210 hn        1 I4A      0.316000
     45 HN2A       -0.6820   -0.1080    0.6680 ho        1 I4A      0.445000
     46 H19        -1.6390    6.1580   -0.2890 ha        1 I4A      0.157000
     47 H20         0.6430    7.0480   -0.8200 ha        1 I4A      0.140000
     48 H21         2.6440    5.5840   -0.5680 ha        1 I4A      0.136000
     49 H243       -1.8810    1.8280   -0.2780 hn        1 I4A      0.316000
@<TRIPOS>BOND
     1    1    2 1   
     2    1   45 1   
     3    2    3 2   
     4    2    4 1   
     5    4    5 ar  
     6    4   16 ar  
     7    5    6 ar  
     8    5   17 1   
     9    6    7 1   
    10    6   14 ar  
    11    7    8 1   
    12    7   13 2   
    13    8    9 1   
    14    8   28 1   
    15    8   29 1   
    16    9   10 1   
    17    9   30 1   
    18    9   31 1   
    19   10   11 1   
    20   10   32 1   
    21   10   33 1   
    22   11   12 1   
    23   11   34 1   
    24   11   35 1   
    25   12   13 1   
    26   12   36 1   
    27   12   37 1   
    28   13   17 1   
    29   14   15 ar  
    30   14   38 1   
    31   15   16 ar  
    32   15   39 1   
    33   16   40 1   
    34   17   18 1   
    35   18   19 1   
    36   18   41 1   
    37   18   42 1   
    38   19   20 ar  
    39   19   27 ar  
    40   20   21 ar  
    41   20   43 1   
    42   21   22 1   
    43   21   25 ar  
    44   22   23 1   
    45   22   24 2   
    46   23   44 1   
    47   23   49 1   
    48   25   26 ar  
    49   25   46 1   
    50   26   27 ar  
    51   26   47 1   
    52   27   48 1   
@<TRIPOS>SUBSTRUCTURE
     1 I4A         1 TEMP              0 ****  ****    0 ROOT
