@<TRIPOS>MOLECULE
I4A
   48    51     1     0     0
SMALL
bcc


@<TRIPOS>ATOM
      1 O27        -2.4120   -2.3290    0.0270 o         1 I4A     -0.835300
      2 C25        -1.3430   -2.3540    0.7110 c         1 I4A      0.912200
      3 O26        -1.3310   -2.3990    1.9730 o         1 I4A     -0.835300
      4 C4         -0.0270   -2.3330   -0.0390 ca        1 I4A     -0.114600
      5 C6          0.8880   -1.2590   -0.0250 ca        1 I4A     -0.011200
      6 C7          2.1030   -1.3270   -0.8110 ca        1 I4A     -0.097800
      7 C9          2.8060   -0.0810   -0.6120 cc        1 I4A     -0.157400
      8 C10         4.0960    0.2800   -1.2150 c3        1 I4A      0.008800
      9 C12         4.9620    1.1150   -0.2900 c3        1 I4A     -0.074400
     10 C14         4.6030    2.5860   -0.2840 c3        1 I4A     -0.071400
     11 C13         3.1160    2.8690   -0.2720 c3        1 I4A     -0.069400
     12 C11         2.3440    2.0590    0.7520 c3        1 I4A     -0.014200
     13 C8          2.0320    0.6940    0.2580 cd        1 I4A     -0.061300
     14 C3          2.3900   -2.4640   -1.5680 ca        1 I4A     -0.120000
     15 C2          1.4870   -3.5130   -1.5620 ca        1 I4A     -0.164000
     16 C1          0.2990   -3.4380   -0.8160 ca        1 I4A     -0.114000
     17 N5          0.8750   -0.0160    0.6310 na        1 I4A     -0.054400
     18 C15        -0.0830    0.4600    1.5890 c3        1 I4A      0.059600
     19 C16        -1.1570    1.3570    1.0340 ca        1 I4A     -0.109300
     20 C17        -2.0950    0.8170    0.1460 ca        1 I4A     -0.070000
     21 C18        -3.1790    1.5830   -0.2850 ca        1 I4A     -0.137600
     22 C22        -4.2320    1.0060   -1.1700 c         1 I4A      0.665700
     23 N24        -4.4800   -0.3370   -1.0990 n         1 I4A     -0.650000
     24 O23        -4.9160    1.7370   -1.9300 o         1 I4A     -0.673100
     25 C19        -3.2960    2.9170    0.1280 ca        1 I4A     -0.085000
     26 C20        -2.3460    3.4620    0.9880 ca        1 I4A     -0.163000
     27 C21        -1.2820    2.6830    1.4480 ca        1 I4A     -0.114000
     28 H10         4.6490   -0.6630   -1.4790 hc        1 I4A      0.036200
     29 H10A        3.9250    0.8390   -2.1760 hc        1 I4A      0.036200
     30 H12         4.8780    0.7090    0.7520 hc        1 I4A      0.034700
     31 H12A        6.0360    1.0130   -0.6020 hc        1 I4A      0.034700
     32 H14         5.0790    3.0650    0.6130 hc        1 I4A      0.025700
     33 H14A        5.0450    3.0780   -1.1930 hc        1 I4A      0.025700
     34 H13         2.9650    3.9600   -0.0540 hc        1 I4A      0.041700
     35 H13A        2.6910    2.6710   -1.2910 hc        1 I4A      0.041700
     36 H11         2.9370    1.9770    1.7040 hc        1 I4A      0.047200
     37 H11A        1.3910    2.6080    0.9970 hc        1 I4A      0.047200
     38 H3          3.3160   -2.5110   -2.1550 ha        1 I4A      0.110000
     39 H2          1.6920   -4.4170   -2.1520 ha        1 I4A      0.107000
     40 H1         -0.4120   -4.2780   -0.8500 ha        1 I4A      0.133000
     41 H15        -0.5880   -0.4430    2.0620 h1        1 I4A      0.093200
     42 H15A        0.4790    1.0150    2.3960 h1        1 I4A      0.093200
     43 H17        -1.9650   -0.2330   -0.1860 ha        1 I4A      0.199000
     44 HN24       -3.8910   -0.9530   -0.5760 hn        1 I4A      0.333000
     45 HN2A       -5.1170   -0.7340   -1.7420 hn        1 I4A      0.333000
     46 H19        -4.1420    3.5190   -0.2380 ha        1 I4A      0.143000
     47 H20        -2.4380    4.5080    1.3110 ha        1 I4A      0.118000
     48 H21        -0.5500    3.1170    2.1450 ha        1 I4A      0.118000
@<TRIPOS>BOND
     1    1    2 1   
     2    2    3 1   
     3    2    4 1   
     4    4    5 ar  
     5    4   16 ar  
     6    5    6 ar  
     7    5   17 1   
     8    6    7 1   
     9    6   14 ar  
    10    7    8 1   
    11    7   13 2   
    12    8    9 1   
    13    8   28 1   
    14    8   29 1   
    15    9   10 1   
    16    9   30 1   
    17    9   31 1   
    18   10   11 1   
    19   10   32 1   
    20   10   33 1   
    21   11   12 1   
    22   11   34 1   
    23   11   35 1   
    24   12   13 1   
    25   12   36 1   
    26   12   37 1   
    27   13   17 1   
    28   14   15 ar  
    29   14   38 1   
    30   15   16 ar  
    31   15   39 1   
    32   16   40 1   
    33   17   18 1   
    34   18   19 1   
    35   18   41 1   
    36   18   42 1   
    37   19   20 ar  
    38   19   27 ar  
    39   20   21 ar  
    40   20   43 1   
    41   21   22 1   
    42   21   25 ar  
    43   22   23 1   
    44   22   24 2   
    45   23   44 1   
    46   23   45 1   
    47   25   26 ar  
    48   25   46 1   
    49   26   27 ar  
    50   26   47 1   
    51   27   48 1   
@<TRIPOS>SUBSTRUCTURE
     1 I4A         1 TEMP              0 ****  ****    0 ROOT
