@<TRIPOS>MOLECULE
I4A
   49    52     1     0     0
SMALL
bcc


@<TRIPOS>ATOM
      1 O27        -0.3820    0.1290   -0.2520 oh        1 I4A     -0.622100
      2 C25         0.9780    0.3010   -0.1970 c         1 I4A      0.660700
      3 O26         1.4720    0.1990    0.9310 o         1 I4A     -0.555000
      4 C4          1.6170    0.5320   -1.4940 ca        1 I4A     -0.148600
      5 C6          2.6380    1.4780   -1.7100 ca        1 I4A      0.020800
      6 C7          3.2990    1.5110   -3.0020 ca        1 I4A     -0.098800
      7 C9          4.3230    2.5320   -2.9210 cc        1 I4A     -0.123400
      8 C10         5.2630    2.8700   -4.0010 c3        1 I4A     -0.005200
      9 C12         6.6440    3.2300   -3.4860 c3        1 I4A     -0.076400
     10 C14         6.7530    4.6580   -2.9970 c3        1 I4A     -0.077400
     11 C13         5.5680    5.1340   -2.1860 c3        1 I4A     -0.073400
     12 C11         5.1310    4.1590   -1.1070 c3        1 I4A     -0.021200
     13 C8          4.2480    3.0940   -1.6470 cd        1 I4A     -0.048300
     14 C3          2.9080    0.6580   -4.0270 ca        1 I4A     -0.052000
     15 C2          1.8590   -0.2280   -3.8060 ca        1 I4A     -0.173000
     16 C1          1.2260   -0.2840   -2.5620 ca        1 I4A     -0.061000
     17 N5          3.2440    2.4390   -0.8850 na        1 I4A     -0.058400
     18 C15         2.6940    2.9800    0.3310 c3        1 I4A      0.065600
     19 C16         1.5020    3.8800    0.1490 ca        1 I4A     -0.127300
     20 C17         0.2240    3.3970    0.4460 ca        1 I4A     -0.086000
     21 C18        -0.8960    4.2120    0.2630 ca        1 I4A     -0.139600
     22 C22        -2.2740    3.7050    0.5200 c         1 I4A      0.667700
     23 N24        -2.5450    2.3930    0.2060 n         1 I4A     -0.673000
     24 O23        -3.1660    4.4310    1.0050 o         1 I4A     -0.609100
     25 C19        -0.7370    5.5320   -0.1730 ca        1 I4A     -0.069000
     26 C20         0.5390    6.0170   -0.4550 ca        1 I4A     -0.140000
     27 C21         1.6540    5.1930   -0.3060 ca        1 I4A     -0.093000
     28 H10         5.3510    1.9880   -4.6940 hc        1 I4A      0.048200
     29 H10A        4.8500    3.7240   -4.6060 hc        1 I4A      0.048200
     30 H12         6.9210    2.5270   -2.6560 hc        1 I4A      0.044700
     31 H12A        7.3900    3.0770   -4.3110 hc        1 I4A      0.044700
     32 H14         6.8710    5.3430   -3.8790 hc        1 I4A      0.040200
     33 H14A        7.6870    4.7510   -2.3800 hc        1 I4A      0.040200
     34 H13         5.8420    6.1060   -1.6960 hc        1 I4A      0.046700
     35 H13A        4.7030    5.3400   -2.8710 hc        1 I4A      0.046700
     36 H11         4.6140    4.7420   -0.2980 hc        1 I4A      0.055700
     37 H11A        6.0330    3.6730   -0.6420 hc        1 I4A      0.055700
     38 H3          3.4240    0.6900   -4.9990 ha        1 I4A      0.140000
     39 H2          1.5250   -0.8970   -4.6120 ha        1 I4A      0.139000
     40 H1          0.4000   -0.9970   -2.4050 ha        1 I4A      0.145000
     41 H15         3.5100    3.5560    0.8560 h1        1 I4A      0.086200
     42 H15A        2.4180    2.1140    1.0040 h1        1 I4A      0.086200
     43 H17         0.1100    2.3710    0.8330 ha        1 I4A      0.141000
     44 HN24       -0.7110   -0.1020    0.6340 ho        1 I4A      0.445000
     45 HN2A       -3.4740    2.0640    0.2930 hn        1 I4A      0.316000
     46 H19        -1.6240    6.1760   -0.2830 ha        1 I4A      0.157000
     47 H20         0.6660    7.0540   -0.8000 ha        1 I4A      0.140000
     48 H21         2.6570    5.5770   -0.5510 ha        1 I4A      0.136000
     49 H243       -1.8930    1.8480   -0.3020 hn        1 I4A      0.316000
@<TRIPOS>BOND
     1    1    2 1   
     2    1   44 1   
     3    2    3 2   
     4    2    4 1   
     5    4    5 ar  
     6    4   16 ar  
     7    5    6 ar  
     8    5   17 1   
     9    6    7 1   
    10    6   14 ar  
    11    7    8 1   
    12    7   13 2   
    13    8    9 1   
    14    8   28 1   
    15    8   29 1   
    16    9   10 1   
    17    9   30 1   
    18    9   31 1   
    19   10   11 1   
    20   10   32 1   
    21   10   33 1   
    22   11   12 1   
    23   11   34 1   
    24   11   35 1   
    25   12   13 1   
    26   12   36 1   
    27   12   37 1   
    28   13   17 1   
    29   14   15 ar  
    30   14   38 1   
    31   15   16 ar  
    32   15   39 1   
    33   16   40 1   
    34   17   18 1   
    35   18   19 1   
    36   18   41 1   
    37   18   42 1   
    38   19   20 ar  
    39   19   27 ar  
    40   20   21 ar  
    41   20   43 1   
    42   21   22 1   
    43   21   25 ar  
    44   22   23 1   
    45   22   24 2   
    46   23   45 1   
    47   23   49 1   
    48   25   26 ar  
    49   25   46 1   
    50   26   27 ar  
    51   26   47 1   
    52   27   48 1   
@<TRIPOS>SUBSTRUCTURE
     1 I4A         1 TEMP              0 ****  ****    0 ROOT
