@<TRIPOS>MOLECULE
I4B
   24    24     1     0     0
SMALL
bcc


@<TRIPOS>ATOM
      1 C1          0.1210   -0.0120   -0.0210 ca        1 I4B     -0.075300
      2 C2          1.5110    0.0990    0.1030 ca        1 I4B     -0.128500
      3 C3          2.1050    0.1310    1.3650 ca        1 I4B     -0.128500
      4 C4          1.3170    0.0510    2.5120 ca        1 I4B     -0.134000
      5 C5         -0.0690   -0.0610    2.3950 ca        1 I4B     -0.128500
      6 C6         -0.6640   -0.0920    1.1360 ca        1 I4B     -0.128500
      7 C1'        -0.5220   -0.0320   -1.3630 c3        1 I4B     -0.036100
      8 C2'        -0.9580   -1.4350   -1.7780 c3        1 I4B     -0.063700
      9 C3'        -1.9210   -1.3570   -2.9440 c3        1 I4B     -0.091100
     10 C4'         0.2380   -2.2910   -2.1380 c3        1 I4B     -0.091100
     11 H2          2.1360    0.1610   -0.7990 ha        1 I4B      0.131000
     12 H3          3.1970    0.2200    1.4530 ha        1 I4B      0.130000
     13 H4          1.7860    0.0770    3.5060 ha        1 I4B      0.130000
     14 H5         -0.6940   -0.1240    3.2980 ha        1 I4B      0.130000
     15 H6         -1.7570   -0.1800    1.0450 ha        1 I4B      0.131000
     16 H1'1       -1.4230    0.6380   -1.3460 hc        1 I4B      0.048200
     17 H1'2        0.1830    0.3770   -2.1350 hc        1 I4B      0.048200
     18 H2'        -1.4890   -1.9090   -0.9050 hc        1 I4B      0.050700
     19 H3'1       -2.8400   -0.7910   -2.6560 hc        1 I4B      0.034700
     20 H3'2       -1.4450   -0.8400   -3.8120 hc        1 I4B      0.034700
     21 H3'3       -2.2210   -2.3830   -3.2640 hc        1 I4B      0.034700
     22 H4'1        0.9840   -2.2790   -1.3060 hc        1 I4B      0.034700
     23 H4'2       -0.0810   -3.3450   -2.3200 hc        1 I4B      0.034700
     24 H4'3        0.7340   -1.9060   -3.0620 hc        1 I4B      0.034700
@<TRIPOS>BOND
     1    1    2 ar  
     2    1    6 ar  
     3    1    7 1   
     4    2    3 ar  
     5    2   11 1   
     6    3    4 ar  
     7    3   12 1   
     8    4    5 ar  
     9    4   13 1   
    10    5    6 ar  
    11    5   14 1   
    12    6   15 1   
    13    7    8 1   
    14    7   16 1   
    15    7   17 1   
    16    8    9 1   
    17    8   10 1   
    18    8   18 1   
    19    9   19 1   
    20    9   20 1   
    21    9   21 1   
    22   10   22 1   
    23   10   23 1   
    24   10   24 1   
@<TRIPOS>SUBSTRUCTURE
     1 I4B         1 TEMP              0 ****  ****    0 ROOT
