@<TRIPOS>MOLECULE
I4B
   24    24     1     0     0
SMALL
bcc


@<TRIPOS>ATOM
      1 C1         -0.1480   -0.4430   -0.3030 ca        1 I4B     -0.075300
      2 C2          1.0240   -0.6920   -1.0270 ca        1 I4B     -0.128500
      3 C3          1.1110   -0.3310   -2.3710 ca        1 I4B     -0.128500
      4 C4          0.0310    0.2810   -3.0040 ca        1 I4B     -0.134000
      5 C5         -1.1400    0.5340   -2.2880 ca        1 I4B     -0.128500
      6 C6         -1.2300    0.1730   -0.9450 ca        1 I4B     -0.128500
      7 C1'        -0.2550   -0.8380    1.1280 c3        1 I4B     -0.036100
      8 C2'        -0.1180    0.3540    2.0720 c3        1 I4B     -0.063700
      9 C3'        -0.6000   -0.0220    3.4570 c3        1 I4B     -0.091100
     10 C4'         1.3140    0.8420    2.1250 c3        1 I4B     -0.091100
     11 H2          1.8800   -1.1740   -0.5310 ha        1 I4B      0.131000
     12 H3          2.0360   -0.5320   -2.9320 ha        1 I4B      0.130000
     13 H4          0.1000    0.5650   -4.0640 ha        1 I4B      0.130000
     14 H5         -1.9940    1.0170   -2.7840 ha        1 I4B      0.130000
     15 H6         -2.1530    0.3730   -0.3820 ha        1 I4B      0.131000
     16 H1'1        0.5330   -1.5970    1.3790 hc        1 I4B      0.048200
     17 H1'2       -1.2540   -1.3240    1.2990 hc        1 I4B      0.048200
     18 H2'        -0.7670    1.1880    1.6800 hc        1 I4B      0.050700
     19 H3'1       -0.4770    0.8410    4.1550 hc        1 I4B      0.034700
     20 H3'2       -1.6780   -0.3090    3.4330 hc        1 I4B      0.034700
     21 H3'3       -0.0130   -0.8850    3.8560 hc        1 I4B      0.034700
     22 H4'1        1.9730    0.0770    2.6010 hc        1 I4B      0.034700
     23 H4'2        1.6920    1.0410    1.0920 hc        1 I4B      0.034700
     24 H4'3        1.3800    1.7850    2.7200 hc        1 I4B      0.034700
@<TRIPOS>BOND
     1    1    2 ar  
     2    1    6 ar  
     3    1    7 1   
     4    2    3 ar  
     5    2   11 1   
     6    3    4 ar  
     7    3   12 1   
     8    4    5 ar  
     9    4   13 1   
    10    5    6 ar  
    11    5   14 1   
    12    6   15 1   
    13    7    8 1   
    14    7   16 1   
    15    7   17 1   
    16    8    9 1   
    17    8   10 1   
    18    8   18 1   
    19    9   19 1   
    20    9   20 1   
    21    9   21 1   
    22   10   22 1   
    23   10   23 1   
    24   10   24 1   
@<TRIPOS>SUBSTRUCTURE
     1 I4B         1 TEMP              0 ****  ****    0 ROOT
