@<TRIPOS>MOLECULE
I4B
   24    24     1     0     0
SMALL
bcc


@<TRIPOS>ATOM
      1 C1          0.1120   -0.0100   -0.0200 ca        1 I4B     -0.075300
      2 C2          1.4990    0.1220    0.1070 ca        1 I4B     -0.128500
      3 C3          2.0900    0.1600    1.3700 ca        1 I4B     -0.128500
      4 C4          1.3000    0.0670    2.5150 ca        1 I4B     -0.134000
      5 C5         -0.0830   -0.0660    2.3950 ca        1 I4B     -0.128500
      6 C6         -0.6750   -0.1040    1.1350 ca        1 I4B     -0.128500
      7 C1'        -0.5280   -0.0370   -1.3640 c3        1 I4B     -0.036100
      8 C2'        -0.9460   -1.4440   -1.7800 c3        1 I4B     -0.063700
      9 C3'        -1.9080   -1.3770   -2.9490 c3        1 I4B     -0.091100
     10 C4'         0.2600   -2.2860   -2.1370 c3        1 I4B     -0.091100
     11 H2          2.1260    0.1940   -0.7940 ha        1 I4B      0.131000
     12 H3          3.1810    0.2650    1.4610 ha        1 I4B      0.130000
     13 H4          1.7670    0.0980    3.5110 ha        1 I4B      0.130000
     14 H5         -0.7090   -0.1400    3.2970 ha        1 I4B      0.130000
     15 H6         -1.7660   -0.2080    1.0410 ha        1 I4B      0.131000
     16 H1'1       -1.4380    0.6230   -1.3490 hc        1 I4B      0.048200
     17 H1'2        0.1740    0.3800   -2.1340 hc        1 I4B      0.048200
     18 H2'        -1.4750   -1.9260   -0.9080 hc        1 I4B      0.050700
     19 H3'1       -2.8330   -0.8220   -2.6630 hc        1 I4B      0.034700
     20 H3'2       -1.4360   -0.8550   -3.8160 hc        1 I4B      0.034700
     21 H3'3       -2.1960   -2.4070   -3.2700 hc        1 I4B      0.034700
     22 H4'1        1.0030   -2.2670   -1.3030 hc        1 I4B      0.034700
     23 H4'2       -0.0460   -3.3440   -2.3210 hc        1 I4B      0.034700
     24 H4'3        0.7540   -1.8960   -3.0590 hc        1 I4B      0.034700
@<TRIPOS>BOND
     1    1    2 ar  
     2    1    6 ar  
     3    1    7 1   
     4    2    3 ar  
     5    2   11 1   
     6    3    4 ar  
     7    3   12 1   
     8    4    5 ar  
     9    4   13 1   
    10    5    6 ar  
    11    5   14 1   
    12    6   15 1   
    13    7    8 1   
    14    7   16 1   
    15    7   17 1   
    16    8    9 1   
    17    8   10 1   
    18    8   18 1   
    19    9   19 1   
    20    9   20 1   
    21    9   21 1   
    22   10   22 1   
    23   10   23 1   
    24   10   24 1   
@<TRIPOS>SUBSTRUCTURE
     1 I4B         1 TEMP              0 ****  ****    0 ROOT
