@<TRIPOS>MOLECULE
I4B
   24    21     1     0     0
SMALL
bcc


@<TRIPOS>ATOM
      1 C1          0.4620    0.5780    0.4900 c1        1 I4B     -0.041100
      2 C2          1.8480    0.5540    0.5100 c1        1 I4B     -0.072250
      3 C3          2.5220    0.5400    1.7210 c1        1 I4B     -0.072250
      4 C4          1.8120    0.5490    2.9110 c1        1 I4B     -0.072250
      5 C5          0.4260    0.5720    2.8900 c1        1 I4B     -0.072250
      6 C6         -0.2490    0.5870    1.6800 c1        1 I4B     -0.071500
      7 C1'        -0.2730    0.6720   -0.8300 c3        1 I4B     -0.070300
      8 C2'        -0.9300   -0.6560   -1.1360 c3        1 I4B     -0.063700
      9 C3'        -2.3890   -0.4320   -1.4710 c3        1 I4B     -0.091100
     10 C4'        -0.2360   -1.3030   -2.3150 c3        1 I4B     -0.091100
     11 H2          2.3480    0.5480   -0.3280 ha        1 I4B      0.072750
     12 H3          3.4980    0.5230    1.7350 ha        1 I4B      0.072750
     13 H4          2.2870    0.5380    3.7630 ha        1 I4B      0.072750
     14 H5         -0.0740    0.5790    3.7280 ha        1 I4B      0.072750
     15 H6         -1.2250    0.6040    1.6650 ha        1 I4B      0.073500
     16 H1'1       -0.9570    1.3690   -0.7740 hc        1 I4B      0.048200
     17 H1'2        0.3610    0.8930   -1.5410 hc        1 I4B      0.048200
     18 H2'        -0.8620   -1.2410   -0.3580 hc        1 I4B      0.050700
     19 H3'1       -2.4610    0.2320   -2.1890 hc        1 I4B      0.034700
     20 H3'2       -2.7900   -1.2760   -1.7650 hc        1 I4B      0.034700
     21 H3'3       -2.8600   -0.1050   -0.6760 hc        1 I4B      0.034700
     22 H4'1       -0.7690   -2.0620   -2.6320 hc        1 I4B      0.034700
     23 H4'2        0.6500   -1.6170   -2.0400 hc        1 I4B      0.034700
     24 H4'3       -0.1400   -0.6470   -3.0370 hc        1 I4B      0.034700
@<TRIPOS>BOND
     1    1    6 3   
     2    1    7 1   
     3    2    3 3   
     4    2   11 1   
     5    3   12 1   
     6    4    5 3   
     7    4   13 1   
     8    5   14 1   
     9    6   15 1   
    10    7    8 1   
    11    7   16 1   
    12    7   17 1   
    13    8    9 1   
    14    8   10 1   
    15    8   18 1   
    16    9   19 1   
    17    9   20 1   
    18    9   21 1   
    19   10   22 1   
    20   10   23 1   
    21   10   24 1   
@<TRIPOS>SUBSTRUCTURE
     1 I4B         1 TEMP              0 ****  ****    0 ROOT
