@<TRIPOS>MOLECULE
I4C
   27    27     1     0     0
SMALL
bcc


@<TRIPOS>ATOM
      1 C1         -1.0150   -0.9590   -1.3240 c3        1 I4C      0.090100
      2 C2          0.5050   -0.9570   -1.2890 c3        1 I4C      0.127100
      3 C3          1.0540   -0.9610    0.1290 c3        1 I4C      0.066600
      4 C4          0.4510    0.1400    0.9900 c3        1 I4C      0.185100
      5 C5         -1.0700    0.1380    0.9550 c3        1 I4C      0.066600
      6 C6         -1.6190    0.1430   -0.4620 c3        1 I4C      0.127100
      7 O1         -1.4420   -0.7790   -2.6620 oh        1 I4C     -0.629800
      8 O2          0.9770    0.2000   -1.9590 oh        1 I4C     -0.643300
      9 O3          0.7720   -2.2150    0.7250 oh        1 I4C     -0.642800
     10 O4          0.9170    1.3930    0.5230 os        1 I4C     -0.567200
     11 O5         -1.5410   -1.0190    1.6250 oh        1 I4C     -0.642800
     12 O6         -1.3360    1.3960   -1.0580 oh        1 I4C     -0.643300
     13 P4          1.7860    2.2830    1.4980 p5        1 I4C      1.305900
     14 O41         0.9790    2.6170    2.7300 o         1 I4C     -0.918500
     15 O42         2.1820    3.5600    0.7940 o         1 I4C     -0.918500
     16 O43         3.0280    1.5240    1.9000 o         1 I4C     -0.918500
     17 H1         -1.3370   -1.8240   -1.0020 h1        1 I4C      0.054700
     18 H2          0.8330   -1.7490   -1.7580 h1        1 I4C      0.038200
     19 H3          2.0230   -0.8390    0.0930 h1        1 I4C      0.100200
     20 H4          0.7460    0.0160    1.9140 h1        1 I4C      0.070700
     21 H5         -1.3980    0.9300    1.4240 h1        1 I4C      0.100200
     22 H6         -2.5880    0.0200   -0.4260 h1        1 I4C      0.038200
     23 HO1        -1.9330   -1.4770   -2.9130 ho        1 I4C      0.419000
     24 HO2         1.6120   -0.0300   -2.5370 ho        1 I4C      0.463000
     25 HO3         1.5300   -2.6640    0.8440 ho        1 I4C      0.405500
     26 HO5        -2.0420   -0.7770    2.3190 ho        1 I4C      0.405500
     27 HO6        -2.0750    1.8900   -1.0730 ho        1 I4C      0.463000
@<TRIPOS>BOND
     1    1    2 1   
     2    1    6 1   
     3    1    7 1   
     4    1   17 1   
     5    2    3 1   
     6    2    8 1   
     7    2   18 1   
     8    3    4 1   
     9    3    9 1   
    10    3   19 1   
    11    4    5 1   
    12    4   10 1   
    13    4   20 1   
    14    5    6 1   
    15    5   11 1   
    16    5   21 1   
    17    6   12 1   
    18    6   22 1   
    19    7   23 1   
    20    8   24 1   
    21    9   25 1   
    22   10   13 1   
    23   11   26 1   
    24   12   27 1   
    25   13   14 1   
    26   13   15 1   
    27   13   16 1   
@<TRIPOS>SUBSTRUCTURE
     1 I4C         1 TEMP              0 ****  ****    0 ROOT
