@<TRIPOS>MOLECULE
I4C
   27    27     1     0     0
SMALL
bcc


@<TRIPOS>ATOM
      1 C1         -2.9340   -0.2980   -0.5520 c3        1 I4C      0.101100
      2 C2         -2.0790   -1.5500   -0.2870 c3        1 I4C      0.108100
      3 C3         -0.6400   -1.3220   -0.7980 c3        1 I4C      0.136600
      4 C4          0.0040   -0.0370   -0.2300 c3        1 I4C      0.173100
      5 C5         -0.9140    1.1830   -0.4680 c3        1 I4C      0.136600
      6 C6         -2.3020    0.9140    0.1380 c3        1 I4C      0.108100
      7 O1         -4.2430   -0.5680   -0.0510 oh        1 I4C     -0.642800
      8 O2         -2.0560   -1.8670    1.0940 oh        1 I4C     -0.617300
      9 O3          0.1330   -2.4620   -0.5120 oh        1 I4C     -0.677300
     10 O4          1.2120    0.1790   -0.8470 os        1 I4C     -0.556200
     11 O5         -0.4090    2.3580    0.1230 oh        1 I4C     -0.677300
     12 O6         -3.1850    2.0210   -0.0360 oh        1 I4C     -0.617300
     13 P4          2.5340    0.2110    0.2820 p5        1 I4C      1.322900
     14 O41         2.0280    1.3370    1.1550 o         1 I4C     -0.915167
     15 O42         2.3630   -1.1760    0.8460 o         1 I4C     -0.915167
     16 O43         3.7520    0.4840   -0.5410 o         1 I4C     -0.915167
     17 H1         -3.0170   -0.1140   -1.6580 h1        1 I4C      0.038700
     18 H2         -2.5380   -2.4190   -0.8400 h1        1 I4C      0.037200
     19 H3         -0.7120   -1.2400   -1.9220 h1        1 I4C      0.018700
     20 H4          0.1330   -0.1740    0.8880 h1        1 I4C      0.075700
     21 H5         -1.0250    1.3810   -1.5710 h1        1 I4C      0.018700
     22 H6         -2.2080    0.7160    1.2420 h1        1 I4C      0.037200
     23 HO1        -4.6420    0.2870    0.1470 ho        1 I4C      0.408000
     24 HO2        -2.9730   -1.8150    1.3940 ho        1 I4C      0.403000
     25 HO3         0.9410   -2.1610   -0.0220 ho        1 I4C      0.504000
     26 HO5         0.4970    2.1480    0.4850 ho        1 I4C      0.504000
     27 HO6        -2.6270    2.8100    0.0010 ho        1 I4C      0.403000
@<TRIPOS>BOND
     1    1    2 1   
     2    1    6 1   
     3    1    7 1   
     4    1   17 1   
     5    2    3 1   
     6    2    8 1   
     7    2   18 1   
     8    3    4 1   
     9    3    9 1   
    10    3   19 1   
    11    4    5 1   
    12    4   10 1   
    13    4   20 1   
    14    5    6 1   
    15    5   11 1   
    16    5   21 1   
    17    6   12 1   
    18    6   22 1   
    19    7   23 1   
    20    8   24 1   
    21    9   25 1   
    22   10   13 1   
    23   11   26 1   
    24   12   27 1   
    25   13   14 1   
    26   13   15 1   
    27   13   16 1   
@<TRIPOS>SUBSTRUCTURE
     1 I4C         1 TEMP              0 ****  ****    0 ROOT
