@<TRIPOS>MOLECULE
I4C
   27    27     1     0     0
SMALL
bcc


@<TRIPOS>ATOM
      1 C1         -0.0600    0.0770   -0.0890 c3        1 I4C      0.135100
      2 C2          1.4730    0.1920   -0.0180 c3        1 I4C      0.097600
      3 C3          1.9910    0.1770    1.4300 c3        1 I4C      0.111100
      4 C4          1.4500   -1.0400    2.2150 c3        1 I4C      0.169100
      5 C5         -0.0890   -1.0540    2.1670 c3        1 I4C      0.111100
      6 C6         -0.5550   -1.1410    0.7010 c3        1 I4C      0.097600
      7 O1         -0.4720    0.0180   -1.4470 oh        1 I4C     -0.617800
      8 O2          2.0340   -0.8460   -0.8100 oh        1 I4C     -0.639300
      9 O3          3.4010    0.1510    1.3600 oh        1 I4C     -0.683800
     10 O4          1.8930   -0.9940    3.5130 os        1 I4C     -0.552200
     11 O5         -0.6350   -2.1560    2.8580 oh        1 I4C     -0.683800
     12 O6         -1.9760   -1.1750    0.6180 oh        1 I4C     -0.639300
     13 P4          2.8520   -2.3920    3.9160 p5        1 I4C      1.321900
     14 O41         1.7980   -3.4410    3.6580 o         1 I4C     -0.913833
     15 O42         3.8840   -2.2380    2.8220 o         1 I4C     -0.913833
     16 O43         3.3000   -2.1820    5.3250 o         1 I4C     -0.913833
     17 H1         -0.5360    1.0140    0.3100 h1        1 I4C      0.061700
     18 H2          1.7770    1.1570   -0.5170 h1        1 I4C      0.037200
     19 H3          1.6840    1.1330    1.9360 h1        1 I4C      0.026700
     20 H4          1.8200   -1.9800    1.6960 h1        1 I4C      0.058700
     21 H5         -0.5120   -0.1240    2.6380 h1        1 I4C      0.026700
     22 H6         -0.1520   -2.0810    0.2290 h1        1 I4C      0.037200
     23 HO1        -0.0410   -0.7590   -1.8240 ho        1 I4C      0.404000
     24 HO2         2.6880   -1.3050   -0.2590 ho        1 I4C      0.428000
     25 HO3         3.7200   -0.5760    1.9610 ho        1 I4C      0.501500
     26 HO5         0.1210   -2.6680    3.2550 ho        1 I4C      0.501500
     27 HO6        -2.2670   -1.7070    1.3710 ho        1 I4C      0.428000
@<TRIPOS>BOND
     1    1    2 1   
     2    1    6 1   
     3    1    7 1   
     4    1   17 1   
     5    2    3 1   
     6    2    8 1   
     7    2   18 1   
     8    3    4 1   
     9    3    9 1   
    10    3   19 1   
    11    4    5 1   
    12    4   10 1   
    13    4   20 1   
    14    5    6 1   
    15    5   11 1   
    16    5   21 1   
    17    6   12 1   
    18    6   22 1   
    19    7   23 1   
    20    8   24 1   
    21    9   25 1   
    22   10   13 1   
    23   11   26 1   
    24   12   27 1   
    25   13   14 1   
    26   13   15 1   
    27   13   16 1   
@<TRIPOS>SUBSTRUCTURE
     1 I4C         1 TEMP              0 ****  ****    0 ROOT
