@<TRIPOS>MOLECULE
I4D
   27    27     1     0     0
SMALL
bcc


@<TRIPOS>ATOM
      1 O5          0.0760   -0.1000    0.0790 oh        1 I4D     -0.683800
      2 C5          1.4860   -0.1070    0.0360 c3        1 I4D      0.111100
      3 C6          2.0020   -0.0170    1.4860 c3        1 I4D      0.097600
      4 O6          1.4850   -1.0810    2.2780 oh        1 I4D     -0.639300
      5 C4          2.0510    1.0700   -0.7810 c3        1 I4D      0.169100
      6 O4          1.5820    1.0320   -2.0700 os        1 I4D     -0.552200
      7 P4          0.6580    2.4560   -2.4620 p5        1 I4D      1.321900
      8 O43         0.2600    2.2980   -3.8930 o         1 I4D     -0.913833
      9 O42        -0.4120    2.2990   -1.4100 o         1 I4D     -0.913833
     10 O41         1.7280    3.4730   -2.1400 o         1 I4D     -0.913833
     11 C3          3.5950    1.0200   -0.7800 c3        1 I4D      0.111100
     12 O3          4.1410    2.1520   -1.4250 oh        1 I4D     -0.683800
     13 C2          4.1610    1.0080    0.6510 c3        1 I4D      0.097600
     14 O2          3.9810    2.2480    1.3210 oh        1 I4D     -0.639300
     15 C1          3.5330   -0.1020    1.5140 c3        1 I4D      0.135100
     16 O1          4.0340   -0.0150    2.8400 oh        1 I4D     -0.617800
     17 H5         -0.2390    0.6670   -0.4700 ho        1 I4D      0.501500
     18 HA          1.8000   -1.0910   -0.4110 h1        1 I4D      0.026700
     19 H6          1.6730    0.9570    1.9460 h1        1 I4D      0.037200
     20 H4          1.7330    2.0320   -0.2660 h1        1 I4D      0.058700
     21 HB          0.5770   -1.2140    1.9720 ho        1 I4D      0.428000
     22 H1          3.8690   -1.1100    1.1500 h1        1 I4D      0.061700
     23 H3          3.9540    0.1030   -1.3210 h1        1 I4D      0.026700
     24 HC          3.3910    2.6450   -1.8550 ho        1 I4D      0.501500
     25 H2          5.2750    0.8370    0.6140 h1        1 I4D      0.037200
     26 HD          3.5880    2.8640    0.6810 ho        1 I4D      0.428000
     27 HE          3.7920    0.8630    3.1610 ho        1 I4D      0.404000
@<TRIPOS>BOND
     1    1    2 1   
     2    1   17 1   
     3    2    3 1   
     4    2    5 1   
     5    2   18 1   
     6    3    4 1   
     7    3   15 1   
     8    3   19 1   
     9    4   21 1   
    10    5    6 1   
    11    5   11 1   
    12    5   20 1   
    13    6    7 1   
    14    7    8 1   
    15    7    9 1   
    16    7   10 1   
    17   11   12 1   
    18   11   13 1   
    19   11   23 1   
    20   12   24 1   
    21   13   14 1   
    22   13   15 1   
    23   13   25 1   
    24   14   26 1   
    25   15   16 1   
    26   15   22 1   
    27   16   27 1   
@<TRIPOS>SUBSTRUCTURE
     1 I4D         1 TEMP              0 ****  ****    0 ROOT
