@<TRIPOS>MOLECULE
I4D
   27    27     1     0     0
SMALL
bcc


@<TRIPOS>ATOM
      1 O5         -1.9810   -1.2330   -0.2400 oh        1 I4D     -0.656800
      2 C5         -0.5670   -1.2600   -0.2740 c3        1 I4D      0.060600
      3 C6         -0.0410   -1.2700    1.1530 c3        1 I4D      0.122600
      4 O6          1.3530   -1.5210    1.1260 oh        1 I4D     -0.631800
      5 C4         -0.0700   -0.0580   -1.0690 c3        1 I4D      0.198100
      6 O4          1.3180   -0.2000   -1.2940 os        1 I4D     -0.552200
      7 P4          1.8360   -0.2770   -2.7850 p5        1 I4D      1.305900
      8 O43         1.4780    0.9990   -3.5090 o         1 I4D     -0.920500
      9 O42         3.3360   -0.4530   -2.7890 o         1 I4D     -0.920500
     10 O41         1.1900   -1.4500   -3.4830 o         1 I4D     -0.920500
     11 C3         -0.3190    1.2590   -0.3480 c3        1 I4D      0.060600
     12 O3         -1.7130    1.5100   -0.3210 oh        1 I4D     -0.656800
     13 C2          0.2070    1.2490    1.0790 c3        1 I4D      0.122600
     14 O2         -0.2140    2.4330    1.7300 oh        1 I4D     -0.631800
     15 C1         -0.2900    0.0460    1.8740 c3        1 I4D      0.095100
     16 O1         -1.6800    0.1890    2.0990 oh        1 I4D     -0.633800
     17 H5         -2.3010   -1.9810   -0.6010 ho        1 I4D      0.407500
     18 HA         -0.2760   -2.0780   -0.7240 h1        1 I4D      0.099200
     19 H6         -0.4820   -1.9900    1.6480 h1        1 I4D      0.069200
     20 H4         -0.5300   -0.0380   -1.9320 h1        1 I4D      0.060700
     21 HB          1.5440   -2.1960    1.6720 ho        1 I4D      0.434500
     22 H1          0.1700    0.0260    2.7370 h1        1 I4D      0.055700
     23 H3          0.1220    1.9790   -0.8420 h1        1 I4D      0.099200
     24 HC         -1.9060    2.1750   -0.8790 ho        1 I4D      0.407500
     25 H2          1.1840    1.2310    1.0560 h1        1 I4D      0.069200
     26 HD          0.4980    2.9100    1.9670 ho        1 I4D      0.434500
     27 HE         -1.8640   -0.0020    2.9480 ho        1 I4D      0.420000
@<TRIPOS>BOND
     1    1    2 1   
     2    1   17 1   
     3    2    3 1   
     4    2    5 1   
     5    2   18 1   
     6    3    4 1   
     7    3   15 1   
     8    3   19 1   
     9    4   21 1   
    10    5    6 1   
    11    5   11 1   
    12    5   20 1   
    13    6    7 1   
    14    7    8 1   
    15    7    9 1   
    16    7   10 1   
    17   11   12 1   
    18   11   13 1   
    19   11   23 1   
    20   12   24 1   
    21   13   14 1   
    22   13   15 1   
    23   13   25 1   
    24   14   26 1   
    25   15   16 1   
    26   15   22 1   
    27   16   27 1   
@<TRIPOS>SUBSTRUCTURE
     1 I4D         1 TEMP              0 ****  ****    0 ROOT
