@<TRIPOS>MOLECULE
I4D
   27    27     1     0     0
SMALL
bcc


@<TRIPOS>ATOM
      1 O5          0.2920    2.4050   -0.0090 oh        1 I4D     -0.622300
      2 C5          0.8680    1.2380    0.5440 c3        1 I4D      0.115600
      3 C6          2.2750    1.0560   -0.0540 c3        1 I4D      0.090600
      4 O6          3.0410    2.2100    0.2890 oh        1 I4D     -0.639300
      5 C4         -0.0290    0.0170    0.1880 c3        1 I4D      0.209100
      6 O4         -1.2730    0.1700    0.7240 os        1 I4D     -0.541200
      7 P4         -2.6080   -0.2110   -0.3480 p5        1 I4D      1.319900
      8 O43        -3.7600    0.5480    0.2290 o         1 I4D     -0.909500
      9 O42        -2.0840    0.1890   -1.6970 o         1 I4D     -0.909500
     10 O41        -2.5840   -1.7090   -0.1200 o         1 I4D     -0.909500
     11 C3          0.6710   -1.2340    0.8090 c3        1 I4D      0.115600
     12 O3         -0.0130   -2.4330    0.5470 oh        1 I4D     -0.622300
     13 C2          2.0920   -1.4460    0.2560 c3        1 I4D      0.090600
     14 O2          2.1090   -1.7610   -1.1290 oh        1 I4D     -0.639300
     15 C1          2.9590   -0.2040    0.4830 c3        1 I4D      0.098100
     16 O1          4.2390   -0.3390   -0.1270 oh        1 I4D     -0.642800
     17 H5          0.8270    3.1390    0.3200 ho        1 I4D      0.440000
     18 HA          0.9460    1.3420    1.6600 h1        1 I4D      0.016200
     19 H6          2.1960    0.9920   -1.1760 h1        1 I4D      0.044200
     20 H4         -0.0850   -0.0880   -0.9380 h1        1 I4D      0.079700
     21 HB          3.9480    2.0120    0.0290 ho        1 I4D      0.420500
     22 H1          3.1800   -0.0840    1.5800 h1        1 I4D      0.062700
     23 H3          0.7450   -1.0960    1.9250 h1        1 I4D      0.016200
     24 HC         -0.9770   -2.2080    0.3560 ho        1 I4D      0.440000
     25 H2          2.5740   -2.3210    0.7780 h1        1 I4D      0.044200
     26 HD          1.1840   -1.8460   -1.4090 ho        1 I4D      0.420500
     27 HE          4.0830   -0.6960   -1.0110 ho        1 I4D      0.414000
@<TRIPOS>BOND
     1    1    2 1   
     2    1   17 1   
     3    2    3 1   
     4    2    5 1   
     5    2   18 1   
     6    3    4 1   
     7    3   15 1   
     8    3   19 1   
     9    4   21 1   
    10    5    6 1   
    11    5   11 1   
    12    5   20 1   
    13    6    7 1   
    14    7    8 1   
    15    7    9 1   
    16    7   10 1   
    17   11   12 1   
    18   11   13 1   
    19   11   23 1   
    20   12   24 1   
    21   13   14 1   
    22   13   15 1   
    23   13   25 1   
    24   14   26 1   
    25   15   16 1   
    26   15   22 1   
    27   16   27 1   
@<TRIPOS>SUBSTRUCTURE
     1 I4D         1 TEMP              0 ****  ****    0 ROOT
