@<TRIPOS>MOLECULE
I4I
   70    64     1     0     0
SMALL
bcc


@<TRIPOS>ATOM
      1 C          -0.0570   -0.4630   -0.7730 c1        1 I4I      0.312000
      2 N           2.0350    0.5990   -1.3280 n         1 I4I     -0.367000
      3 O          -0.6270   -0.9000   -1.7520 o         1 I4I     -0.362000
      4 CA          1.4780   -0.5300   -0.6870 c2        1 I4I      0.005000
      5 CB          1.9070   -0.5490    0.7640 c3        1 I4I      0.026000
      6 CAA        -0.1120   -0.0480    5.5670 c3        1 I4I     -0.213500
      7 CAB         2.0270   -1.2640    5.1930 c3        1 I4I     -0.213500
      8 CAD        -3.3580   -1.7710    1.4720 c3        1 I4I     -0.216000
      9 OAE         3.2260   -0.6910   -2.8150 o         1 I4I     -0.330000
     10 OAG        -0.6270    0.3100    2.1140 o         1 I4I     -0.365000
     11 OAH         1.6780   -2.6490    2.1970 o         1 I4I     -0.343000
     12 OAI         5.8650    0.8960   -2.9750 oh        1 I4I     -0.222000
     13 OAJ        -4.4110    0.6830    0.6420 oh        1 I4I     -0.318000
     14 CAK        -3.8290   -1.5640   -4.3300 c1        1 I4I     -0.140750
     15 CAL         4.3010    3.5280   -4.9660 c1        1 I4I     -0.140750
     16 CAM        -4.5390   -0.4090   -4.6490 c1        1 I4I     -0.093000
     17 CAN         2.9710    3.3850   -4.5990 c1        1 I4I     -0.093000
     18 CAO        -3.1610   -1.6490   -3.1390 c1        1 I4I     -0.140750
     19 CAP         5.2560    2.7260   -4.4030 c1        1 I4I     -0.140750
     20 CAQ        -3.9020    0.5560   -2.5840 c1        1 I4I     -0.076000
     21 CAR        -2.6220   -0.8990   -0.8410 c3        1 I4I     -0.130000
     22 NAS        -4.5690    0.6390   -3.7740 n1        1 I4I     -0.117500
     23 NAT         2.6150    2.4440   -3.6760 n1        1 I4I     -0.117500
     24 NAV        -0.8060    0.2950    0.2220 n3        1 I4I     -0.372000
     25 OAX        -1.2410   -1.3060    3.5680 os        1 I4I     -0.251000
     26 CAY         2.9420    0.4240   -2.4350 c2        1 I4I      0.381000
     27 CBA        -1.3830   -0.5960    2.3720 c2        1 I4I      0.321000
     28 CBB         0.7520   -1.8740    2.3280 c1        1 I4I      0.301000
     29 CBC        -3.1920   -0.5970   -2.2620 c1        1 I4I     -0.123000
     30 CBD         4.8990    1.7860   -3.4800 c1        1 I4I      0.077000
     31 CBE         3.5660    1.6440   -3.1130 c1        1 I4I     -0.090000
     32 CBF         0.8120   -0.6380    4.5110 c3        1 I4I     -0.126000
     33 CBH        -2.8560   -0.4680    2.0450 c3        1 I4I     -0.117000
     34 CBI        -3.0610    0.6440    1.0280 c3        1 I4I      0.006000
     35 CBJ        -2.1990    0.3900   -0.1840 c3        1 I4I      0.055000
     36 CBL         0.0750   -1.6910    3.7320 c2        1 I4I      0.060000
     37 OG1         0.7520   -0.6120    1.6050 os        1 I4I     -0.282000
     38 CG2         2.6820    0.6940    1.0720 c3        1 I4I     -0.235000
     39 HN          1.8060    1.4350   -1.0560 hn        1 I4I      0.241000
     40 HA          1.7930   -1.3440   -1.1300 h4        1 I4I      0.167000
     41 HB          2.4720   -1.3340    0.9270 h1        1 I4I      0.128000
     42 HAA        -0.6000   -0.7760    6.0220 hc        1 I4I      0.083500
     43 HAAA        0.4170    0.4500    6.2220 hc        1 I4I      0.083500
     44 HAAB       -0.7510    0.5540    5.1400 hc        1 I4I      0.083500
     45 HAB         1.7480   -2.0740    5.6850 hc        1 I4I      0.083500
     46 HABA        2.4200   -0.6180    5.8200 hc        1 I4I      0.083500
     47 HABB        2.6890   -1.5060    4.5190 hc        1 I4I      0.083500
     48 HAD        -4.1790   -1.6090    0.9630 hc        1 I4I      0.100333
     49 HADA       -2.6800   -2.1490    0.8830 hc        1 I4I      0.100333
     50 HADB       -3.5450   -2.4030    2.2060 hc        1 I4I      0.100333
     51 HOAI        6.5770    1.3540   -2.7040 ho        1 I4I      0.226000
     52 HOAJ       -4.8000    1.4120    0.9880 ho        1 I4I      0.204000
     53 HAK        -3.8080   -2.3150   -4.9570 ha        1 I4I      0.150500
     54 HAL         4.5560    4.2020   -5.6280 ha        1 I4I      0.150500
     55 HAM        -5.0190   -0.3480   -5.5040 ha        1 I4I      0.162000
     56 HAN         2.2910    3.9550   -5.0000 ha        1 I4I      0.162000
     57 HAO        -2.6640   -2.4570   -2.9140 ha        1 I4I      0.150500
     58 HAP         6.1900    2.8270   -4.6600 ha        1 I4I      0.150500
     59 HAQ        -3.9240    1.3040   -1.9610 ha        1 I4I      0.156000
     60 HAR        -1.8530   -1.4900   -0.9200 hc        1 I4I      0.125500
     61 HARA       -3.3100   -1.3290   -0.3010 hc        1 I4I      0.125500
     62 HNAV       -0.4060    0.9950    0.6620 hn        1 I4I      0.236000
     63 HBF         1.1050    0.0640    3.9090 hc        1 I4I      0.122000
     64 HBH        -3.3540   -0.2590    2.8630 hc        1 I4I      0.113000
     65 HBI        -2.8130    1.5020    1.4300 h1        1 I4I      0.090000
     66 HBJ        -2.3030    1.1230   -0.8130 h1        1 I4I      0.099000
     67 HBL         0.1070   -2.5380    4.2200 h4        1 I4I      0.152000
     68 HG2         3.4640    0.7480    0.4800 hc        1 I4I      0.092000
     69 HG2A        2.9800    0.6710    2.0060 hc        1 I4I      0.092000
     70 HG2B        2.1110    1.4780    0.9310 hc        1 I4I      0.092000
@<TRIPOS>BOND
     1    1    3 1   
     2    1   24 1   
     3    2    4 1   
     4    2   26 1   
     5    2   39 1   
     6    4    5 1   
     7    4   40 1   
     8    5   37 1   
     9    5   38 1   
    10    5   41 1   
    11    6   32 1   
    12    6   42 1   
    13    6   43 1   
    14    6   44 1   
    15    7   32 1   
    16    7   45 1   
    17    7   46 1   
    18    7   47 1   
    19    8   33 1   
    20    8   48 1   
    21    8   49 1   
    22    8   50 1   
    23    9   26 1   
    24   10   27 1   
    25   11   28 1   
    26   12   30 1   
    27   12   51 1   
    28   13   34 1   
    29   13   52 1   
    30   14   18 1   
    31   14   53 1   
    32   15   19 1   
    33   15   54 1   
    34   16   22 1   
    35   16   55 1   
    36   17   23 1   
    37   17   56 1   
    38   18   57 1   
    39   19   58 1   
    40   20   29 1   
    41   20   59 1   
    42   21   29 1   
    43   21   35 1   
    44   21   60 1   
    45   21   61 1   
    46   24   35 1   
    47   24   62 1   
    48   25   27 1   
    49   25   36 1   
    50   26   31 1   
    51   27   33 1   
    52   28   37 1   
    53   30   31 1   
    54   32   36 1   
    55   32   63 1   
    56   33   34 1   
    57   33   64 1   
    58   34   35 1   
    59   34   65 1   
    60   35   66 1   
    61   36   67 1   
    62   38   68 1   
    63   38   69 1   
    64   38   70 1   
@<TRIPOS>SUBSTRUCTURE
     1 I4I         1 TEMP              0 ****  ****    0 ROOT
