@<TRIPOS>MOLECULE
I4I
   72    70     1     0     0
SMALL
bcc


@<TRIPOS>ATOM
      1 C           0.1650   -0.6680   -0.4760 c2        1 I4I      0.314000
      2 N           2.6100   -0.2420   -0.4200 n         1 I4I     -0.355000
      3 O          -0.8550   -1.4530   -0.0930 os        1 I4I     -0.195000
      4 CA          1.5810   -1.2260   -0.4470 c3        1 I4I      0.029000
      5 CB          3.1840    0.4160    3.3030 c1        1 I4I     -0.074000
      6 CAD        -3.8560   -1.0190    1.6010 c2        1 I4I     -0.029000
      7 OAG        -1.4110    1.4490    1.8120 o         1 I4I     -0.349000
      8 OAH         0.9750    0.1040    1.9590 o         1 I4I     -0.424000
      9 OAJ        -2.8620   -1.4890   -1.0830 oh        1 I4I     -0.288000
     10 CAK         0.3670    2.0530   -4.8560 c3        1 I4I     -0.129000
     11 CAL         6.1020    3.3820   -1.5770 c2        1 I4I     -0.108000
     12 CAM         0.7040    1.4500   -6.1230 c1        1 I4I     -0.212000
     13 CAN         5.7840    2.6740   -0.3540 c1        1 I4I     -0.085000
     14 CAO        -0.6260    1.2840   -4.1110 c2        1 I4I      0.253000
     15 CAP         5.3900    3.1580   -2.7210 c2        1 I4I     -0.125000
     16 CAQ        -1.8170    3.1340   -3.0490 c2        1 I4I      0.122000
     17 CAR        -2.2990    0.8030   -2.3350 c3        1 I4I     -0.150000
     18 NAS         0.9930    0.9940   -7.1530 n1        1 I4I      0.119000
     19 NAT         4.7790    1.8010   -0.3670 n3        1 I4I     -0.095000
     20 NAV        -0.2520    0.5280   -0.9140 n3        1 I4I     -0.264000
     21 OAX        -1.4470   -0.3340    3.1900 os        1 I4I     -0.233000
     22 CAY         2.8580    0.5900   -1.4990 c2        1 I4I      0.378000
     23 CBA        -1.8250    0.3120    2.0510 c2        1 I4I      0.355000
     24 CBB         0.8630    0.2430    3.1820 c2        1 I4I      0.323000
     25 CBC        -1.5390    1.7940   -3.1690 c2        1 I4I     -0.251000
     26 CBD         4.3180    2.2020   -2.6870 c2        1 I4I      0.140000
     27 CBE         3.9960    1.5310   -1.5010 c2        1 I4I     -0.231000
     28 CBF        -0.7470    1.5870    4.6210 c3        1 I4I     -0.121000
     29 CBH        -2.6970   -0.5050    1.1730 c2        1 I4I     -0.231000
     30 CBI        -2.1600   -0.6880   -0.2100 c3        1 I4I      0.261000
     31 CBJ        -1.7150    0.6510   -0.9250 c3        1 I4I     -0.020000
     32 CBL        -0.4070    0.2230    4.0110 c3        1 I4I      0.061000
     33 OG1         2.0070    0.3900    3.9370 os        1 I4I     -0.080000
     34 CG2         4.2820    0.4590    2.8360 c1        1 I4I     -0.182000
     35 HN          3.0370   -0.0820    0.4690 hn        1 I4I      0.273000
     36 HA          1.6580   -1.8790    0.4750 h1        1 I4I      0.179000
     37 HB          1.6620   -1.8670   -1.3800 h1        1 I4I      0.179000
     38 HAA        -2.4200    2.5870    5.5610 hc        1 I4I      0.095500
     39 HAAA       -2.8820    1.4350    4.2380 hc        1 I4I      0.095500
     40 HAAB       -2.3600    0.7990    5.8560 hc        1 I4I      0.095500
     41 HAB         1.2500    1.8770    5.4540 hc        1 I4I      0.095500
     42 HABA        0.0510    1.1340    6.5970 hc        1 I4I      0.095500
     43 HABB       -0.0520    2.8970    6.1930 hc        1 I4I      0.095500
     44 HAD        -1.5500   -3.8070   -0.3360 ha        1 I4I      0.002833
     45 HADA       -4.5270   -1.6090    0.9550 ha        1 I4I      0.167000
     46 HADB       -4.2110   -0.8640    2.6350 ha        1 I4I      0.167000
     47 HOAI        3.4310    1.1000   -3.9790 ho        1 I4I      0.248000
     48 HOAJ       -3.1200   -2.3140   -0.6300 ho        1 I4I      0.276000
     49 HAM         0.0960    3.1390   -5.0100 hc        1 I4I      0.212500
     50 HAN         4.5830    1.3220    0.4870 hn        1 I4I      0.256000
     51 HAO         1.3210    2.0570   -4.1970 hc        1 I4I      0.212500
     52 HAP         5.5990    3.6650   -3.6770 ha        1 I4I      0.182000
     53 HAQ        -1.3260    3.9110   -3.6620 ha        1 I4I      0.179500
     54 HAR        -2.0100    1.5370   -0.2830 h1        1 I4I      0.191000
     55 HARA       -2.3260   -0.1970   -2.8530 hc        1 I4I      0.153500
     56 HNAV       -0.1610    3.9570   -0.8070 ha        1 I4I      0.002833
     57 HBF        -0.6180    2.3760    3.8250 hc        1 I4I      0.118000
     58 HBH        -1.7250   -3.6960    0.3090 ha        1 I4I      0.002833
     59 HBI        -3.3700    1.1280   -2.2180 hc        1 I4I      0.153500
     60 HBJ         0.3480    1.2880   -1.1570 hn        1 I4I      0.301000
     61 HBL        -0.3090   -0.5600    4.8260 h1        1 I4I      0.188000
     62 HG2         0.6260    2.6170    1.5620 ha        1 I4I      0.002833
     63 HG2A        0.5820    2.6730    0.8870 ha        1 I4I      0.002833
     64 HG2B        5.2960    0.5020    2.5120 ha        1 I4I      0.268000
     65 HAK        -0.6240    0.1820   -4.2860 ha        1 I4I      0.197000
     66 CAA        -2.1870    1.5990    5.0960 c3        1 I4I     -0.218500
     67 CAB         0.1820    1.8850    5.7800 c3        1 I4I     -0.218500
     68 OAE         2.0670    0.5440   -2.4840 o         1 I4I     -0.488000
     69 OAI         3.6070    2.0500   -3.8480 oh        1 I4I     -0.263000
     70 H2         -2.5890    3.4980   -2.3440 ha        1 I4I      0.179500
     71 HAV2       -0.3630    3.5180   -1.2860 ha        1 I4I      0.002833
     72 HAL         6.9440    4.0940   -1.5340 ha        1 I4I      0.195000
@<TRIPOS>BOND
     1    1    3 1   
     2    1    4 1   
     3    1   20 1   
     4    2    4 1   
     5    2   22 1   
     6    2   35 1   
     7    3   30 1   
     8    4   36 1   
     9    4   37 1   
    10    5   33 1   
    11    5   34 1   
    12    6   29 1   
    13    6   45 1   
    14    6   46 1   
    15    7   23 1   
    16    8   24 1   
    17    9   30 1   
    18    9   48 1   
    19   10   12 1   
    20   10   14 1   
    21   10   49 1   
    22   10   51 1   
    23   11   13 1   
    24   11   15 1   
    25   11   72 1   
    26   12   18 1   
    27   13   19 1   
    28   14   25 1   
    29   14   65 1   
    30   15   26 1   
    31   15   52 1   
    32   16   25 1   
    33   16   53 1   
    34   16   70 1   
    35   17   25 1   
    36   17   31 1   
    37   17   55 1   
    38   17   59 1   
    39   19   27 1   
    40   19   50 1   
    41   20   31 1   
    42   20   60 1   
    43   21   23 1   
    44   21   32 1   
    45   22   27 1   
    46   22   68 1   
    47   23   29 1   
    48   24   32 1   
    49   24   33 1   
    50   26   27 1   
    51   26   69 1   
    52   28   32 1   
    53   28   57 1   
    54   28   66 1   
    55   28   67 1   
    56   29   30 1   
    57   30   31 1   
    58   31   54 1   
    59   32   61 1   
    60   34   64 1   
    61   38   66 1   
    62   39   66 1   
    63   40   66 1   
    64   41   67 1   
    65   42   67 1   
    66   43   67 1   
    67   44   58 1   
    68   47   69 1   
    69   56   71 1   
    70   62   63 1   
@<TRIPOS>SUBSTRUCTURE
     1 I4I         1 TEMP              0 ****  ****    0 ROOT
