@<TRIPOS>MOLECULE
I4I
   72    68     1     0     0
SMALL
bcc


@<TRIPOS>ATOM
      1 C          -0.6730   -0.3050   -0.7830 c2        1 I4I      0.294000
      2 N           1.6260    0.7820   -1.0110 ny        1 I4I     -0.093000
      3 O          -1.4130   -1.2290   -1.1530 o         1 I4I     -0.302000
      4 CA          0.8410   -0.4770   -0.9560 c3        1 I4I     -0.145000
      5 CB          3.3810    0.1010    2.9590 c1        1 I4I     -0.102000
      6 CAD        -3.5980   -1.0650    2.9350 c3        1 I4I     -0.203000
      7 OAG        -1.4910    1.8770    2.4210 o         1 I4I     -0.324000
      8 OAH         0.9900    0.5660    1.9330 o         1 I4I     -0.417000
      9 OAJ        -4.3290   -0.4110    0.1230 oh        1 I4I     -0.178000
     10 CAK         1.6410    0.6590   -6.5910 c2        1 I4I     -0.152000
     11 CAL         5.5630    3.9980   -1.9310 c2        1 I4I     -0.092000
     12 CAM         1.6640    0.6670   -5.1730 c1        1 I4I      0.012000
     13 CAN         4.2280    4.1300   -1.3710 c1        1 I4I     -0.075000
     14 CAO         1.6900   -0.4580   -7.3210 c2        1 I4I     -0.099000
     15 CAP         6.0360    2.7820   -2.3150 c2        1 I4I     -0.137000
     16 CAQ        -2.3070    3.2600   -2.9520 c1        1 I4I     -0.150000
     17 CAR        -3.2540    1.2720   -1.5200 c3        1 I4I     -0.048000
     18 NAS         1.6830    0.7000   -4.0080 n1        1 I4I     -0.216000
     19 NAT         3.4800    3.0440   -1.2460 n7        1 I4I     -0.107000
     20 NAV        -1.1540    0.8680   -0.2240 ns        1 I4I     -0.383000
     21 OAX        -1.2420    0.0490    3.6920 os        1 I4I     -0.311000
     22 CAY         3.0580    0.5660   -1.4710 c2        1 I4I      0.340000
     23 CBA        -1.8850    0.7420    2.6880 c2        1 I4I      0.367000
     24 CBB         1.0770    0.4510    3.1590 c2        1 I4I      0.325000
     25 CBC        -2.7220    2.3550   -2.2880 c1        1 I4I     -0.215000
     26 CBD         5.1900    1.6160   -2.1660 c2        1 I4I      0.224000
     27 CBE         3.8960    1.7410   -1.6200 c2        1 I4I     -0.307000
     28 CBF        -0.0910    1.9480    4.7990 c3        1 I4I     -0.177000
     29 CBH        -2.9830   -0.0220    2.0860 c2        1 I4I     -0.383000
     30 CBI        -3.3150    0.1910    0.7710 c2        1 I4I      0.218000
     31 CBJ        -2.5620    1.1730   -0.1420 c3        1 I4I      0.059000
     32 CBL        -0.0050    0.5400    4.2220 c3        1 I4I      0.066000
     33 OG1         2.3000    0.1980    3.7390 os        1 I4I     -0.085000
     34 CG2         4.4260   -0.0150    2.3940 c1        1 I4I     -0.136000
     35 HN          1.6480    1.2070   -0.0700 hn        1 I4I      0.270000
     36 HA          1.2250   -1.0990   -0.0950 hx        1 I4I      0.188000
     37 HB          1.0080   -1.0540   -1.9170 hx        1 I4I      0.188000
     38 HAA        -1.1300    2.1000    5.1950 hc        1 I4I      0.115000
     39 HAAA       -4.5940    0.4410    4.2230 ha        1 I4I      0.195000
     40 HAAB       -5.0470   -1.3670    4.5770 ha        1 I4I      0.195000
     41 HAB         1.9490    1.8930    5.5430 hc        1 I4I      0.101333
     42 HABA        0.9080    3.2070    6.2390 hc        1 I4I      0.101333
     43 HABB        0.6850    1.4920    6.7790 hc        1 I4I      0.101333
     44 HAD        -4.0070   -1.9480    2.3410 hc        1 I4I      0.250500
     45 HADA       -2.9910   -2.7880   -0.2060 ha        1 I4I      0.002667
     46 HADB       -2.7450   -1.6020    3.5350 hc        1 I4I      0.250500
     47 HOAI        5.1790   -0.2900   -2.5440 ho        1 I4I      0.267000
     48 HOAJ       -4.7760   -1.0730    0.6770 ho        1 I4I      0.237000
     49 HAM         1.6710   -0.4210   -8.4220 ha        1 I4I      0.143500
     50 HAN         2.5700    3.1720   -0.8600 hn        1 I4I      0.245000
     51 HAO         1.5790    1.6620   -7.0530 ha        1 I4I      0.173000
     52 HAP         7.0400    2.6230   -2.7450 ha        1 I4I      0.194000
     53 HAQ        -1.9630    4.0700   -3.5500 ha        1 I4I      0.241000
     54 HAR        -2.6510    2.1880    0.3670 h1        1 I4I      0.167000
     55 HARA       -3.1430    0.2970   -2.0760 hc        1 I4I      0.137500
     56 HNAV       -0.0470    3.5540   -1.6940 ha        1 I4I      0.002667
     57 HBF         0.0660    2.7060    3.9850 hc        1 I4I      0.115000
     58 HBH        -3.1610   -2.5890    0.4210 ha        1 I4I      0.002667
     59 HBI        -4.3550    1.4380   -1.3460 hc        1 I4I      0.137500
     60 HBJ        -0.5780    1.3670    0.4250 hn        1 I4I      0.254000
     61 HBL         0.2170   -0.2160    5.0380 h1        1 I4I      0.177000
     62 HG2         0.5270    2.9610    1.5320 ha        1 I4I      0.002667
     63 HG2A        0.8510    2.9130    0.9360 ha        1 I4I      0.002667
     64 HG2B        5.3720   -0.1260    1.9230 ha        1 I4I      0.262000
     65 HAK         1.7520   -1.4660   -6.8870 ha        1 I4I      0.143500
     66 CAA        -4.4790   -0.6340    3.9670 c2        1 I4I      0.273000
     67 CAB         0.9190    2.1410    5.9010 c3        1 I4I     -0.229000
     68 OAE         3.3800   -0.6060   -1.6610 o         1 I4I     -0.249000
     69 OAI         5.7780    0.4770   -2.5830 oh        1 I4I     -0.198000
     70 H2          1.1710    1.4380   -1.6650 hn        1 I4I      0.270000
     71 HAV2        0.4010    3.3600   -1.2210 ha        1 I4I      0.002667
     72 HAL         6.1560    4.9240   -2.0230 ha        1 I4I      0.198000
@<TRIPOS>BOND
     1    1    3 1   
     2    1    4 1   
     3    1   20 1   
     4    2    4 1   
     5    2   22 1   
     6    2   35 1   
     7    2   70 1   
     8    4   36 1   
     9    4   37 1   
    10    5   33 1   
    11    5   34 1   
    12    6   29 1   
    13    6   44 1   
    14    6   46 1   
    15    6   66 1   
    16    7   23 1   
    17    8   24 1   
    18    9   30 1   
    19    9   48 1   
    20   10   12 1   
    21   10   14 1   
    22   10   51 1   
    23   11   13 1   
    24   11   15 1   
    25   11   72 1   
    26   12   18 1   
    27   13   19 1   
    28   14   49 1   
    29   14   65 1   
    30   15   26 1   
    31   15   52 1   
    32   16   25 1   
    33   16   53 1   
    34   17   25 1   
    35   17   31 1   
    36   17   55 1   
    37   17   59 1   
    38   19   27 1   
    39   19   50 1   
    40   20   31 1   
    41   20   60 1   
    42   21   23 1   
    43   21   32 1   
    44   22   27 1   
    45   22   68 1   
    46   23   29 1   
    47   24   32 1   
    48   24   33 1   
    49   26   27 1   
    50   26   69 1   
    51   28   32 1   
    52   28   38 1   
    53   28   57 1   
    54   28   67 1   
    55   29   30 1   
    56   30   31 1   
    57   31   54 1   
    58   32   61 1   
    59   34   64 1   
    60   39   66 1   
    61   40   66 1   
    62   41   67 1   
    63   42   67 1   
    64   43   67 1   
    65   45   58 1   
    66   47   69 1   
    67   56   71 1   
    68   62   63 1   
@<TRIPOS>SUBSTRUCTURE
     1 I4I         1 TEMP              0 ****  ****    0 ROOT
