@<TRIPOS>MOLECULE
I4I
   70    72     1     0     0
SMALL
bcc


@<TRIPOS>ATOM
      1 C          -0.0180   -0.4040    1.2570 c         1 I4I      0.663100
      2 N           1.1380    1.4400   -0.0430 n         1 I4I     -0.539900
      3 O          -0.3810   -0.8090    2.3810 o         1 I4I     -0.631100
      4 CA          0.4800    1.0700    1.1800 c3        1 I4I      0.030700
      5 CB         -0.7350    1.9740    1.5220 c3        1 I4I      0.142100
      6 CAD        -3.2440   -2.1300    1.0120 c3        1 I4I     -0.098100
      7 OAG        -2.0350    0.0320   -1.5840 o         1 I4I     -0.537000
      8 OAH        -3.2580    2.8300    1.6570 o         1 I4I     -0.523000
      9 OAJ        -1.9180   -4.1120   -0.9690 oh        1 I4I     -0.589800
     10 CAK         2.8380   -3.6750    3.1590 ca        1 I4I     -0.246300
     11 CAL         4.2040    3.0100   -3.7760 ca        1 I4I     -0.185300
     12 CAM         3.4600   -4.6800    2.3990 ca        1 I4I      0.388200
     13 CAN         2.8360    3.1780   -3.4490 ca        1 I4I      0.355200
     14 CAO         1.5650   -3.2440    2.7840 ca        1 I4I     -0.082000
     15 CAP         5.0310    2.3890   -2.8600 ca        1 I4I     -0.140000
     16 CAQ         1.6630   -4.8290    0.9720 ca        1 I4I      0.390200
     17 CAR        -0.4120   -3.4280    1.2330 c3        1 I4I     -0.042100
     18 NAS         2.8900   -5.2540    1.3210 nb        1 I4I     -0.669000
     19 NAT         2.2960    2.7640   -2.3020 nb        1 I4I     -0.628000
     20 NAV        -0.0050   -1.1760    0.1220 n         1 I4I     -0.546900
     21 OAX        -3.9330    0.1840   -0.3790 os        1 I4I     -0.429900
     22 CAY         2.4900    1.6990   -0.0900 c         1 I4I      0.588600
     23 CBA        -2.8630   -0.5240   -0.8640 c         1 I4I      0.650100
     24 CBB        -2.9870    2.1270    0.6850 c         1 I4I      0.616100
     25 CBC         0.9530   -3.8250    1.6670 ca        1 I4I     -0.196600
     26 CBD         4.4800    1.9480   -1.6280 ca        1 I4I      0.098800
     27 CBE         3.0970    2.1480   -1.3890 ca        1 I4I      0.257800
     28 CBF        -3.7510    2.2940   -1.7140 c3        1 I4I     -0.093700
     29 CBH        -2.9310   -1.9770   -0.4590 c3        1 I4I     -0.133700
     30 CBI        -1.6620   -2.7170   -0.9050 c3        1 I4I      0.119100
     31 CBJ        -0.3710   -2.5630   -0.0350 c3        1 I4I      0.132700
     32 CBL        -3.9580    1.6090   -0.3620 c3        1 I4I      0.127100
     33 OG1        -1.7010    1.7240    0.4800 os        1 I4I     -0.443900
     34 CG2        -0.3610    3.4380    1.5820 c3        1 I4I     -0.128100
     35 HN          0.5500    1.6770   -0.8110 hn        1 I4I      0.347500
     36 HA          1.2150    1.1720    2.0400 h1        1 I4I      0.127700
     37 HB         -1.1680    1.6300    2.5040 h1        1 I4I      0.095700
     38 HAA        -4.4880    2.1740   -3.7460 hc        1 I4I      0.042033
     39 HAAA       -4.4050    0.5850   -2.8720 hc        1 I4I      0.042033
     40 HAAB       -5.7210    1.7710   -2.4780 hc        1 I4I      0.042033
     41 HAB        -5.1170    3.9490   -1.3390 hc        1 I4I      0.042033
     42 HABA       -3.4180    4.2260   -0.7690 hc        1 I4I      0.042033
     43 HABB       -3.8060    4.2930   -2.5410 hc        1 I4I      0.042033
     44 HAD        -4.2730   -1.7490    1.2240 hc        1 I4I      0.061033
     45 HADA       -3.1860   -3.2110    1.2890 hc        1 I4I      0.061033
     46 HADB       -2.5190   -1.5560    1.6400 hc        1 I4I      0.061033
     47 HOAI        4.9450    1.1350    0.0610 ho        1 I4I      0.469000
     48 HOAJ       -2.5740   -4.2470   -1.6640 ho        1 I4I      0.406000
     49 HAL         4.5880    3.3710   -4.7400 ha        1 I4I      0.151000
     50 HAM         4.4670   -5.0490    2.6620 h4        1 I4I      0.019100
     51 HAN         2.1450    3.6750   -4.1540 h4        1 I4I      0.029100
     52 HAO         1.0440   -2.4500    3.3450 ha        1 I4I      0.162000
     53 HAP         6.1030    2.2290   -3.0510 ha        1 I4I      0.164000
     54 HAQ         1.2150   -5.3200    0.0880 h4        1 I4I      0.021100
     55 HAR        -0.9990   -4.3580    0.9960 hc        1 I4I      0.086200
     56 HARA       -0.9430   -2.9010    2.0700 hc        1 I4I      0.086200
     57 HNAV        0.0920   -0.7020   -0.7520 hn        1 I4I      0.328500
     58 HBF        -2.6740    2.1550   -2.0200 hc        1 I4I      0.094700
     59 HBH        -3.7950   -2.4140   -1.0460 hc        1 I4I      0.077700
     60 HBI        -1.4070   -2.3420   -1.9430 h1        1 I4I      0.047700
     61 HBJ         0.4440   -3.0170   -0.6910 h1        1 I4I      0.062700
     62 HBL        -5.0070    1.8140    0.0180 h1        1 I4I      0.111700
     63 HG2        -0.1400    3.8380    0.5630 hc        1 I4I      0.059700
     64 HG2A       -1.2100    4.0240    2.0150 hc        1 I4I      0.059700
     65 HG2B        0.5390    3.5710    2.2280 hc        1 I4I      0.059700
     66 HAK         3.3480   -3.2390    4.0290 ha        1 I4I      0.143000
     67 CAA        -4.6460    1.6700   -2.7630 c3        1 I4I     -0.092100
     68 CAB        -4.0410    3.7750   -1.5810 c3        1 I4I     -0.092100
     69 OAE         3.2120    1.5330    0.9210 o         1 I4I     -0.641100
     70 OAI         5.3680    1.3490   -0.7890 oh        1 I4I     -0.492100
@<TRIPOS>BOND
     1    1    3 2   
     2    1    4 1   
     3    1   20 1   
     4    2    4 1   
     5    2   22 1   
     6    2   35 1   
     7    4    5 1   
     8    4   36 1   
     9    5   33 1   
    10    5   34 1   
    11    5   37 1   
    12    6   29 1   
    13    6   44 1   
    14    6   45 1   
    15    6   46 1   
    16    7   23 2   
    17    8   24 2   
    18    9   30 1   
    19    9   48 1   
    20   10   12 ar  
    21   10   14 ar  
    22   10   66 1   
    23   11   13 ar  
    24   11   15 ar  
    25   11   49 1   
    26   12   18 ar  
    27   12   50 1   
    28   13   19 ar  
    29   13   51 1   
    30   14   25 ar  
    31   14   52 1   
    32   15   26 ar  
    33   15   53 1   
    34   16   18 ar  
    35   16   25 ar  
    36   16   54 1   
    37   17   25 1   
    38   17   31 1   
    39   17   55 1   
    40   17   56 1   
    41   19   27 ar  
    42   20   31 1   
    43   20   57 1   
    44   21   23 1   
    45   21   32 1   
    46   22   27 1   
    47   22   69 2   
    48   23   29 1   
    49   24   32 1   
    50   24   33 1   
    51   26   27 ar  
    52   26   70 1   
    53   28   32 1   
    54   28   58 1   
    55   28   67 1   
    56   28   68 1   
    57   29   30 1   
    58   29   59 1   
    59   30   31 1   
    60   30   60 1   
    61   31   61 1   
    62   32   62 1   
    63   34   63 1   
    64   34   64 1   
    65   34   65 1   
    66   38   67 1   
    67   39   67 1   
    68   40   67 1   
    69   41   68 1   
    70   42   68 1   
    71   43   68 1   
    72   47   70 1   
@<TRIPOS>SUBSTRUCTURE
     1 I4I         1 TEMP              0 ****  ****    0 ROOT
