@<TRIPOS>MOLECULE
I4I
   72    69     1     0     0
SMALL
bcc


@<TRIPOS>ATOM
      1 C           1.1380    1.3060   -0.0140 c2        1 I4I      0.334000
      2 N           2.8850    3.0370   -0.6420 n         1 I4I     -0.371000
      3 O           0.9440    0.2020    0.5500 o         1 I4I     -0.459000
      4 CA          2.4630    2.0310    0.2890 c3        1 I4I     -0.046000
      5 CB          3.5570   -2.4590    4.4070 c1        1 I4I     -0.127000
      6 CAD        -5.2720   -0.6080    1.2420 c3        1 I4I     -0.281500
      7 OAG        -1.8780    1.7180    3.1960 oh        1 I4I     -0.276000
      8 OAH         1.3510   -1.7170    2.0400 o         1 I4I      0.121000
      9 OAJ        -3.2380    0.7810   -1.0990 oh        1 I4I     -0.258000
     10 CAK         0.4430   -1.2370   -5.4570 c2        1 I4I     -0.257000
     11 CAL         4.9640    5.6780   -4.4910 c2        1 I4I     -0.122000
     12 CAM        -0.1100   -0.1890   -6.2370 c2        1 I4I      0.171000
     13 CAN         4.1110    6.0720   -3.3890 c1        1 I4I     -0.098000
     14 CAO         0.5350   -1.1040   -4.0920 c2        1 I4I      0.085000
     15 CAP         5.1860    4.3620   -4.7690 c2        1 I4I     -0.125000
     16 CAQ        -0.4830    1.1870   -4.3030 c1        1 I4I      0.073000
     17 CAR        -0.6620   -0.0700   -2.1560 c3        1 I4I     -0.130000
     18 NAS        -0.5520    0.9550   -5.6460 n3        1 I4I     -0.169000
     19 NAT         3.5760    5.1200   -2.6320 n3        1 I4I     -0.093000
     20 NAV         0.2280    1.8820   -0.8630 n         1 I4I     -0.352000
     21 OAX        -1.6580   -0.4440    2.7610 os        1 I4I     -0.126000
     22 CAY         3.1670    2.7230   -1.9620 c2        1 I4I      0.370000
     23 CBA        -1.8370    0.8170    2.1740 c2        1 I4I      0.259000
     24 CBB         0.5530   -1.2010    2.6980 c1        1 I4I      0.470000
     25 CBC         0.1440    0.1570   -3.4350 c3        1 I4I     -0.261000
     26 CBD         4.5740    3.3630   -3.9270 c2        1 I4I      0.145000
     27 CBE         3.7800    3.7430   -2.8440 c2        1 I4I     -0.264000
     28 CBF        -0.3860   -0.2950    4.7900 c2        1 I4I      0.112000
     29 CBH        -1.9550    0.9630    0.8860 c1        1 I4I     -0.422000
     30 CBI        -2.0660    0.9810   -0.4170 c2        1 I4I      0.201000
     31 CBJ        -0.9440    1.2540   -1.4150 c3        1 I4I      0.073000
     32 CBL        -0.4640   -0.6000    3.4640 c2        1 I4I     -0.097000
     33 OG1         2.4400   -2.8700    3.8110 oh        1 I4I     -0.230000
     34 CG2         4.5430   -2.0420    4.9360 c1        1 I4I     -0.164000
     35 HN          2.3480    2.5080    1.3050 h1        1 I4I      0.132500
     36 HA          2.5200   -3.8420    3.7330 ho        1 I4I      0.260000
     37 HB          3.2380    1.2090    0.3580 h1        1 I4I      0.132500
     38 HAA        -2.7320    1.4080    6.8590 hc        1 I4I      0.071125
     39 HAAA       -4.5030    1.3890    6.4730 hc        1 I4I      0.071125
     40 HAAB       -3.5270   -0.1280    6.2930 hc        1 I4I      0.071125
     41 HAB         1.1310    0.3970    6.1030 hc        1 I4I      0.147000
     42 HABA        0.4140   -1.2050    6.5290 hc        1 I4I      0.147000
     43 HABB        1.5990   -1.0890    5.1510 hc        1 I4I      0.147000
     44 HAD        -5.7880   -1.1870    2.0380 hc        1 I4I      0.071125
     45 HADA       -4.2270   -0.3910    1.5630 hc        1 I4I      0.071125
     46 HADB       -5.8180    0.3450    1.0700 hc        1 I4I      0.071125
     47 HOAI        4.5420    1.4620   -3.6090 ho        1 I4I      0.244000
     48 HOAJ       -3.9550    0.5910   -0.4660 ho        1 I4I      0.260000
     49 HAM        -0.1960   -0.2950   -7.3450 h4        1 I4I      0.221000
     50 HAN         2.9700    5.4020   -1.8910 hn        1 I4I      0.254000
     51 HAO         0.7740   -2.1560   -5.9740 ha        1 I4I      0.212000
     52 HAP         5.8170    4.0110   -5.6010 ha        1 I4I      0.177000
     53 HAQ        -0.9710    1.6810   -6.2100 hn        1 I4I      0.311000
     54 HAR         1.1390    0.6680   -3.1100 hc        1 I4I      0.274000
     55 HARA       -0.1010   -0.7750   -1.4870 hc        1 I4I      0.130500
     56 HNAV        0.4060    2.8030   -1.1970 hn        1 I4I      0.255000
     57 HBF        -1.2780    0.2090    5.2400 ha        1 I4I      0.216000
     58 HBH        -5.2590   -1.2070    0.3040 hc        1 I4I      0.071125
     59 HBI        -1.6510   -0.5340   -2.4180 hc        1 I4I      0.130500
     60 HBJ        -1.3760    1.9870   -2.1750 h1        1 I4I      0.162000
     61 HBL        -3.2850    1.2540    5.1320 hc        1 I4I      0.071125
     62 HG2        -1.4610    2.6440    5.3020 ha        1 I4I      0.002500
     63 HG2A       -1.3630    3.2330    4.9790 ha        1 I4I      0.002500
     64 HG2B        5.4180   -1.6720    5.4120 ha        1 I4I      0.261000
     65 HAK         0.9190   -1.9280   -3.4610 ha        1 I4I      0.193000
     66 CAA        -3.5090    0.9790    6.1880 c3        1 I4I     -0.281500
     67 CAB         0.7510   -0.5670    5.6640 c3        1 I4I     -0.272000
     68 OAE         2.8630    1.5840   -2.4040 o         1 I4I     -0.452000
     69 OAI         4.8380    2.0790   -4.2980 oh        1 I4I     -0.232000
     70 H2          3.2980    3.8510   -0.2420 hn        1 I4I      0.253000
     71 HAV2       -2.3530    2.5120    2.9000 ho        1 I4I      0.269000
     72 HAL         5.4120    6.4910   -5.0860 ha        1 I4I      0.187000
@<TRIPOS>BOND
     1    1    3 1   
     2    1    4 1   
     3    1   20 1   
     4    2    4 1   
     5    2   22 1   
     6    2   70 1   
     7    4   35 1   
     8    4   37 1   
     9    5   33 1   
    10    5   34 1   
    11    6   44 1   
    12    6   45 1   
    13    6   46 1   
    14    6   58 1   
    15    7   23 1   
    16    7   71 1   
    17    8   24 1   
    18    9   30 1   
    19    9   48 1   
    20   10   12 1   
    21   10   14 1   
    22   10   51 1   
    23   11   13 1   
    24   11   15 1   
    25   11   72 1   
    26   12   18 1   
    27   12   49 1   
    28   13   19 1   
    29   14   25 1   
    30   14   65 1   
    31   15   26 1   
    32   15   52 1   
    33   16   18 1   
    34   16   25 1   
    35   17   25 1   
    36   17   31 1   
    37   17   55 1   
    38   17   59 1   
    39   18   53 1   
    40   19   27 1   
    41   19   50 1   
    42   20   31 1   
    43   20   56 1   
    44   21   23 1   
    45   21   32 1   
    46   22   27 1   
    47   22   68 1   
    48   23   29 1   
    49   24   32 1   
    50   25   54 1   
    51   26   27 1   
    52   26   69 1   
    53   28   32 1   
    54   28   57 1   
    55   28   67 1   
    56   29   30 1   
    57   30   31 1   
    58   31   60 1   
    59   33   36 1   
    60   34   64 1   
    61   38   66 1   
    62   39   66 1   
    63   40   66 1   
    64   41   67 1   
    65   42   67 1   
    66   43   67 1   
    67   47   69 1   
    68   61   66 1   
    69   62   63 1   
@<TRIPOS>SUBSTRUCTURE
     1 I4I         1 TEMP              0 ****  ****    0 ROOT
