@<TRIPOS>MOLECULE
I4P
   36    36     1     0     0
SMALL
bcc


@<TRIPOS>ATOM
      1 O41        -2.2690   -3.4910    1.2310 o         1 I4P     -0.980083
      2 P1         -0.7610   -3.5190    1.1530 p5        1 I4P      1.380900
      3 O21        -0.1850   -3.5660    2.5480 o         1 I4P     -0.980083
      4 O31        -0.3190   -4.7410    0.3850 o         1 I4P     -0.980083
      5 O11        -0.2480   -2.2190    0.4150 os        1 I4P     -0.624450
      6 C1         -0.6160   -0.9560    0.9380 c3        1 I4P      0.231100
      7 C2         -1.4620   -0.2260   -0.0930 c3        1 I4P      0.089100
      8 O16        -2.0140    0.9340    0.5060 oh        1 I4P     -0.661300
      9 C3         -0.6570    0.1900   -1.3160 c3        1 I4P      0.231100
     10 O15        -0.2920   -0.9710   -2.0390 os        1 I4P     -0.624450
     11 P5         -0.7950   -1.1200   -3.5300 p5        1 I4P      1.380900
     12 O45        -0.1980   -0.0200   -4.3750 o         1 I4P     -0.980083
     13 O25        -2.3020   -1.0200   -3.5640 o         1 I4P     -0.980083
     14 O35        -0.3670   -2.4610   -4.0740 o         1 I4P     -0.980083
     15 C4          0.6060    0.9580   -0.9490 c3        1 I4P      0.231100
     16 O14         0.2370    2.2200   -0.4260 os        1 I4P     -0.624450
     17 P4          0.7970    3.5200   -1.1300 p5        1 I4P      1.380900
     18 O44         2.2910    3.3920   -1.3070 o         1 I4P     -0.980083
     19 O24         0.1420    3.6830   -2.4800 o         1 I4P     -0.980083
     20 O34         0.4940    4.7260   -0.2740 o         1 I4P     -0.980083
     21 C5          1.4510    0.2270    0.0830 c3        1 I4P      0.089100
     22 O13         2.0040   -0.9320   -0.5160 oh        1 I4P     -0.661300
     23 C6          0.6470   -0.1880    1.3050 c3        1 I4P      0.231100
     24 O12         0.2830    0.9730    2.0280 os        1 I4P     -0.624450
     25 P2          0.7760    1.1160    3.5230 p5        1 I4P      1.380900
     26 O42         0.3640    2.4650    4.0620 o         1 I4P     -0.980083
     27 O22         0.1540    0.0270    4.3640 o         1 I4P     -0.980083
     28 O32         2.2800    0.9920    3.5710 o         1 I4P     -0.980083
     29 H1         -1.1500   -1.0920    1.7450 h1        1 I4P      0.019700
     30 H2         -2.1900   -0.8120   -0.3780 h1        1 I4P      0.017200
     31 H16        -2.9020    0.8950    0.4640 ho        1 I4P      0.421500
     32 H3         -1.2160    0.7540   -1.8850 h1        1 I4P      0.019700
     33 H4          1.1390    1.0930   -1.7560 h1        1 I4P      0.019700
     34 H5          2.1800    0.8140    0.3680 h1        1 I4P      0.017200
     35 H13         2.8910   -0.8950   -0.4710 ho        1 I4P      0.421500
     36 H6          1.2070   -0.7520    1.8750 h1        1 I4P      0.019700
@<TRIPOS>BOND
     1    1    2 1   
     2    2    3 1   
     3    2    4 1   
     4    2    5 1   
     5    5    6 1   
     6    6    7 1   
     7    6   23 1   
     8    6   29 1   
     9    7    8 1   
    10    7    9 1   
    11    7   30 1   
    12    8   31 1   
    13    9   10 1   
    14    9   15 1   
    15    9   32 1   
    16   10   11 1   
    17   11   12 1   
    18   11   13 1   
    19   11   14 1   
    20   15   16 1   
    21   15   21 1   
    22   15   33 1   
    23   16   17 1   
    24   17   18 1   
    25   17   19 1   
    26   17   20 1   
    27   21   22 1   
    28   21   23 1   
    29   21   34 1   
    30   22   35 1   
    31   23   24 1   
    32   23   36 1   
    33   24   25 1   
    34   25   26 1   
    35   25   27 1   
    36   25   28 1   
@<TRIPOS>SUBSTRUCTURE
     1 I4P         1 TEMP              0 ****  ****    0 ROOT
