@<TRIPOS>MOLECULE
I4P
   36    36     1     0     0
SMALL
bcc


@<TRIPOS>ATOM
      1 O41        -0.3000    1.3110   -1.1540 o         1 I4P     -0.980250
      2 P1          0.6730    1.4780    0.0030 p5        1 I4P      1.380650
      3 O21         0.2390    2.7020    0.8000 o         1 I4P     -0.980250
      4 O31         0.7390    0.2380    0.8700 o         1 I4P     -0.980250
      5 O11         2.2120    1.8770   -0.6560 os        1 I4P     -0.622950
      6 C1          3.4640    1.2380   -0.6150 c3        1 I4P      0.226850
      7 C2          4.3660    1.9410    0.4690 c3        1 I4P      0.084600
      8 O16         3.8120    3.2000    0.8410 oh        1 I4P     -0.651300
      9 C3          5.9060    2.1270    0.1830 c3        1 I4P      0.226850
     10 O15         6.5530    2.6620    1.2950 os        1 I4P     -0.622950
     11 P5          7.4490    1.8640    2.5100 p5        1 I4P      1.380650
     12 O45         6.5100    1.0370    3.3730 o         1 I4P     -0.980250
     13 O25         8.5480    0.9920    1.9300 o         1 I4P     -0.980250
     14 O35         8.0410    2.9890    3.3570 o         1 I4P     -0.980250
     15 C4          5.9510    3.0080   -1.1200 c3        1 I4P      0.226850
     16 O14         7.2090    3.4770   -1.5170 os        1 I4P     -0.622950
     17 P4          7.6010    5.0180   -2.1230 p5        1 I4P      1.380650
     18 O44         9.1200    5.1290   -2.0510 o         1 I4P     -0.980250
     19 O24         6.9310    6.1620   -1.3870 o         1 I4P     -0.980250
     20 O34         7.1710    4.9980   -3.5850 o         1 I4P     -0.980250
     21 C5          5.3860    2.0630   -2.2540 c3        1 I4P      0.084600
     22 O13         5.1090    2.8570   -3.4110 oh        1 I4P     -0.651300
     23 C6          4.0900    1.1880   -2.0660 c3        1 I4P      0.226850
     24 O12         4.3750   -0.1430   -2.4110 os        1 I4P     -0.622950
     25 P2          4.1370   -1.0670   -3.8370 p5        1 I4P      1.380650
     26 O42         3.5740   -2.4020   -3.3640 o         1 I4P     -0.980250
     27 O22         3.2070   -0.3970   -4.8300 o         1 I4P     -0.980250
     28 O32         5.5050   -1.3160   -4.4570 o         1 I4P     -0.980250
     29 H1          3.3280    0.1700   -0.2830 h1        1 I4P      0.017450
     30 H2          4.2800    1.3240    1.4090 h1        1 I4P      0.033200
     31 H16         3.3800    3.5530    0.0540 ho        1 I4P      0.411500
     32 H3          6.3470    1.1180   -0.0500 h1        1 I4P      0.017450
     33 H4          5.2760    3.8980   -0.9880 h1        1 I4P      0.017450
     34 H5          6.2310    1.3600   -2.5050 h1        1 I4P      0.033200
     35 H13         5.8410    3.4980   -3.4820 ho        1 I4P      0.411500
     36 H6          3.3100    1.5980   -2.7720 h1        1 I4P      0.017450
@<TRIPOS>BOND
     1    1    2 1   
     2    2    3 1   
     3    2    4 1   
     4    2    5 1   
     5    5    6 1   
     6    6    7 1   
     7    6   23 1   
     8    6   29 1   
     9    7    8 1   
    10    7    9 1   
    11    7   30 1   
    12    8   31 1   
    13    9   10 1   
    14    9   15 1   
    15    9   32 1   
    16   10   11 1   
    17   11   12 1   
    18   11   13 1   
    19   11   14 1   
    20   15   16 1   
    21   15   21 1   
    22   15   33 1   
    23   16   17 1   
    24   17   18 1   
    25   17   19 1   
    26   17   20 1   
    27   21   22 1   
    28   21   23 1   
    29   21   34 1   
    30   22   35 1   
    31   23   24 1   
    32   23   36 1   
    33   24   25 1   
    34   25   26 1   
    35   25   27 1   
    36   25   28 1   
@<TRIPOS>SUBSTRUCTURE
     1 I4P         1 TEMP              0 ****  ****    0 ROOT
