@<TRIPOS>MOLECULE
I4P
   36    36     1     0     0
SMALL
bcc


@<TRIPOS>ATOM
      1 O41         0.9160   -1.6340    0.2610 o         1 I4P     -0.979833
      2 P1          2.4080   -1.3190    0.3550 p5        1 I4P      1.382400
      3 O21         2.7820   -1.1630    1.8200 o         1 I4P     -0.979833
      4 O31         3.2410   -2.4100   -0.2940 o         1 I4P     -0.979833
      5 O11         2.5940    0.1890   -0.4260 os        1 I4P     -0.621200
      6 C1          3.7970    0.8290   -0.7080 c3        1 I4P      0.230100
      7 C2          4.0910    1.9620    0.3480 c3        1 I4P      0.079600
      8 O16         3.0860    2.9700    0.2410 oh        1 I4P     -0.634800
      9 C3          5.5220    2.6160    0.3620 c3        1 I4P      0.230100
     10 O15         5.4120    3.8970    0.9350 os        1 I4P     -0.621200
     11 P5          5.7010    4.5510    2.5030 p5        1 I4P      1.382400
     12 O45         4.3490    4.8950    3.1100 o         1 I4P     -0.979833
     13 O25         6.4730    3.5830    3.3750 o         1 I4P     -0.979833
     14 O35         6.4530    5.8570    2.2880 o         1 I4P     -0.979833
     15 C4          6.1640    2.7300   -1.0740 c3        1 I4P      0.230100
     16 O14         7.5240    2.3680   -1.0130 os        1 I4P     -0.621200
     17 P4          8.9580    2.7780   -1.8570 p5        1 I4P      1.382400
     18 O44        10.0450    1.9440   -1.1900 o         1 I4P     -0.979833
     19 O24         9.2920    4.2550   -1.7840 o         1 I4P     -0.979833
     20 O34         8.7630    2.3560   -3.3020 o         1 I4P     -0.979833
     21 C5          5.4620    1.8530   -2.1840 c3        1 I4P      0.079600
     22 O13         5.7460    2.4980   -3.4220 oh        1 I4P     -0.634800
     23 C6          3.9110    1.5600   -2.1150 c3        1 I4P      0.230100
     24 O12         3.4860    0.8270   -3.2190 os        1 I4P     -0.621200
     25 P2          2.4990    1.3810   -4.5090 p5        1 I4P      1.382400
     26 O42         1.2490    0.5140   -4.5910 o         1 I4P     -0.979833
     27 O22         2.1210    2.8410   -4.3410 o         1 I4P     -0.979833
     28 O32         3.2930    1.1330   -5.7890 o         1 I4P     -0.979833
     29 H1          4.6220    0.0640   -0.6300 h1        1 I4P      0.011200
     30 H2          3.9280    1.5170    1.3710 h1        1 I4P      0.026200
     31 H16         3.5170    3.7470   -0.1340 ho        1 I4P      0.403000
     32 H3          6.1930    1.9630    0.9840 h1        1 I4P      0.011200
     33 H4          6.0590    3.8090   -1.3880 h1        1 I4P      0.011200
     34 H5          5.9710    0.8470   -2.1830 h1        1 I4P      0.026200
     35 H13         6.7190    2.4920   -3.4890 ho        1 I4P      0.403000
     36 H6          3.3400    2.5270   -2.0870 h1        1 I4P      0.011200
@<TRIPOS>BOND
     1    1    2 1   
     2    2    3 1   
     3    2    4 1   
     4    2    5 1   
     5    5    6 1   
     6    6    7 1   
     7    6   23 1   
     8    6   29 1   
     9    7    8 1   
    10    7    9 1   
    11    7   30 1   
    12    8   31 1   
    13    9   10 1   
    14    9   15 1   
    15    9   32 1   
    16   10   11 1   
    17   11   12 1   
    18   11   13 1   
    19   11   14 1   
    20   15   16 1   
    21   15   21 1   
    22   15   33 1   
    23   16   17 1   
    24   17   18 1   
    25   17   19 1   
    26   17   20 1   
    27   21   22 1   
    28   21   23 1   
    29   21   34 1   
    30   22   35 1   
    31   23   24 1   
    32   23   36 1   
    33   24   25 1   
    34   25   26 1   
    35   25   27 1   
    36   25   28 1   
@<TRIPOS>SUBSTRUCTURE
     1 I4P         1 TEMP              0 ****  ****    0 ROOT
