@<TRIPOS>MOLECULE
I4P
   36    36     1     0     0
SMALL
bcc


@<TRIPOS>ATOM
      1 O41        -4.5130    2.8260    1.1710 o         1 I4P     -0.979833
      2 P1         -3.1630    2.3340    1.6890 p5        1 I4P      1.382400
      3 O21        -2.2810    3.5380    1.9730 o         1 I4P     -0.979833
      4 O31        -3.3300    1.4900    2.9390 o         1 I4P     -0.979833
      5 O11        -2.4870    1.4460    0.3940 os        1 I4P     -0.621200
      6 C1         -1.3170    0.6950    0.4320 c3        1 I4P      0.230100
      7 C2         -0.1170    1.4900   -0.2120 c3        1 I4P      0.079600
      8 O16        -0.3920    1.7040   -1.5960 oh        1 I4P     -0.634800
      9 C3          1.3390    0.9270   -0.0250 c3        1 I4P      0.230100
     10 O15         2.1370    1.4170   -1.0750 os        1 I4P     -0.621200
     11 P5          3.2550    2.7190   -1.2410 p5        1 I4P      1.382400
     12 O45         2.6070    3.7650   -2.1360 o         1 I4P     -0.979833
     13 O25         3.6380    3.2960    0.1060 o         1 I4P     -0.979833
     14 O35         4.4560    2.1560   -1.9870 o         1 I4P     -0.979833
     15 C4          1.3950   -0.6500   -0.0070 c3        1 I4P      0.230100
     16 O14         2.2710   -1.0790    1.0090 os        1 I4P     -0.621200
     17 P4          3.3010   -2.4230    1.2750 p5        1 I4P      1.382400
     18 O44         3.9250   -2.1610    2.6400 o         1 I4P     -0.979833
     19 O24         4.3730   -2.5720    0.2130 o         1 I4P     -0.979833
     20 O34         2.4230   -3.6600    1.3110 o         1 I4P     -0.979833
     21 C5         -0.0000   -1.3580    0.2030 c3        1 I4P      0.079600
     22 O13         0.1310   -2.6500   -0.3820 oh        1 I4P     -0.634800
     23 C6         -1.3290   -0.6950   -0.3380 c3        1 I4P      0.230100
     24 O12        -2.4310   -1.5110   -0.1060 os        1 I4P     -0.621200
     25 P2         -3.3450   -2.3700   -1.2780 p5        1 I4P      1.382400
     26 O42        -4.8000   -1.9240   -1.2030 o         1 I4P     -0.979833
     27 O22        -2.8000   -2.1650   -2.6780 o         1 I4P     -0.979833
     28 O32        -3.3120   -3.8360   -0.8530 o         1 I4P     -0.979833
     29 H1         -1.0620    0.5060    1.5150 h1        1 I4P      0.011200
     30 H2         -0.1240    2.5260    0.2340 h1        1 I4P      0.026200
     31 H16         0.2250    1.1480   -2.0860 ho        1 I4P      0.403000
     32 H3          1.7250    1.2920    0.9670 h1        1 I4P      0.011200
     33 H4          1.7800   -0.9680   -1.0180 h1        1 I4P      0.011200
     34 H5         -0.1450   -1.4850    1.3150 h1        1 I4P      0.026200
     35 H13         0.8550   -3.0770    0.1150 ho        1 I4P      0.403000
     36 H6         -1.2430   -0.5160   -1.4440 h1        1 I4P      0.011200
@<TRIPOS>BOND
     1    1    2 1   
     2    2    3 1   
     3    2    4 1   
     4    2    5 1   
     5    5    6 1   
     6    6    7 1   
     7    6   23 1   
     8    6   29 1   
     9    7    8 1   
    10    7    9 1   
    11    7   30 1   
    12    8   31 1   
    13    9   10 1   
    14    9   15 1   
    15    9   32 1   
    16   10   11 1   
    17   11   12 1   
    18   11   13 1   
    19   11   14 1   
    20   15   16 1   
    21   15   21 1   
    22   15   33 1   
    23   16   17 1   
    24   17   18 1   
    25   17   19 1   
    26   17   20 1   
    27   21   22 1   
    28   21   23 1   
    29   21   34 1   
    30   22   35 1   
    31   23   24 1   
    32   23   36 1   
    33   24   25 1   
    34   25   26 1   
    35   25   27 1   
    36   25   28 1   
@<TRIPOS>SUBSTRUCTURE
     1 I4P         1 TEMP              0 ****  ****    0 ROOT
