@<TRIPOS>MOLECULE
I50
   51    43     1     0     0
SMALL
bcc


@<TRIPOS>ATOM
      1 C1         -7.7830   -3.2740    3.4100 c1        1 I50      0.088000
      2 O5         -6.5240   -1.1880    3.4680 os        1 I50     -0.216000
      3 C7         -4.5690    0.0810    2.7260 c3        1 I50     -0.033000
      4 C9         -2.2360    0.5430    1.9550 c1        1 I50      0.306000
      5 C11        -0.7630    0.0790    2.1120 c2        1 I50     -0.154000
      6 C12        -0.0900    0.1110    0.8060 c2        1 I50     -0.071000
      7 C13         1.1290    0.8090    0.6610 c2        1 I50      0.055000
      8 C14         1.8280    0.7310   -0.5240 c1        1 I50      0.034000
      9 C15         1.3270   -0.0380   -1.5750 c1        1 I50     -0.119667
     10 C16         0.1190   -0.7260   -1.4220 c1        1 I50     -0.119667
     11 C21         4.0030    1.1090   -1.7370 c3        1 I50     -0.083000
     12 C24         4.8220    2.3080   -2.1350 c3        1 I50      0.270000
     13 C27         6.4770    0.3300   -5.0060 c1        1 I50     -0.119667
     14 C30         6.6150    2.8910   -3.8850 c1        1 I50     -0.119667
     15 N2         -8.8490   -2.7210    2.7970 n1        1 I50     -0.305000
     16 N3         -7.6420   -4.6880    3.4460 n3        1 I50     -0.372000
     17 N4         -6.8030   -2.4410    4.0150 n2        1 I50     -0.102000
     18 C6         -5.2250   -0.7600    3.8740 c3        1 I50     -0.044000
     19 N8         -3.1790    0.3070    3.0270 n3        1 I50     -0.364000
     20 O10        -2.6200    1.0150    0.8970 o         1 I50     -0.375000
     21 C17        -0.5800   -0.6450   -0.2300 c1        1 I50     -0.083000
     22 CL18       -2.1720   -1.3920   -0.0930 cl        1 I50     -0.007000
     23 F19         1.6420    1.5160    1.7170 f         1 I50     -0.097000
     24 N20         3.0330    1.5050   -0.7070 n3        1 I50     -0.266000
     25 C25         5.7490    1.9350   -3.3440 c1        1 I50     -0.149000
     26 C26         5.6820    0.6550   -3.9070 c1        1 I50     -0.099000
     27 C28         7.3430    1.2800   -5.5490 c1        1 I50     -0.119667
     28 C29         7.4150    2.5620   -4.9930 c1        1 I50     -0.119667
     29 F31         3.9680    3.3510   -2.5040 f         1 I50     -0.164000
     30 F32         5.5820    2.6960   -1.0870 f         1 I50     -0.164000
     31 H71        -5.0250    0.9330    2.6500 h1        1 I50      0.118500
     32 H72        -4.6470   -0.4120    1.8690 h1        1 I50      0.118500
     33 H111       -0.3050    0.6670    2.7230 ha        1 I50      0.136500
     34 H112       -0.7480   -0.8350    2.4640 ha        1 I50      0.136500
     35 H15         1.8130   -0.0950   -2.4060 ha        1 I50      0.143333
     36 H16        -0.2370   -1.2720   -2.1660 ha        1 I50      0.143333
     37 H211        3.5160    0.7530   -2.5380 h1        1 I50      0.121500
     38 H212        4.6050    0.4010   -1.3710 h1        1 I50      0.121500
     39 H27         6.4280   -0.5880   -5.4070 ha        1 I50      0.143333
     40 H30         6.6650    3.8110   -3.4840 ha        1 I50      0.143333
     41 HN2        -9.5220   -3.2900    2.3800 DU        1 I50      0.147000
     42 HN31       -8.2930   -5.2440    3.0100 hn        1 I50      0.187500
     43 HN32       -6.9640   -5.0780    3.9640 hn        1 I50      0.187500
     44 HN4        -6.3150   -2.7490    4.7280 hn        1 I50      0.186000
     45 H61        -4.6750   -1.5340    4.0610 h1        1 I50      0.098500
     46 H62        -5.3020   -0.1950    4.7010 h1        1 I50      0.098500
     47 HN8        -2.9000    0.3670    3.9070 hn        1 I50      0.233000
     48 HN20        3.2460    2.1680   -0.1100 hn        1 I50      0.214000
     49 H26         5.0550   -0.0370   -3.5160 ha        1 I50      0.147000
     50 H28         7.8810    1.0570   -6.2970 ha        1 I50      0.143333
     51 H29         8.0260    3.2310   -5.3770 ha        1 I50      0.143333
@<TRIPOS>BOND
     1    1   15 1   
     2    1   16 1   
     3    2   17 1   
     4    2   18 1   
     5    3   18 1   
     6    3   19 1   
     7    3   31 1   
     8    3   32 1   
     9    4   19 1   
    10    4   20 1   
    11    5    6 1   
    12    5   33 1   
    13    5   34 1   
    14    6    7 1   
    15    6   21 1   
    16    7    8 1   
    17    7   23 1   
    18    8   24 1   
    19    9   10 1   
    20    9   35 1   
    21   10   36 1   
    22   11   12 1   
    23   11   24 1   
    24   11   37 1   
    25   11   38 1   
    26   12   25 1   
    27   12   29 1   
    28   12   30 1   
    29   13   27 1   
    30   13   39 1   
    31   14   28 1   
    32   14   40 1   
    33   16   42 1   
    34   16   43 1   
    35   17   44 1   
    36   18   45 1   
    37   18   46 1   
    38   19   47 1   
    39   24   48 1   
    40   25   26 1   
    41   26   49 1   
    42   27   50 1   
    43   28   51 1   
@<TRIPOS>SUBSTRUCTURE
     1 I50         1 TEMP              0 ****  ****    0 ROOT
