@<TRIPOS>MOLECULE
I50
   51    52     1     0     0
SMALL
bcc


@<TRIPOS>ATOM
      1 C1         -4.7120    2.9870    0.1550 c2        1 I50      0.686100
      2 O5         -3.7250    1.4380   -1.2940 os        1 I50     -0.256100
      3 C7         -3.5130   -0.8470   -1.8970 c3        1 I50      0.086000
      4 C9         -3.2440   -2.4790   -0.0680 c         1 I50      0.664100
      5 C11        -2.5570   -2.8140    1.2490 c3        1 I50     -0.117100
      6 C12        -1.0730   -2.7780    1.1650 ca        1 I50     -0.073300
      7 C13        -0.3900   -1.5740    1.4440 ca        1 I50      0.067900
      8 C14         1.0350   -1.4960    1.4230 ca        1 I50      0.114600
      9 C15         1.7460   -2.6700    1.0970 ca        1 I50     -0.139000
     10 C16         1.0790   -3.8510    0.8040 ca        1 I50     -0.106000
     11 C21         2.8440    0.1330    1.0910 c3        1 I50      0.152800
     12 C24         2.5620    1.1780   -0.0590 c3        1 I50      0.418900
     13 C27         5.8630    3.0250   -0.4830 ca        1 I50     -0.131000
     14 C30         4.4490    0.9630   -1.7290 ca        1 I50     -0.099000
     15 N2         -4.6980    2.2070    1.2010 n2        1 I50     -0.842100
     16 N3         -5.0600    4.3690    0.2900 nh        1 I50     -0.878800
     17 N4         -4.4180    2.5900   -1.2430 nh        1 I50     -0.564700
     18 C6         -4.5220    0.2910   -1.6990 c3        1 I50      0.102400
     19 N8         -2.8770   -1.3080   -0.6990 n         1 I50     -0.565900
     20 O10        -4.1050   -3.2410   -0.5500 o         1 I50     -0.605100
     21 C17        -0.3180   -3.9110    0.8360 ca        1 I50      0.014400
     22 CL18       -1.0670   -5.3900    0.4680 cl        1 I50     -0.067400
     23 F19        -1.1120   -0.4630    1.7480 f         1 I50     -0.142900
     24 N20         1.6980   -0.3200    1.8230 nh        1 I50     -0.709600
     25 C25         3.9070    1.6140   -0.6180 ca        1 I50     -0.156300
     26 C26         4.6120    2.6490    0.0030 ca        1 I50     -0.099000
     27 C28         6.4090    2.3700   -1.5880 ca        1 I50     -0.111000
     28 C29         5.7020    1.3420   -2.2110 ca        1 I50     -0.131000
     29 F31         1.7220    0.6550   -1.0230 f         1 I50     -0.235800
     30 F32         1.8080    2.2380    0.4130 f         1 I50     -0.235800
     31 H71        -4.0680   -1.7060   -2.3750 h1        1 I50      0.075700
     32 H72        -2.7100   -0.4880   -2.6030 h1        1 I50      0.075700
     33 H111       -2.9150   -2.0830    2.0260 hc        1 I50      0.094200
     34 H112       -2.9090   -3.8370    1.5580 hc        1 I50      0.094200
     35 H15         2.8470   -2.6660    1.0840 ha        1 I50      0.146000
     36 H16         1.6590   -4.7520    0.5480 ha        1 I50      0.154000
     37 H211        3.3970   -0.7240    0.6220 h1        1 I50      0.082700
     38 H212        3.5210    0.6560    1.8260 h1        1 I50      0.082700
     39 H30         3.8810    0.1600   -2.2250 ha        1 I50      0.146000
     40 HN2        -4.3330    1.2920    1.0460 hn        1 I50      0.402400
     41 HN31       -5.3850    4.5940    1.2090 hn        1 I50      0.395300
     42 HN32       -5.7030    4.6750   -0.4100 hn        1 I50      0.395300
     43 HN4        -3.8190    3.2930   -1.6740 hn        1 I50      0.397800
     44 H61        -5.2750    0.0610   -0.9030 h1        1 I50      0.056700
     45 H62        -5.0420    0.5040   -2.6680 h1        1 I50      0.056700
     46 HN8        -2.2800   -0.6670   -0.2280 hn        1 I50      0.324500
     47 HN20        1.0630    0.4280    2.0380 hn        1 I50      0.416800
     48 H26         4.1690    3.1700    0.8660 ha        1 I50      0.146000
     49 H28         7.3970    2.6690   -1.9710 ha        1 I50      0.138000
     50 H29         6.1280    0.8300   -3.0860 ha        1 I50      0.139500
     51 H27         6.4170    3.8410    0.0040 ha        1 I50      0.139500
@<TRIPOS>BOND
     1    1   15 2   
     2    1   16 1   
     3    1   17 1   
     4    2   17 1   
     5    2   18 1   
     6    3   18 1   
     7    3   19 1   
     8    3   31 1   
     9    3   32 1   
    10    4    5 1   
    11    4   19 1   
    12    4   20 2   
    13    5    6 1   
    14    5   33 1   
    15    5   34 1   
    16    6    7 ar  
    17    6   21 ar  
    18    7    8 ar  
    19    7   23 1   
    20    8    9 ar  
    21    8   24 1   
    22    9   10 ar  
    23    9   35 1   
    24   10   21 ar  
    25   10   36 1   
    26   11   12 1   
    27   11   24 1   
    28   11   37 1   
    29   11   38 1   
    30   12   25 1   
    31   12   29 1   
    32   12   30 1   
    33   13   26 ar  
    34   13   27 ar  
    35   13   51 1   
    36   14   25 ar  
    37   14   28 ar  
    38   14   39 1   
    39   15   40 1   
    40   16   41 1   
    41   16   42 1   
    42   17   43 1   
    43   18   44 1   
    44   18   45 1   
    45   19   46 1   
    46   21   22 1   
    47   24   47 1   
    48   25   26 ar  
    49   26   48 1   
    50   27   28 ar  
    51   27   49 1   
    52   28   50 1   
@<TRIPOS>SUBSTRUCTURE
     1 I50         1 TEMP              0 ****  ****    0 ROOT
