@<TRIPOS>MOLECULE
I50
   54    54     1     0     0
SMALL
bcc


@<TRIPOS>ATOM
      1 C1          0.0000    0.0000    0.0000 c2        1 I50     -0.728000
      2 O5          0.0210    0.0040   -2.4170 os        1 I50     -0.325000
      3 C7          0.0490    0.0090   -4.8340 c3        1 I50     -0.242000
      4 C9          1.6370   -1.4710   -5.9410 c2        1 I50      0.027000
      5 C11         2.4110   -2.7620   -6.0160 c3        1 I50     -0.046000
      6 C12         3.2650   -2.7630   -7.2570 ca        1 I50     -0.124000
      7 C13         4.5530   -2.2620   -7.2100 ca        1 I50      0.046000
      8 C14         5.3400   -2.2640   -8.3570 ca        1 I50     -0.104000
      9 C15         4.8300   -2.7700   -9.5450 ca        1 I50     -0.085000
     10 C16         3.5420   -3.2680   -9.5860 ca        1 I50     -0.024000
     11 C21         7.4720   -1.7610   -9.5220 c3        1 I50     -0.292000
     12 C24         8.8410   -1.1580   -9.2040 c2        1 I50      0.120000
     13 C27        11.2330   -4.1040  -11.4090 c2        1 I50     -0.052500
     14 C30        10.6640   -1.5680  -10.4670 c2        1 I50     -0.120500
     15 N2          1.3030    0.0000    0.0000 n2        1 I50      0.133000
     16 N3         -0.6870    0.0000    1.1900 nz        1 I50      0.923000
     17 N4         -0.6870    0.0040   -1.1910 ny        1 I50      1.018000
     18 C6         -0.8190    0.0100   -3.5730 c3        1 I50      0.044000
     19 N8          0.8010   -1.2460   -4.9070 ny        1 I50      0.717000
     20 O10         1.7670   -0.6340   -6.8090 o         1 I50     -0.132000
     21 C17         2.7620   -3.2700   -8.4430 ca        1 I50     -0.111000
     22 Cl18        1.1470   -3.9040   -8.4970 cl        1 I50      0.108000
     23 F19         5.0470   -1.7710   -6.0520 f         1 I50     -0.085000
     24 N20         6.6440   -1.7580   -8.3130 nu        1 I50      0.224000
     25 C25        10.1530   -2.6770   -9.8190 c1        1 I50      0.151000
     26 C26        10.4380   -3.9450  -10.2890 c2        1 I50     -0.120500
     27 C28        11.7430   -2.9940  -12.0590 c2        1 I50     -0.069000
     28 C29        11.4590   -1.7260  -11.5870 c2        1 I50     -0.052500
     29 F31         8.6790    0.1570   -8.7530 f         1 I50     -0.125500
     30 F32         9.4660   -1.9180   -8.2090 f         1 I50     -0.125500
     31 H71         0.7400    0.8420   -4.7980 hx        1 I50      0.158500
     32 H72        -0.5840    0.1020   -5.7080 hx        1 I50      0.158500
     33 H111        1.7200   -3.5950   -6.0520 hc        1 I50      0.108000
     34 H112        3.0440   -2.8550   -5.1420 hc        1 I50      0.108000
     35 H15         5.4400   -2.7700  -10.4410 ha        1 I50      0.142000
     36 H16         3.1430   -3.6590  -10.5130 ha        1 I50      0.147000
     37 H211        7.4070   -1.9710  -10.5830 h1        1 I50      0.168500
     38 H212        7.3440   -2.6810   -8.9640 h1        1 I50      0.168500
     39 HN2         1.8050   -0.0020    0.8660 hn        1 I50      0.138000
     40 HN31       -0.4540    0.8220    1.7110 hn        1 I50      0.033333
     41 HN32       -0.4380   -0.8120    1.7200 hn        1 I50      0.033333
     42 HN4        -1.2670    0.8210   -1.1890 hn        1 I50     -0.012000
     43 H61        -1.4490   -0.8720   -3.5670 h1        1 I50      0.091000
     44 H62        -1.4410    0.8970   -3.5640 h1        1 I50      0.091000
     45 HN8         1.3470   -1.3080   -4.0710 hn        1 I50      0.055000
     46 HN20        7.0210   -1.4200   -7.4500 hn        1 I50      0.116000
     47 H26        10.0390   -4.8140   -9.7810 ha        1 I50      0.136000
     48 H28        12.3660   -3.1190  -12.9370 ha        1 I50      0.133000
     49 H29        11.8590   -0.8570  -12.0950 ha        1 I50      0.133500
     50 H27        11.4600   -5.0980  -11.7760 ha        1 I50      0.133500
     51 H33        -1.6440    0.2430    1.0240 hn        1 I50      0.033333
     52 H42        -1.3600   -0.7350   -1.1410 hn        1 I50     -0.012000
     53 H82         0.1290   -1.9880   -4.9130 hn        1 I50      0.055000
     54 H30        10.1890   -0.6020  -10.3440 ha        1 I50      0.136000
@<TRIPOS>BOND
     1    1   15 1   
     2    1   16 1   
     3    1   17 1   
     4    2   17 1   
     5    2   18 1   
     6    3   18 1   
     7    3   19 1   
     8    3   31 1   
     9    3   32 1   
    10    4    5 1   
    11    4   19 1   
    12    4   20 1   
    13    5    6 1   
    14    5   33 1   
    15    5   34 1   
    16    6    7 1   
    17    6   21 1   
    18    7    8 1   
    19    7   23 1   
    20    8    9 1   
    21    8   24 1   
    22    9   10 1   
    23    9   35 1   
    24   10   21 1   
    25   10   36 1   
    26   11   12 1   
    27   11   24 1   
    28   11   37 1   
    29   11   38 1   
    30   12   29 1   
    31   12   30 1   
    32   13   26 1   
    33   13   27 1   
    34   13   50 1   
    35   14   25 1   
    36   14   28 1   
    37   14   54 1   
    38   15   39 1   
    39   16   40 1   
    40   16   41 1   
    41   16   51 1   
    42   17   42 1   
    43   17   52 1   
    44   18   43 1   
    45   18   44 1   
    46   19   45 1   
    47   19   53 1   
    48   21   22 1   
    49   24   46 1   
    50   25   26 1   
    51   26   47 1   
    52   27   28 1   
    53   27   48 1   
    54   28   49 1   
@<TRIPOS>SUBSTRUCTURE
     1 I50         1 TEMP              0 ****  ****    0 ROOT
