@<TRIPOS>MOLECULE
I51
   27    27     1     0     0
SMALL
bcc


@<TRIPOS>ATOM
      1 N1          0.2470   -0.4480   -0.0460 n         1 I51     -0.472100
      2 O1          2.3480   -0.5680   -0.9830 o         1 I51     -0.644500
      3 O2          2.0510    0.5000    3.4730 o         1 I51     -0.610500
      4 N2          2.2230   -0.0180    1.2650 n         1 I51     -0.583500
      5 C1          1.6510   -0.3590    0.0340 c         1 I51      0.805500
      6 C2          1.4560    0.2060    2.4230 c         1 I51      0.717700
      7 C3         -0.0060    0.0720    2.2870 cc        1 I51     -0.242400
      8 C4         -0.8270    0.2930    3.4950 c3        1 I51     -0.037900
      9 C5         -0.5580   -0.2510    1.0720 cd        1 I51      0.123600
     10 C11        -2.0080   -0.4240    0.9300 cf        1 I51     -0.152000
     11 C12        -2.7850    0.1380   -0.0070 c2        1 I51     -0.078400
     12 C13        -4.2640   -0.0840   -0.0490 c3        1 I51      0.161100
     13 C14        -2.2600    1.0380   -1.0820 c3        1 I51      0.161100
     14 O3         -4.6270   -1.0650    0.9120 oh        1 I51     -0.604800
     15 O4         -3.3300    1.8260   -1.5840 oh        1 I51     -0.604800
     16 H1         -0.1480   -0.7560   -0.9050 hn        1 I51      0.350500
     17 H2          3.2170    0.0500    1.3060 hn        1 I51      0.353500
     18 H3         -1.3510   -0.6530    3.7870 hc        1 I51      0.055033
     19 H4         -1.6040    1.0760    3.3050 hc        1 I51      0.055033
     20 H5         -0.1870    0.6240    4.3510 hc        1 I51      0.055033
     21 H6         -2.4580   -1.0700    1.7100 ha        1 I51      0.178000
     22 H7         -4.5580   -0.4300   -1.0780 h1        1 I51      0.047700
     23 H8         -4.7850    0.8900    0.1690 h1        1 I51      0.047700
     24 H9         -1.8370    0.4170   -1.9210 h1        1 I51      0.047700
     25 H10        -1.4510    1.7060   -0.6750 h1        1 I51      0.047700
     26 H11        -5.5900   -1.1060    0.9030 ho        1 I51      0.411000
     27 H12        -2.9350    2.4630   -2.1920 ho        1 I51      0.411000
@<TRIPOS>BOND
     1    1    5 1   
     2    1    9 1   
     3    1   16 1   
     4    2    5 2   
     5    3    6 2   
     6    4    5 1   
     7    4    6 1   
     8    4   17 1   
     9    6    7 1   
    10    7    8 1   
    11    7    9 2   
    12    8   18 1   
    13    8   19 1   
    14    8   20 1   
    15    9   10 1   
    16   10   11 2   
    17   10   21 1   
    18   11   12 1   
    19   11   13 1   
    20   12   14 1   
    21   12   22 1   
    22   12   23 1   
    23   13   15 1   
    24   13   24 1   
    25   13   25 1   
    26   14   26 1   
    27   15   27 1   
@<TRIPOS>SUBSTRUCTURE
     1 I51         1 TEMP              0 ****  ****    0 ROOT
