@<TRIPOS>MOLECULE
I51
   27    27     1     0     0
SMALL
bcc


@<TRIPOS>ATOM
      1 N1         -0.7000    1.0170    0.7390 n         1 I51     -0.472100
      2 O1         -2.3100    2.6280    1.0850 o         1 I51     -0.644500
      3 O2         -3.6190   -1.3220   -0.8570 o         1 I51     -0.610500
      4 N2         -2.9930    0.6470    0.0940 n         1 I51     -0.583500
      5 C1         -2.0270    1.4850    0.6630 c         1 I51      0.805500
      6 C2         -2.6960   -0.6470   -0.3710 c         1 I51      0.717700
      7 C3         -1.2970   -1.0960   -0.2410 cc        1 I51     -0.242400
      8 C4         -0.9680   -2.4550   -0.7150 c3        1 I51     -0.037900
      9 C5         -0.3550   -0.2600    0.3070 cd        1 I51      0.123600
     10 C11         1.0320   -0.7050    0.4760 cf        1 I51     -0.152000
     11 C12         2.1310   -0.0360    0.0980 c2        1 I51     -0.078400
     12 C13         3.5060   -0.5920    0.2940 c3        1 I51      0.161100
     13 C14         2.0910    1.3080   -0.5600 c3        1 I51      0.161100
     14 O3          3.4330   -1.7880    1.0580 oh        1 I51     -0.604800
     15 O4          3.3140    1.5160   -1.2530 oh        1 I51     -0.604800
     16 H1         -0.0340    1.5900    1.2050 hn        1 I51      0.350500
     17 H2         -3.9270    0.9930    0.0390 hn        1 I51      0.353500
     18 H3         -1.8600   -2.9320   -1.1950 hc        1 I51      0.055033
     19 H4         -0.1360   -2.4210   -1.4620 hc        1 I51      0.055033
     20 H5         -0.6410   -3.0960    0.1420 hc        1 I51      0.055033
     21 H6          1.1260   -1.7040    0.9460 ha        1 I51      0.178000
     22 H7          3.9650   -0.7980   -0.7130 h1        1 I51      0.047700
     23 H8          4.1390    0.1660    0.8330 h1        1 I51      0.047700
     24 H9          1.2290    1.3680   -1.2800 h1        1 I51      0.047700
     25 H10         1.9730    2.1080    0.2240 h1        1 I51      0.047700
     26 H11         4.3280   -2.1470    1.0810 ho        1 I51      0.411000
     27 H12         3.2090    2.3370   -1.7480 ho        1 I51      0.411000
@<TRIPOS>BOND
     1    1    5 1   
     2    1    9 1   
     3    1   16 1   
     4    2    5 2   
     5    3    6 2   
     6    4    5 1   
     7    4    6 1   
     8    4   17 1   
     9    6    7 1   
    10    7    8 1   
    11    7    9 2   
    12    8   18 1   
    13    8   19 1   
    14    8   20 1   
    15    9   10 1   
    16   10   11 2   
    17   10   21 1   
    18   11   12 1   
    19   11   13 1   
    20   12   14 1   
    21   12   22 1   
    22   12   23 1   
    23   13   15 1   
    24   13   24 1   
    25   13   25 1   
    26   14   26 1   
    27   15   27 1   
@<TRIPOS>SUBSTRUCTURE
     1 I51         1 TEMP              0 ****  ****    0 ROOT
