@<TRIPOS>MOLECULE
I51
   27    27     1     0     0
SMALL
bcc


@<TRIPOS>ATOM
      1 N1          0.2490   -0.4290   -0.0560 n         1 I51     -0.472100
      2 O1          2.3410   -0.5220   -1.0150 o         1 I51     -0.644500
      3 O2          2.0740    0.5890    3.4330 o         1 I51     -0.610500
      4 N2          2.2310    0.0510    1.2290 n         1 I51     -0.583500
      5 C1          1.6520   -0.3140    0.0070 c         1 I51      0.805500
      6 C2          1.4730    0.2730    2.3920 c         1 I51      0.717700
      7 C3          0.0110    0.1110    2.2750 cc        1 I51     -0.242400
      8 C4         -0.8000    0.3310    3.4890 c3        1 I51     -0.037900
      9 C5         -0.5470   -0.2340    1.0690 cd        1 I51      0.123600
     10 C11        -1.9950   -0.4350    0.9450 cf        1 I51     -0.152000
     11 C12        -2.7930    0.1030    0.0110 c2        1 I51     -0.078400
     12 C13        -4.2680   -0.1450   -0.0130 c3        1 I51      0.161100
     13 C14        -2.2950    1.0020   -1.0790 c3        1 I51      0.161100
     14 O3         -4.6030   -1.1240    0.9610 oh        1 I51     -0.604800
     15 O4         -3.3850    1.7650   -1.5770 oh        1 I51     -0.604800
     16 H1         -0.1500   -0.7530   -0.9080 hn        1 I51      0.350500
     17 H2          3.2240    0.1370    1.2580 hn        1 I51      0.353500
     18 H3         -1.3060   -0.6210    3.7940 hc        1 I51      0.055033
     19 H4         -0.1560    0.6780    4.3350 hc        1 I51      0.055033
     20 H5         -1.5900    1.1000    3.3000 hc        1 I51      0.055033
     21 H6         -2.4250   -1.0810    1.7350 ha        1 I51      0.178000
     22 H7         -4.5660   -0.5070   -1.0360 h1        1 I51      0.047700
     23 H8         -4.8040    0.8210    0.2010 h1        1 I51      0.047700
     24 H9         -1.8700    0.3800   -1.9160 h1        1 I51      0.047700
     25 H10        -1.4950    1.6880   -0.6870 h1        1 I51      0.047700
     26 H11        -5.5650   -1.1820    0.9640 ho        1 I51      0.411000
     27 H12        -3.0080    2.4030   -2.1960 ho        1 I51      0.411000
@<TRIPOS>BOND
     1    1    5 1   
     2    1    9 1   
     3    1   16 1   
     4    2    5 2   
     5    3    6 2   
     6    4    5 1   
     7    4    6 1   
     8    4   17 1   
     9    6    7 1   
    10    7    8 1   
    11    7    9 2   
    12    8   18 1   
    13    8   19 1   
    14    8   20 1   
    15    9   10 1   
    16   10   11 2   
    17   10   21 1   
    18   11   12 1   
    19   11   13 1   
    20   12   14 1   
    21   12   22 1   
    22   12   23 1   
    23   13   15 1   
    24   13   24 1   
    25   13   25 1   
    26   14   26 1   
    27   15   27 1   
@<TRIPOS>SUBSTRUCTURE
     1 I51         1 TEMP              0 ****  ****    0 ROOT
