@<TRIPOS>MOLECULE
I51
   27    27     1     0     0
SMALL
bcc


@<TRIPOS>ATOM
      1 N1          0.2440   -0.4400   -0.0570 ns        1 I51     -0.472100
      2 O1          2.3360   -0.5480   -1.0150 o         1 I51     -0.644500
      3 O2          2.0760    0.5460    3.4380 o         1 I51     -0.610500
      4 N2          2.2300    0.0160    1.2310 ns        1 I51     -0.583500
      5 C1          1.6480   -0.3380    0.0080 c         1 I51      0.805500
      6 C2          1.4720    0.2400    2.3950 c         1 I51      0.717700
      7 C3          0.0100    0.0930    2.2760 cc        1 I51     -0.242400
      8 C4         -0.8010    0.3150    3.4900 c3        1 I51     -0.037900
      9 C5         -0.5510   -0.2420    1.0680 cd        1 I51      0.123600
     10 C11        -2.0010   -0.4280    0.9420 cf        1 I51     -0.152000
     11 C12        -2.7920    0.1200    0.0090 c2        1 I51     -0.078400
     12 C13        -4.2690   -0.1140   -0.0160 c3        1 I51      0.161100
     13 C14        -2.2850    1.0190   -1.0760 c3        1 I51      0.161100
     14 O3         -4.6140   -1.0920    0.9530 oh        1 I51     -0.604800
     15 O4         -3.3670    1.7950   -1.5730 oh        1 I51     -0.604800
     16 H1         -0.1570   -0.7560   -0.9100 hn        1 I51      0.350500
     17 H2          3.2240    0.0920    1.2620 hn        1 I51      0.353500
     18 H3         -1.3150   -0.6340    3.7920 hc        1 I51      0.055033
     19 H4         -0.1550    0.6540    4.3380 hc        1 I51      0.055033
     20 H5         -1.5850    1.0910    3.3030 hc        1 I51      0.055033
     21 H6         -2.4370   -1.0740    1.7290 ha        1 I51      0.178000
     22 H7         -4.5710   -0.4690   -1.0410 h1        1 I51      0.047700
     23 H8         -4.7970    0.8570    0.2010 h1        1 I51      0.047700
     24 H9         -1.8650    0.3960   -1.9160 h1        1 I51      0.047700
     25 H10        -1.4790    1.6960   -0.6810 h1        1 I51      0.047700
     26 H11        -5.5780   -1.1420    0.9550 ho        1 I51      0.411000
     27 H12        -2.9840    2.4310   -2.1880 ho        1 I51      0.411000
@<TRIPOS>BOND
     1    1    5 1   
     2    1    9 1   
     3    1   16 1   
     4    2    5 2   
     5    3    6 2   
     6    4    5 1   
     7    4    6 1   
     8    4   17 1   
     9    6    7 1   
    10    7    8 1   
    11    7    9 2   
    12    8   18 1   
    13    8   19 1   
    14    8   20 1   
    15    9   10 1   
    16   10   11 2   
    17   10   21 1   
    18   11   12 1   
    19   11   13 1   
    20   12   14 1   
    21   12   22 1   
    22   12   23 1   
    23   13   15 1   
    24   13   24 1   
    25   13   25 1   
    26   14   26 1   
    27   15   27 1   
@<TRIPOS>SUBSTRUCTURE
     1 I51         1 TEMP              0 ****  ****    0 ROOT
