@<TRIPOS>MOLECULE
I52
   82    77     1     0     0
SMALL
bcc


@<TRIPOS>ATOM
      1 C38        11.8200   -2.0120   -3.7000 c3        1 I52     -0.159000
      2 C39        13.2060   -1.6380   -4.0590 c3        1 I52     -0.211000
      3 C37        11.0750   -0.7660   -3.1250 c3        1 I52     -0.159000
      4 C35         8.8710    0.0590   -2.2980 c3        1 I52     -0.131000
      5 C36         9.6460   -1.1710   -2.7050 c3        1 I52     -0.155000
      6 C25        -4.6950   -0.7590    4.8190 c3        1 I52     -0.219000
      7 C24        -5.5400    1.5910    4.8110 c3        1 I52     -0.219000
      8 N8         -7.4270    0.3810   -0.3310 n3        1 I52     -0.259000
      9 C7         -6.2560   -0.2300    0.4170 c3        1 I52     -0.090000
     10 C9         -8.6300   -0.1300    0.1980 c3        1 I52     -0.101000
     11 C13        -7.2850    0.1170   -1.7480 c3        1 I52     -0.101000
     12 O11        -9.7590    0.0620   -2.0410 os        1 I52     -0.272000
     13 C12        -8.5530    0.5770   -2.5750 c3        1 I52     -0.024000
     14 C10        -9.8970    0.3260   -0.6310 c3        1 I52     -0.024000
     15 C31         7.0500   -0.6710   -0.7220 c1        1 I52     -0.136000
     16 C23        -5.1270    0.4160    3.9280 c3        1 I52     -0.107000
     17 O26        -4.5630    2.9180    2.1410 o         1 I52     -0.311000
     18 C4         -3.9780    0.8270    3.0450 c3        1 I52      0.029000
     19 C6         -5.2630    0.8480    0.7650 c3        1 I52     -0.023000
     20 S14        -3.2320   -0.9930    1.1540 ss        1 I52      2.849000
     21 N5         -4.1770    0.2700    1.6790 n2        1 I52     -0.824000
     22 C3         -3.9090    2.3140    2.9760 c2        1 I52      0.223000
     23 O1         -2.8350    4.4010    3.7080 oh        1 I52     -0.242000
     24 N2         -2.9700    3.0370    3.8320 n         1 I52     -0.197000
     25 O21        -3.8250   -1.6540    0.0240 o         1 I52     -0.930000
     26 O41         2.7070   -1.7920   -1.2900 o         1 I52     -0.326000
     27 C28         3.2260   -0.7510   -0.9710 c1        1 I52      0.360000
     28 N27         2.4770    0.2290   -0.2400 n2        1 I52     -0.325000
     29 C29         4.7220   -0.4900   -1.3160 c2        1 I52     -0.140000
     30 C33         6.4330   -0.0660   -2.9620 c1        1 I52     -0.135000
     31 C34         5.0840   -0.1470   -2.6120 c2        1 I52     -0.071000
     32 C30         5.7030   -0.7520   -0.3700 c1        1 I52     -0.101000
     33 C32         7.4110   -0.3280   -2.0180 c1        1 I52     -0.037000
     34 C16        -0.6650   -0.1680    1.7820 c1        1 I52     -0.001000
     35 C18         1.0810   -0.0380    0.1170 c2        1 I52      0.156000
     36 C15        -1.6000   -0.4220    0.7810 c1        1 I52     -0.883000
     37 O22        -3.2020   -2.0630    2.1230 o         1 I52     -0.930000
     38 C20        -1.1970   -0.4850   -0.5510 c1        1 I52      0.017000
     39 C17         0.6770    0.0250    1.4500 c2        1 I52     -0.219000
     40 C19         0.1440   -0.2930   -0.8840 c1        1 I52     -0.190000
     41 H381       11.8380   -2.7210   -3.0270 hc        1 I52      0.079500
     42 H382       11.3550   -2.3310   -4.4940 hc        1 I52      0.079500
     43 H391       13.6470   -1.2490   -3.2840 hc        1 I52      0.073333
     44 H392       13.1890   -0.9910   -4.7800 hc        1 I52      0.073333
     45 H393       13.6990   -2.4420   -4.3500 hc        1 I52      0.073333
     46 H371       11.0280   -0.0570   -3.8200 hc        1 I52      0.080000
     47 H372       11.5670   -0.4220   -2.3340 hc        1 I52      0.080000
     48 H351        9.2680    0.4440   -1.4880 hc        1 I52      0.092500
     49 H352        8.9010    0.7170   -3.0210 hc        1 I52      0.092500
     50 H361        9.6910   -1.7880   -1.9540 hc        1 I52      0.085500
     51 H362        9.1970   -1.6040   -3.4570 hc        1 I52      0.085500
     52 H251       -4.6470   -1.5740    4.2840 hc        1 I52      0.083167
     53 H252       -3.8060   -0.5680    5.2090 hc        1 I52      0.083167
     54 H253       -5.3510   -0.8790    5.5420 hc        1 I52      0.083167
     55 H241       -5.9540    2.2790    4.2630 hc        1 I52      0.083167
     56 H242       -6.1860    1.2800    5.4910 hc        1 I52      0.083167
     57 H243       -4.7400    1.9640    5.2610 hc        1 I52      0.083167
     58 H71        -6.6060   -0.6880    1.3070 h1        1 I52      0.091500
     59 H72        -5.8310   -0.8870   -0.1360 h1        1 I52      0.091500
     60 H91        -8.5860   -1.1220    0.2050 h1        1 I52      0.082250
     61 H92        -8.7250    0.1810    1.1020 h1        1 I52      0.082250
     62 H131       -6.5450    0.5680   -2.0620 h1        1 I52      0.082250
     63 H132       -7.1470   -0.8630   -1.8830 h1        1 I52      0.082250
     64 H121       -8.6010    1.6080   -2.5610 h1        1 I52      0.092750
     65 H122       -8.4520    0.2540   -3.5740 h1        1 I52      0.092750
     66 H101      -10.0270    1.2720   -0.5050 h1        1 I52      0.092750
     67 H102      -10.6390   -0.1230   -0.3140 h1        1 I52      0.092750
     68 H31         7.7360   -0.8540   -0.0590 ha        1 I52      0.141000
     69 H23        -5.8830    0.1430    3.3720 hc        1 I52      0.111000
     70 H4         -3.1460    0.4830    3.4160 h1        1 I52      0.129000
     71 H61        -4.8590    1.1840   -0.0420 h1        1 I52      0.102000
     72 H62        -5.7250    1.5800    1.2280 h1        1 I52      0.102000
     73 H1         -2.3230    4.7110    4.3720 ho        1 I52      0.232000
     74 H2         -2.4190    2.5750    4.3920 hn        1 I52      0.215000
     75 H27         2.8360    1.0430   -0.0800 hn        1 I52      0.239000
     76 H33         6.6890    0.1760   -3.8800 ha        1 I52      0.143000
     77 H34         4.4010    0.0360   -3.2720 ha        1 I52      0.155000
     78 H30         5.4500   -0.9950    0.5430 ha        1 I52      0.136000
     79 H16        -0.9480   -0.1240    2.7180 ha        1 I52      0.155000
     80 H20        -1.8630   -0.6660   -1.2620 ha        1 I52      0.155000
     81 H17         1.3400    0.2060    2.1590 ha        1 I52      0.141000
     82 H19         0.4290   -0.3360   -1.8250 ha        1 I52      0.184000
@<TRIPOS>BOND
     1    1    2 1   
     2    1    3 1   
     3    1   41 1   
     4    1   42 1   
     5    2   43 1   
     6    2   44 1   
     7    2   45 1   
     8    3    5 1   
     9    3   46 1   
    10    3   47 1   
    11    4    5 1   
    12    4   33 1   
    13    4   48 1   
    14    4   49 1   
    15    5   50 1   
    16    5   51 1   
    17    6   16 1   
    18    6   52 1   
    19    6   53 1   
    20    6   54 1   
    21    7   16 1   
    22    7   55 1   
    23    7   56 1   
    24    7   57 1   
    25    8    9 1   
    26    8   10 1   
    27    8   11 1   
    28    9   19 1   
    29    9   58 1   
    30    9   59 1   
    31   10   14 1   
    32   10   60 1   
    33   10   61 1   
    34   11   13 1   
    35   11   62 1   
    36   11   63 1   
    37   12   13 1   
    38   12   14 1   
    39   13   64 1   
    40   13   65 1   
    41   14   66 1   
    42   14   67 1   
    43   15   33 1   
    44   15   68 1   
    45   16   18 1   
    46   16   69 1   
    47   17   22 1   
    48   18   21 1   
    49   18   22 1   
    50   18   70 1   
    51   19   21 1   
    52   19   71 1   
    53   19   72 1   
    54   20   25 1   
    55   20   37 1   
    56   22   24 1   
    57   23   24 1   
    58   23   73 1   
    59   24   74 1   
    60   26   27 1   
    61   27   29 1   
    62   28   35 1   
    63   28   75 1   
    64   29   31 1   
    65   29   32 1   
    66   30   31 1   
    67   30   76 1   
    68   31   77 1   
    69   32   78 1   
    70   34   39 1   
    71   34   79 1   
    72   35   39 1   
    73   35   40 1   
    74   36   38 1   
    75   38   80 1   
    76   39   81 1   
    77   40   82 1   
@<TRIPOS>SUBSTRUCTURE
     1 I52         1 TEMP              0 ****  ****    0 ROOT
