@<TRIPOS>MOLECULE
I52
   85    73     1     0     0
SMALL
bcc


@<TRIPOS>ATOM
      1 C38      1781.4920  236.8240 -863.6700 c3        1 I52     -0.605000
      2 C39      1781.1080  236.6610 -864.9880 c1        1 I52      0.732000
      3 C37      1784.8770  237.6330 -863.0650 c3        1 I52     -0.293000
      4 C35       -17.0090 -445.9240  366.6330 cu        1 I52     -0.062500
      5 C36       -16.1200 -446.8090  367.0090 cu        1 I52     -0.062500
      6 N8      -1491.7240    0.7420 -804.2970 n3        1 I52     -0.179000
      7 C9      -1490.8840    0.4330 -803.1380 c2        1 I52     -0.190000
      8 C13     -1489.9870    0.9400 -807.7230 c2        1 I52     -0.383000
      9 O11     -1494.3670    0.8230 -804.2030 o         1 I52     -0.307000
     10 C12     -1490.5430    0.1980 -806.5970 c1        1 I52      0.059000
     11 C10     -1495.4580    0.2640 -804.1310 c1        1 I52      0.310000
     12 C31       -18.3470 -447.1790  369.8230 c1        1 I52      0.311000
     13 C23       -32.2360 -448.8300  374.2560 c2        1 I52     -0.542000
     14 C4        -28.5050 -452.0190  373.1730 c3        1 I52     -0.146000
     15 C6        -27.7070 -454.3330  373.1880 c3        1 I52     -0.106000
     16 S14       -25.8400 -452.3220  374.7670 s4        1 I52      2.095800
     17 N5        -27.3390 -452.9100  373.1550 n3        1 I52     -0.389000
     18 C3        -28.2640 -450.7070  372.4110 c2        1 I52      0.233000
     19 N2        -29.3850 -449.9310  372.1390 n         1 I52     -0.256000
     20 O21       -25.9320 -453.4650  375.5120 o         1 I52     -0.456900
     21 O41       -21.1580 -450.0150  370.3460 o         1 I52     -0.588000
     22 N27       -21.8020 -450.1130  368.0790 n2        1 I52     -0.414000
     23 C29       -19.8570 -448.8810  368.7190 c2        1 I52      0.255000
     24 C33       -18.3030 -448.1050  366.8360 c1        1 I52     -0.083000
     25 C34       -19.3620 -448.9250  367.3340 c3        1 I52     -0.221000
     26 C30       -19.3150 -448.1130  369.7510 c2        1 I52     -0.499000
     27 C32       -17.5450 -447.0950  367.4230 cx        1 I52     -0.180000
     28 C16       -24.3880 -451.0430  373.0190 ca        1 I52      0.023000
     29 C18       -22.3330 -451.9730  372.1600 ca        1 I52      0.041000
     30 C15       -24.6180 -452.2030  373.8050 ca        1 I52     -1.043000
     31 O22       -26.4870 -451.1890  375.1640 o         1 I52     -0.456900
     32 C20       -23.6600 -453.2510  373.7160 ca        1 I52      0.023000
     33 C17       -23.2640 -450.9310  372.2170 ca        1 I52     -0.157000
     34 C19       -22.5420 -453.1370  372.9150 ca        1 I52     -0.157000
     35 H381     1782.9710  235.0780 -862.0340 ha        1 I52      0.012500
     36 H382     1783.2800  234.6720 -861.5850 ha        1 I52      0.012500
     37 H391     1780.8620  237.5890 -863.0970 hc        1 I52      0.286333
     38 H392     1784.2480  238.5080 -862.7890 hc        1 I52      0.075500
     39 H393     1782.5860  237.1800 -863.5540 hc        1 I52      0.286333
     40 H371     1785.9200  237.8220 -862.7210 hc        1 I52      0.075500
     41 H372     1781.4400  235.8550 -863.0530 hc        1 I52      0.286333
     42 H351      -15.1390 -447.2340  367.0950 ha        1 I52      0.229000
     43 H352      -17.3550 -445.0270  366.1570 ha        1 I52      0.229000
     44 H361     1784.8830  237.4970 -864.1680 hc        1 I52      0.075500
     45 H362     1784.4990  236.7130 -862.5650 hc        1 I52      0.075500
     46 H251      -29.4090 -452.5340  372.7370 h1        1 I52      0.136500
     47 H252      -30.1430 -447.1430  373.0910 ha        1 I52      0.012500
     48 H253      -29.9890 -447.5530  373.6220 ha        1 I52      0.012500
     49 H241      -28.2520 -452.5850  376.2680 ha        1 I52      0.012500
     50 H242      -31.8580 -450.9280  374.1020 ha        1 I52      0.077000
     51 H243      -28.4590 -452.2040  376.7890 ha        1 I52      0.012500
     52 H71       -28.8050 -455.8330  374.2640 hc        1 I52      0.103333
     53 H72       -29.5030 -454.1680  374.4320 hc        1 I52      0.103333
     54 H91     -1489.9360    0.0300 -803.1940 h4        1 I52      0.130000
     55 H92     -1491.9750    0.7280 -804.2970 DU        1 I52      0.178000
     56 H131    -1489.2980    0.0860 -807.9090 ha        1 I52      0.257000
     57 H132    -1491.1780    0.4930 -805.2960 hn        1 I52      0.280500
     58 H121    -1490.1280    0.5380 -808.6510 ha        1 I52      0.257000
     59 H122    -1492.5910    0.2100 -804.2570 hn        1 I52      0.280500
     60 H101    -1490.6320    0.3390 -803.1410 DU        1 I52      0.178000
     61 H102    -1491.4160    0.6820 -802.1800 h4        1 I52      0.130000
     62 H31       -17.7620 -446.8150  368.5710 hc        1 I52      0.070000
     63 H23       -33.2220 -448.9830  374.7690 ha        1 I52      0.193000
     64 H4        -28.2570 -454.6060  372.2400 h1        1 I52      0.108000
     65 H61       -26.7400 -454.9160  373.2030 h1        1 I52      0.108000
     66 H62       -27.9940 -454.6210  375.3390 hc        1 I52      0.103333
     67 H1        -28.7220 -448.7880  370.8180 ho        1 I52      0.226000
     68 H2        -30.1910 -449.8920  372.8850 hn        1 I52      0.325000
     69 H27       -21.4420 -451.8580  371.5090 ha        1 I52      0.206000
     70 H33       -20.2490 -448.7510  366.6230 hc        1 I52      0.232000
     71 H34       -19.0920 -450.0090  367.0910 hc        1 I52      0.232000
     72 H30       -19.7950 -448.3240  370.7570 ha        1 I52      0.252000
     73 H16       -25.1340 -450.2220  373.0390 ha        1 I52      0.173000
     74 H20       -23.8190 -454.1670  374.3150 ha        1 I52      0.173000
     75 H17       -23.0810 -450.0260  371.6030 ha        1 I52      0.187500
     76 H19       -21.8090 -453.9590  372.8680 ha        1 I52      0.187500
     77 C24       -31.4800 -449.9250  373.8590 c1        1 I52     -0.093000
     78 C7        -28.5510 -454.7500  374.3780 c3        1 I52     -0.239000
     79 O26       -27.1250 -450.4450  371.9600 o         1 I52     -0.417000
     80 O1        -29.1440 -448.7030  371.6980 oh        1 I52     -0.234000
     81 H51       -26.8170 -452.7340  372.3010 hn        1 I52      0.214000
     82 H22       -28.7320 -451.7630  374.2500 h1        1 I52      0.136500
     83 H272      -22.5910 -450.6550  368.3520 hn        1 I52      0.139000
     84 C28       -21.0380 -449.7580  369.0930 c2        1 I52      0.167000
     85 C25       -31.9450 -447.5290  374.0950 c1        1 I52      0.438000
@<TRIPOS>BOND
     1    1    2 1   
     2    1   37 1   
     3    1   39 1   
     4    1   41 1   
     5    3   38 1   
     6    3   40 1   
     7    3   44 1   
     8    3   45 1   
     9    4    5 1   
    10    4   27 1   
    11    4   43 1   
    12    5   27 1   
    13    5   42 1   
    14    6    7 1   
    15    6   57 1   
    16    6   59 1   
    17    7   54 1   
    18    7   61 1   
    19    8   10 1   
    20    8   56 1   
    21    8   58 1   
    22    9   11 1   
    23   12   26 1   
    24   13   63 1   
    25   13   77 1   
    26   13   85 1   
    27   14   17 1   
    28   14   18 1   
    29   14   46 1   
    30   14   82 1   
    31   15   17 1   
    32   15   64 1   
    33   15   65 1   
    34   15   78 1   
    35   16   20 1   
    36   16   30 1   
    37   16   31 1   
    38   17   81 1   
    39   18   19 1   
    40   18   79 1   
    41   19   68 1   
    42   19   80 1   
    43   21   84 1   
    44   22   83 1   
    45   22   84 1   
    46   23   25 1   
    47   23   26 1   
    48   23   84 1   
    49   24   25 1   
    50   24   27 1   
    51   25   70 1   
    52   25   71 1   
    53   26   72 1   
    54   27   62 1   
    55   28   30 1   
    56   28   33 1   
    57   28   73 1   
    58   29   33 1   
    59   29   34 1   
    60   29   69 1   
    61   30   32 1   
    62   32   34 1   
    63   32   74 1   
    64   33   75 1   
    65   34   76 1   
    66   35   36 1   
    67   47   48 1   
    68   49   51 1   
    69   50   77 1   
    70   52   78 1   
    71   53   78 1   
    72   66   78 1   
    73   67   80 1   
@<TRIPOS>SUBSTRUCTURE
     1 I52         1 TEMP              0 ****  ****    0 ROOT
