@<TRIPOS>MOLECULE
I52
   82    84     1     0     0
SMALL
bcc


@<TRIPOS>ATOM
      1 C38         2.6060   -0.2220   11.4940 c3        1 I52     -0.079400
      2 C39         3.0520    0.1960   12.8710 c3        1 I52     -0.093100
      3 C37         1.8430    0.8850   10.7980 c3        1 I52     -0.080400
      4 C35         0.6370    1.5740    8.7220 c3        1 I52     -0.045100
      5 C36         1.3970    0.4580    9.4160 c3        1 I52     -0.076400
      6 N8          2.1400    0.7680   -4.8210 n3        1 I52     -0.733600
      7 C9          2.7760    1.1330   -6.0800 c3        1 I52      0.136800
      8 C13         3.0950    0.2070   -3.8740 c3        1 I52      0.136800
      9 O11         4.9420    1.3830   -4.9640 os        1 I52     -0.415600
     10 C12         4.3390    1.0890   -3.7100 c3        1 I52      0.126400
     11 C10         4.0300    1.9910   -5.8700 c3        1 I52      0.126400
     12 C31        -0.9010    0.2490    7.2540 ca        1 I52     -0.135000
     13 C23        -2.3050   -0.0880   -6.1140 c3        1 I52     -0.071700
     14 C4         -2.4360   -0.3760   -4.5990 c3        1 I52      0.176500
     15 C6         -0.1300    0.2640   -3.9630 c3        1 I52      0.204800
     16 S14        -1.0420   -2.0830   -3.0500 sy        1 I52      1.511200
     17 N5         -1.2090   -0.6900   -3.9140 n3        1 I52     -0.791500
     18 C3         -3.1300    0.8440   -3.9440 c         1 I52      0.575100
     19 N2         -4.1700    0.5540   -3.0110 n         1 I52     -0.356400
     20 O21         0.1420   -2.7440   -3.4430 o         1 I52     -0.657300
     21 O41        -2.5160   -0.1630    3.3200 o         1 I52     -0.566100
     22 N27        -0.3380   -0.3190    2.5410 n         1 I52     -0.471100
     23 C29        -0.7580    0.3820    4.8450 ca        1 I52     -0.159600
     24 C33         0.7450    1.6830    6.2180 ca        1 I52     -0.135000
     25 C34         0.2920    1.2980    4.9580 ca        1 I52     -0.086500
     26 C30        -1.3610   -0.1350    5.9980 ca        1 I52     -0.086500
     27 C32         0.1570    1.1590    7.3750 ca        1 I52     -0.045300
     28 C16        -1.9710   -1.2930   -0.6630 ca        1 I52      0.020500
     29 C18        -0.5550   -0.7290    1.2260 ca        1 I52      0.146600
     30 C15        -0.8590   -1.5500   -1.4740 ca        1 I52     -0.432500
     31 O22        -2.2380   -2.8320   -3.1570 o         1 I52     -0.657300
     32 C20         0.4130   -1.3930   -0.9070 ca        1 I52      0.020500
     33 C17        -1.8400   -0.8900    0.6590 ca        1 I52     -0.207500
     34 C19         0.5780   -0.9940    0.4080 ca        1 I52     -0.207500
     35 H381        3.4990   -0.5060   10.8780 hc        1 I52      0.039700
     36 H382        1.9540   -1.1330   11.5700 hc        1 I52      0.039700
     37 H391        3.6110   -0.6340   13.3660 hc        1 I52      0.034033
     38 H392        3.7220    1.0880   12.8140 hc        1 I52      0.034033
     39 H393        2.1730    0.4590   13.5080 hc        1 I52      0.034033
     40 H371        0.9490    1.1690   11.4120 hc        1 I52      0.041200
     41 H372        2.4940    1.7960   10.7190 hc        1 I52      0.041200
     42 H351       -0.2460    1.8700    9.3520 hc        1 I52      0.054200
     43 H352        1.2990    2.4760    8.6350 hc        1 I52      0.054200
     44 H361        2.2910    0.1730    8.8020 hc        1 I52      0.045200
     45 H362        0.7420   -0.4500    9.4930 hc        1 I52      0.045200
     46 H251       -1.6930   -1.0780   -7.9370 hc        1 I52      0.043367
     47 H252       -0.7620   -1.5910   -6.4720 hc        1 I52      0.043367
     48 H253       -2.4610   -2.1720   -6.7150 hc        1 I52      0.043367
     49 H241       -4.4090   -0.5080   -6.4990 hc        1 I52      0.043367
     50 H242       -4.0270    1.2470   -6.2210 hc        1 I52      0.043367
     51 H243       -3.5720    0.4550   -7.7830 hc        1 I52      0.043367
     52 H71         1.2300   -1.1750   -4.9290 h1        1 I52      0.053700
     53 H72         0.5400    0.0980   -6.0310 h1        1 I52      0.053700
     54 H91         3.0640    0.2210   -6.6800 h1        1 I52      0.041200
     55 H92         2.0350    1.7280   -6.6820 h1        1 I52      0.041200
     56 H131        2.5810    0.1190   -2.8760 h1        1 I52      0.041200
     57 H132        3.4290   -0.8270   -4.1820 h1        1 I52      0.041200
     58 H121        5.1310    0.5350   -3.1410 h1        1 I52      0.053200
     59 H122        4.0820    2.0460   -3.1840 h1        1 I52      0.053200
     60 H101        4.6030    2.0750   -6.8300 h1        1 I52      0.053200
     61 H102        3.7530    3.0110   -5.4950 h1        1 I52      0.053200
     62 H31        -1.3740   -0.1600    8.1600 ha        1 I52      0.141500
     63 H23        -1.5970    0.7770   -6.2500 hc        1 I52      0.073700
     64 H4         -3.1170   -1.2830   -4.5080 h1        1 I52      0.092700
     65 H61        -0.5340    1.2930   -4.1920 h1        1 I52      0.069700
     66 H62         0.3330    0.3070   -2.9320 h1        1 I52      0.069700
     67 H1         -4.4480    2.1840   -2.1650 ho        1 I52      0.435000
     68 H2         -4.7550   -0.2250   -3.2960 hn        1 I52      0.304500
     69 H27         0.6180   -0.2440    2.8190 hn        1 I52      0.324500
     70 H33         1.5680    2.4090    6.3020 ha        1 I52      0.141500
     71 H34         0.7540    1.7380    4.0610 ha        1 I52      0.145500
     72 H30        -2.2060   -0.8360    5.9010 ha        1 I52      0.145500
     73 H16        -2.9860   -1.4240   -1.0830 ha        1 I52      0.154500
     74 H20         1.3050   -1.6070   -1.5250 ha        1 I52      0.154500
     75 H17        -2.7480   -0.7030    1.2560 ha        1 I52      0.160500
     76 H19         1.5960   -0.8890    0.8140 ha        1 I52      0.160500
     77 C28        -1.2960   -0.0440    3.5210 c         1 I52      0.685700
     78 C25        -1.7740   -1.3020   -6.8460 c3        1 I52     -0.101100
     79 C24        -3.6580    0.2980   -6.6810 c3        1 I52     -0.101100
     80 C7          0.9690   -0.0780   -5.0040 c3        1 I52      0.139800
     81 O26        -2.7280    2.0060   -4.0970 o         1 I52     -0.556100
     82 O1         -4.9750    1.5810   -2.7270 oh        1 I52     -0.436100
@<TRIPOS>BOND
     1    1    2 1   
     2    1    3 1   
     3    1   35 1   
     4    1   36 1   
     5    2   37 1   
     6    2   38 1   
     7    2   39 1   
     8    3    5 1   
     9    3   40 1   
    10    3   41 1   
    11    4    5 1   
    12    4   27 1   
    13    4   42 1   
    14    4   43 1   
    15    5   44 1   
    16    5   45 1   
    17    6    7 1   
    18    6    8 1   
    19    6   80 1   
    20    7   11 1   
    21    7   54 1   
    22    7   55 1   
    23    8   10 1   
    24    8   56 1   
    25    8   57 1   
    26    9   10 1   
    27    9   11 1   
    28   10   58 1   
    29   10   59 1   
    30   11   60 1   
    31   11   61 1   
    32   12   26 ar  
    33   12   27 ar  
    34   12   62 1   
    35   13   14 1   
    36   13   63 1   
    37   13   78 1   
    38   13   79 1   
    39   14   17 1   
    40   14   18 1   
    41   14   64 1   
    42   15   17 1   
    43   15   65 1   
    44   15   66 1   
    45   15   80 1   
    46   16   17 1   
    47   16   20 2   
    48   16   30 1   
    49   16   31 2   
    50   18   19 1   
    51   18   81 2   
    52   19   68 1   
    53   19   82 1   
    54   21   77 2   
    55   22   29 1   
    56   22   69 1   
    57   22   77 1   
    58   23   25 ar  
    59   23   26 ar  
    60   23   77 1   
    61   24   25 ar  
    62   24   27 ar  
    63   24   70 1   
    64   25   71 1   
    65   26   72 1   
    66   28   30 ar  
    67   28   33 ar  
    68   28   73 1   
    69   29   33 ar  
    70   29   34 ar  
    71   30   32 ar  
    72   32   34 ar  
    73   32   74 1   
    74   33   75 1   
    75   34   76 1   
    76   46   78 1   
    77   47   78 1   
    78   48   78 1   
    79   49   79 1   
    80   50   79 1   
    81   51   79 1   
    82   52   80 1   
    83   53   80 1   
    84   67   82 1   
@<TRIPOS>SUBSTRUCTURE
     1 I52         1 TEMP              0 ****  ****    0 ROOT
