@<TRIPOS>MOLECULE
I58
   29    28     1     0     0
SMALL
bcc


@<TRIPOS>ATOM
      1 N          -2.8030    1.5480    1.0020 n3        1 I58     -0.891800
      2 C          -4.0100   -0.4790    0.0590 c         1 I58      0.888600
      3 O          -4.9850   -0.1380    0.7880 o         1 I58     -0.842300
      4 OXT        -3.9830   -1.5150   -0.6600 o         1 I58     -0.842300
      5 CA         -2.7560    0.4600    0.0310 c3        1 I58      0.013500
      6 CB         -1.5090   -0.4100    0.1690 c3        1 I58     -0.085400
      7 CG         -0.2120    0.3480   -0.1390 c3        1 I58      0.168600
      8 F          -0.1310    0.6930   -1.4830 f         1 I58     -0.256300
      9 CD          0.9860   -0.5290    0.2610 c3        1 I58     -0.125400
     10 CE          2.2910    0.2530    0.1350 c3        1 I58      0.183800
     11 NZ          3.4570   -0.5740    0.3720 nh        1 I58     -0.801200
     12 CX          4.7420   -0.0490    0.1180 c2        1 I58      0.592200
     13 NX          4.9600    1.2270   -0.0210 n2        1 I58     -0.838100
     14 CT          5.8360   -1.1090    0.1120 c3        1 I58     -0.191400
     15 H          -3.6940    2.0030    0.8910 hn        1 I58      0.331300
     16 H2         -2.8090    1.1460    1.9240 hn        1 I58      0.331300
     17 HA         -2.7330    0.9370   -0.9920 h1        1 I58      0.051700
     18 HB2        -1.6230   -1.2690   -0.5440 hc        1 I58      0.059700
     19 HB3        -1.4400   -0.8240    1.2070 hc        1 I58      0.059700
     20 HG         -0.1790    1.3060    0.4580 h1        1 I58      0.063700
     21 HD2         1.0010   -1.4360   -0.3990 hc        1 I58      0.051700
     22 HD3         0.8410   -0.8700    1.3170 hc        1 I58      0.051700
     23 HE2         2.3040    1.0850    0.8940 h1        1 I58      0.056200
     24 HE3         2.3250    0.7310   -0.8880 h1        1 I58      0.056200
     25 HZ          3.3550   -1.5090    0.0330 hn        1 I58      0.391800
     26 HNX         5.9270    1.4600   -0.0950 hn        1 I58      0.375400
     27 HT1         6.8450   -0.6410    0.0060 hc        1 I58      0.049033
     28 HT2         5.8180   -1.6920    1.0650 hc        1 I58      0.049033
     29 HT3         5.6840   -1.8120   -0.7430 hc        1 I58      0.049033
@<TRIPOS>BOND
     1    1    5 1   
     2    1   15 1   
     3    1   16 1   
     4    2    3 1   
     5    2    4 1   
     6    2    5 1   
     7    5    6 1   
     8    5   17 1   
     9    6    7 1   
    10    6   18 1   
    11    6   19 1   
    12    7    8 1   
    13    7    9 1   
    14    7   20 1   
    15    9   10 1   
    16    9   21 1   
    17    9   22 1   
    18   10   11 1   
    19   10   23 1   
    20   10   24 1   
    21   11   12 1   
    22   11   25 1   
    23   12   13 2   
    24   12   14 1   
    25   13   26 1   
    26   14   27 1   
    27   14   28 1   
    28   14   29 1   
@<TRIPOS>SUBSTRUCTURE
     1 I58         1 TEMP              0 ****  ****    0 ROOT
