@<TRIPOS>MOLECULE
I5A
   30    31     1     0     0
SMALL
bcc


@<TRIPOS>ATOM
      1 I           0.1490   -0.9400    1.1110 i         1 I5A     -0.199900
      2 N1          3.8100   -0.8760    4.3720 n         1 I5A     -0.340000
      3 C2          4.1410   -2.1240    3.7320 c         1 I5A      0.831900
      4 O2          4.5290   -2.1550    2.5560 o         1 I5A     -0.533500
      5 N3          4.0330   -3.3380    4.4760 nc        1 I5A     -0.624100
      6 C4          3.6020   -3.2660    5.7190 cd        1 I5A      0.610500
      7 N4          3.4770   -4.5430    6.4730 n4        1 I5A     -0.802600
      8 C5          3.2360   -2.0590    6.3990 cd        1 I5A     -0.441600
      9 C6          3.3450   -0.8910    5.6550 cc        1 I5A      0.136600
     10 C1'         3.8020    0.4070    3.6360 c3        1 I5A      0.250500
     11 C2'         4.9640    0.6150    2.6150 c3        1 I5A      0.098100
     12 O2'         5.6700    1.7790    2.9530 oh        1 I5A     -0.575800
     13 C3'         4.2610    0.7060    1.2400 c3        1 I5A      0.088100
     14 O3'         4.4690    1.9850    0.6760 oh        1 I5A     -0.585800
     15 C4'         2.7470    0.5730    1.5170 c3        1 I5A      0.146100
     16 O4'         2.5700    0.5560    2.9480 os        1 I5A     -0.402600
     17 C5'         2.1830   -0.6740    0.8790 c3        1 I5A      0.025500
     18 HN4         4.0730   -4.4890    7.3070 hn        1 I5A      0.479800
     19 HN4A        2.4970   -4.6600    6.7560 hn        1 I5A      0.479800
     20 H5          2.8800   -2.0330    7.4340 ha        1 I5A      0.186000
     21 H6          3.0540    0.0840    6.1060 h4        1 I5A      0.204000
     22 H1'         3.8250    1.2300    4.4180 h2        1 I5A      0.110700
     23 H2'         5.7270   -0.2090    2.6420 h1        1 I5A      0.119700
     24 HO2'        5.1600    2.5500    2.6550 ho        1 I5A      0.433000
     25 H3'         4.6280   -0.1080    0.5600 h1        1 I5A      0.089700
     26 HO3'        5.3560    1.9890    0.2910 ho        1 I5A      0.431000
     27 H4'         2.1980    1.4980    1.1750 h1        1 I5A      0.122700
     28 H5'         2.3690   -0.6270   -0.2200 h1        1 I5A      0.092200
     29 H5'A        2.6820   -1.5840    1.2880 h1        1 I5A      0.092200
     30 H43         3.7650   -5.3490    5.8980 hn        1 I5A      0.479800
@<TRIPOS>BOND
     1    1   17 1   
     2    2    3 1   
     3    2    9 1   
     4    2   10 1   
     5    3    4 2   
     6    3    5 1   
     7    5    6 2   
     8    6    7 1   
     9    6    8 1   
    10    7   18 1   
    11    7   19 1   
    12    7   30 1   
    13    8    9 2   
    14    8   20 1   
    15    9   21 1   
    16   10   11 1   
    17   10   16 1   
    18   10   22 1   
    19   11   12 1   
    20   11   13 1   
    21   11   23 1   
    22   12   24 1   
    23   13   14 1   
    24   13   15 1   
    25   13   25 1   
    26   14   26 1   
    27   15   16 1   
    28   15   17 1   
    29   15   27 1   
    30   17   28 1   
    31   17   29 1   
@<TRIPOS>SUBSTRUCTURE
     1 I5A         1 TEMP              0 ****  ****    0 ROOT
