@<TRIPOS>MOLECULE
I5A
   29    30     1     0     0
SMALL
bcc


@<TRIPOS>ATOM
      1 I           2.4090   -1.3660   -0.0250 i         1 I5A     -0.237900
      2 N1         -2.4320    0.3740   -0.5180 n         1 I5A     -0.392000
      3 C2         -2.5540   -0.0610    0.8560 c         1 I5A      0.842900
      4 O2         -1.8110    0.4760    1.7070 o         1 I5A     -0.651500
      5 N3         -3.4830   -1.0440    1.2150 nc        1 I5A     -0.726100
      6 C4         -4.2470   -1.6010    0.2570 cd        1 I5A      0.759500
      7 N4         -5.2060   -2.5270    0.5990 nh        1 I5A     -0.918800
      8 C5         -4.1090   -1.2270   -1.1510 cd        1 I5A     -0.424600
      9 C6         -3.1920   -0.2640   -1.4720 cc        1 I5A      0.076600
     10 C1'        -1.4350    1.3430   -0.9590 c3        1 I5A      0.291500
     11 C2'        -1.2520    2.5760   -0.0220 c3        1 I5A      0.140100
     12 O2'        -1.3520    3.7060   -0.8640 oh        1 I5A     -0.600800
     13 C3'         0.1320    2.3660    0.6260 c3        1 I5A      0.083100
     14 O3'         0.8760    3.5600    0.4810 oh        1 I5A     -0.602800
     15 C4'         0.7890    1.1940   -0.1420 c3        1 I5A      0.123100
     16 O4'        -0.1510    0.7240   -1.1150 os        1 I5A     -0.408600
     17 C5'         1.1830    0.0780    0.8000 c3        1 I5A      0.041500
     18 HN4        -5.2600   -2.8670    1.5280 hn        1 I5A      0.440300
     19 HN4A       -5.6270   -3.0520   -0.1250 hn        1 I5A      0.440300
     20 H5         -4.7210   -1.7040   -1.9240 ha        1 I5A      0.156000
     21 H6         -3.0370    0.0460   -2.5250 h4        1 I5A      0.161000
     22 H1'        -1.7160    1.6950   -2.0000 h2        1 I5A      0.104700
     23 H2'        -2.0460    2.6430    0.7700 h1        1 I5A      0.090700
     24 HO2'       -0.7990    4.4080   -0.4960 ho        1 I5A      0.436000
     25 H3'        -0.0010    2.1070    1.7130 h1        1 I5A      0.088700
     26 HO3'        1.6650    3.4670    1.0280 ho        1 I5A      0.418000
     27 H4'         1.6710    1.5630   -0.7380 h1        1 I5A      0.085700
     28 H5'         0.2670   -0.4340    1.1840 h1        1 I5A      0.091700
     29 H5'A        1.7440    0.5030    1.6640 h1        1 I5A      0.091700
@<TRIPOS>BOND
     1    1   17 1   
     2    2    3 1   
     3    2    9 1   
     4    2   10 1   
     5    3    4 2   
     6    3    5 1   
     7    5    6 2   
     8    6    7 1   
     9    6    8 1   
    10    7   18 1   
    11    7   19 1   
    12    8    9 2   
    13    8   20 1   
    14    9   21 1   
    15   10   11 1   
    16   10   16 1   
    17   10   22 1   
    18   11   12 1   
    19   11   13 1   
    20   11   23 1   
    21   12   24 1   
    22   13   14 1   
    23   13   15 1   
    24   13   25 1   
    25   14   26 1   
    26   15   16 1   
    27   15   17 1   
    28   15   27 1   
    29   17   28 1   
    30   17   29 1   
@<TRIPOS>SUBSTRUCTURE
     1 I5A         1 TEMP              0 ****  ****    0 ROOT
