@<TRIPOS>MOLECULE
I5A
   29    29     1     0     0
SMALL
bcc


@<TRIPOS>ATOM
      1 I          -3.8660    0.6150   -2.8440 i         1 I5A      0.063000
      2 N1          0.0490   -0.4150    0.9090 n         1 I5A     -0.285000
      3 C2         -0.4360   -1.6690    0.3400 c2        1 I5A      0.361000
      4 O2         -1.0930   -1.6580   -0.6860 o         1 I5A     -0.376000
      5 N3         -0.1680   -2.9480    1.0330 n2        1 I5A     -0.299000
      6 C4          0.4810   -2.9490    2.3120 c1        1 I5A      0.233000
      7 N4          0.6500   -4.1530    3.0130 n3        1 I5A     -0.357000
      8 C5          0.9710   -1.6890    2.8860 c1        1 I5A     -0.338000
      9 C6          0.7060   -0.4120    2.1920 c2        1 I5A      0.074000
     10 C1'        -0.1920    0.8310    0.2210 c3        1 I5A      0.143000
     11 C2'         0.8230    1.1380   -0.5050 c3        1 I5A      0.029000
     12 O2'         1.7430    2.0610    0.2500 oh        1 I5A     -0.328000
     13 C3'         0.2480    1.8420   -1.7040 c3        1 I5A     -0.028000
     14 O3'         0.5060    3.1790   -1.6340 oh        1 I5A     -0.330000
     15 C4'        -1.2960    1.5850   -1.6470 c3        1 I5A      0.012000
     16 O4'        -1.4290    0.6810   -0.7740 os        1 I5A     -0.265000
     17 C5'        -1.8090    1.0980   -3.0050 c3        1 I5A     -0.338000
     18 HN4         1.1230   -4.1620    3.8160 hn        1 I5A      0.235500
     19 HN4A        0.3420   -4.9370    2.6540 hn        1 I5A      0.235500
     20 H5          1.4060   -1.6890    3.7420 ha        1 I5A      0.156000
     21 H6          1.0360    0.4400    2.5790 h4        1 I5A      0.161000
     22 H1'        -0.3730    1.5570    0.8810 h2        1 I5A      0.144000
     23 H2'         1.3200    0.3000   -0.7910 h1        1 I5A      0.130000
     24 HO2'        2.5990    1.9170   -0.0150 ho        1 I5A      0.235000
     25 H3'         0.6140    1.4760   -2.5080 h1        1 I5A      0.128000
     26 HO3'        0.8160    3.4530   -2.3920 ho        1 I5A      0.217000
     27 H4'        -1.7730    2.4060   -1.3710 h1        1 I5A      0.125000
     28 H5'        -1.6920    1.8030   -3.6670 h1        1 I5A      0.131000
     29 H5'A       -1.3020    0.2970   -3.2830 h1        1 I5A      0.131000
@<TRIPOS>BOND
     1    1   17 1   
     2    2    3 1   
     3    2    9 1   
     4    2   10 1   
     5    3    4 1   
     6    3    5 1   
     7    5    6 1   
     8    6    7 1   
     9    7   18 1   
    10    7   19 1   
    11    8    9 1   
    12    8   20 1   
    13    9   21 1   
    14   10   11 1   
    15   10   16 1   
    16   10   22 1   
    17   11   12 1   
    18   11   13 1   
    19   11   23 1   
    20   12   24 1   
    21   13   14 1   
    22   13   15 1   
    23   13   25 1   
    24   14   26 1   
    25   15   16 1   
    26   15   17 1   
    27   15   27 1   
    28   17   28 1   
    29   17   29 1   
@<TRIPOS>SUBSTRUCTURE
     1 I5A         1 TEMP              0 ****  ****    0 ROOT
