@<TRIPOS>MOLECULE
I5A
   30    31     1     0     0
SMALL
bcc


@<TRIPOS>ATOM
      1 I           0.1560   -0.9440    1.1000 i         1 I5A     -0.199900
      2 N1          3.8070   -0.8750    4.3720 n         1 I5A     -0.340000
      3 C2          4.1410   -2.1240    3.7340 c         1 I5A      0.831900
      4 O2          4.5320   -2.1550    2.5600 o         1 I5A     -0.533500
      5 N3          4.0310   -3.3370    4.4790 nc        1 I5A     -0.624100
      6 C4          3.5960   -3.2640    5.7210 cd        1 I5A      0.610500
      7 N4          3.4710   -4.5410    6.4750 n4        1 I5A     -0.802600
      8 C5          3.2280   -2.0570    6.3980 cd        1 I5A     -0.441600
      9 C6          3.3380   -0.8890    5.6540 cc        1 I5A      0.136600
     10 C1'         3.8010    0.4080    3.6360 c3        1 I5A      0.250500
     11 C2'         4.9660    0.6160    2.6180 c3        1 I5A      0.098100
     12 O2'         5.6700    1.7800    2.9570 oh        1 I5A     -0.575800
     13 C3'         4.2670    0.7050    1.2400 c3        1 I5A      0.088100
     14 O3'         4.4760    1.9840    0.6770 oh        1 I5A     -0.585800
     15 C4'         2.7520    0.5710    1.5130 c3        1 I5A      0.146100
     16 O4'         2.5700    0.5550    2.9430 os        1 I5A     -0.402600
     17 C5'         2.1910   -0.6770    0.8750 c3        1 I5A      0.025500
     18 HN4         2.4890   -4.6590    6.7530 hn        1 I5A      0.479800
     19 HN4A        4.0620   -4.4840    7.3120 hn        1 I5A      0.479800
     20 H5          2.8680   -2.0300    7.4330 ha        1 I5A      0.186000
     21 H6          3.0450    0.0860    6.1030 h4        1 I5A      0.204000
     22 H1'         3.8200    1.2310    4.4170 h2        1 I5A      0.110700
     23 H2'         5.7290   -0.2080    2.6480 h1        1 I5A      0.119700
     24 HO2'        5.1600    2.5510    2.6580 ho        1 I5A      0.433000
     25 H3'         4.6370   -0.1090    0.5620 h1        1 I5A      0.089700
     26 HO3'        5.3640    1.9880    0.2940 ho        1 I5A      0.431000
     27 H4'         2.2030    1.4950    1.1690 h1        1 I5A      0.122700
     28 H5'         2.3810   -0.6300   -0.2250 h1        1 I5A      0.092200
     29 H5'A        2.6890   -1.5860    1.2850 h1        1 I5A      0.092200
     30 H43         3.7640   -5.3470    5.9030 hn        1 I5A      0.479800
@<TRIPOS>BOND
     1    1   17 1   
     2    2    3 1   
     3    2    9 1   
     4    2   10 1   
     5    3    4 2   
     6    3    5 1   
     7    5    6 2   
     8    6    7 1   
     9    6    8 1   
    10    7   18 1   
    11    7   19 1   
    12    7   30 1   
    13    8    9 2   
    14    8   20 1   
    15    9   21 1   
    16   10   11 1   
    17   10   16 1   
    18   10   22 1   
    19   11   12 1   
    20   11   13 1   
    21   11   23 1   
    22   12   24 1   
    23   13   14 1   
    24   13   15 1   
    25   13   25 1   
    26   14   26 1   
    27   15   16 1   
    28   15   17 1   
    29   15   27 1   
    30   17   28 1   
    31   17   29 1   
@<TRIPOS>SUBSTRUCTURE
     1 I5A         1 TEMP              0 ****  ****    0 ROOT
