@<TRIPOS>MOLECULE
I5A
   30    31     1     0     0
SMALL
bcc


@<TRIPOS>ATOM
      1 I           0.1720   -1.0150    1.0810 i         1 I5A     -0.199900
      2 N1          3.8010   -0.8670    4.3730 n         1 I5A     -0.340000
      3 C2          4.1600   -2.1140    3.7450 c         1 I5A      0.831900
      4 O2          4.5580   -2.1460    2.5730 o         1 I5A     -0.533500
      5 N3          4.0650   -3.3240    4.4970 nc        1 I5A     -0.624100
      6 C4          3.6220   -3.2510    5.7360 cd        1 I5A      0.610500
      7 N4          3.5130   -4.5240    6.4970 nz        1 I5A     -0.802600
      8 C5          3.2300   -2.0450    6.4030 cd        1 I5A     -0.441600
      9 C6          3.3260   -0.8800    5.6520 cc        1 I5A      0.136600
     10 C1'         3.7790    0.4110    3.6280 c3        1 I5A      0.250500
     11 C2'         4.9460    0.6320    2.6160 c3        1 I5A      0.098100
     12 O2'         5.6300    1.8100    2.9520 oh        1 I5A     -0.575800
     13 C3'         4.2540    0.7010    1.2340 c3        1 I5A      0.088100
     14 O3'         4.4450    1.9800    0.6640 oh        1 I5A     -0.585800
     15 C4'         2.7400    0.5440    1.4990 c3        1 I5A      0.146100
     16 O4'         2.5500    0.5340    2.9290 os        1 I5A     -0.402600
     17 C5'         2.2030   -0.7170    0.8650 c3        1 I5A      0.025500
     18 HN4         3.8210   -5.3290    5.9310 hn        1 I5A      0.479800
     19 HN4A        2.5320   -4.6560    6.7710 hn        1 I5A      0.479800
     20 H5          2.8640   -2.0180    7.4360 ha        1 I5A      0.186000
     21 H6          3.0140    0.0920    6.0940 h4        1 I5A      0.204000
     22 H1'         3.7800    1.2390    4.4040 h2        1 I5A      0.110700
     23 H2'         5.7230   -0.1790    2.6550 h1        1 I5A      0.119700
     24 HO2'        5.1090    2.5700    2.6450 ho        1 I5A      0.433000
     25 H3'         4.6410   -0.1110    0.5630 h1        1 I5A      0.089700
     26 HO3'        5.3350    1.9960    0.2860 ho        1 I5A      0.431000
     27 H4'         2.1780    1.4570    1.1460 h1        1 I5A      0.122700
     28 H5'         2.3980   -0.6740   -0.2330 h1        1 I5A      0.092200
     29 H5'A        2.7130   -1.6150    1.2840 h1        1 I5A      0.092200
     30 H43         4.0990   -4.4540    7.3370 hn        1 I5A      0.479800
@<TRIPOS>BOND
     1    1   17 1   
     2    2    3 1   
     3    2    9 1   
     4    2   10 1   
     5    3    4 2   
     6    3    5 1   
     7    5    6 2   
     8    6    7 1   
     9    6    8 1   
    10    7   18 1   
    11    7   19 1   
    12    7   30 1   
    13    8    9 2   
    14    8   20 1   
    15    9   21 1   
    16   10   11 1   
    17   10   16 1   
    18   10   22 1   
    19   11   12 1   
    20   11   13 1   
    21   11   23 1   
    22   12   24 1   
    23   13   14 1   
    24   13   15 1   
    25   13   25 1   
    26   14   26 1   
    27   15   16 1   
    28   15   17 1   
    29   15   27 1   
    30   17   28 1   
    31   17   29 1   
@<TRIPOS>SUBSTRUCTURE
     1 I5A         1 TEMP              0 ****  ****    0 ROOT
