@<TRIPOS>MOLECULE
I5C
   32    31     1     0     0
SMALL
bcc


@<TRIPOS>ATOM
      1 I          -6.1350   -0.0460   -0.0260 i         1 I5C      0.159000
      2 P           4.9410    1.2220   -0.9690 p3        1 I5C      2.522000
      3 OP1         5.1870    2.4370   -1.8580 o         1 I5C     -1.236500
      4 OP2         5.8960    1.2510    0.1930 os        1 I5C     -1.273000
      5 O5'         3.4510    1.2570   -0.4300 os        1 I5C     -0.713000
      6 N1         -1.6630    0.1350   -0.0280 n         1 I5C     -0.254000
      7 C6         -3.0440    0.2270    0.3640 c2        1 I5C      0.143000
      8 C2         -1.3210   -0.0970   -1.4170 c2        1 I5C      0.345000
      9 O2         -0.2120    0.1100   -1.7970 o         1 I5C     -0.375000
     10 N3         -2.3670   -0.4520   -2.3790 n2        1 I5C     -0.326000
     11 C4         -3.7410   -0.3400   -2.0120 c1        1 I5C      0.226000
     12 N4         -4.7390   -0.5880   -2.9560 n2        1 I5C     -0.345000
     13 C5         -4.1030   -0.0050   -0.6300 c2        1 I5C     -0.525000
     14 C2'        -0.3440   -0.8000    1.5400 c3        1 I5C     -0.207000
     15 C5'         2.9290    0.0990    0.2190 c3        1 I5C      0.077000
     16 C4'         1.6620    0.4900    1.0250 c3        1 I5C     -0.062000
     17 O4'         0.7300    0.7990    0.2480 os        1 I5C     -0.299000
     18 C1'        -0.6160    0.3240    0.9580 c3        1 I5C      0.144000
     19 C3'         1.1280   -0.7370    1.8330 c3        1 I5C      0.044000
     20 O3'         1.3350   -0.5500    3.1570 oh        1 I5C     -0.397000
     21 OP3         5.1570   -0.0340   -1.7650 o         1 I5C     -1.236500
     22 H6         -3.2740    0.3810    1.2890 h4        1 I5C      0.232000
     23 H41        -5.6050   -0.5700   -2.7110 hn        1 I5C      0.206000
     24 H42        -4.5180   -0.7160   -3.8230 hn        1 I5C      0.206000
     25 H2'        -0.5350   -1.5300    0.9540 hc        1 I5C      0.094500
     26 H2''       -0.8490   -0.8860    2.3650 hc        1 I5C      0.094500
     27 H5'         3.6220   -0.2770    0.8410 h1        1 I5C      0.034500
     28 H5''        2.6950   -0.5640   -0.4420 h1        1 I5C      0.034500
     29 H4'         1.8640    1.2510    1.6420 h1        1 I5C      0.120000
     30 H1'        -0.8920    0.9770    1.6110 h2        1 I5C      0.125000
     31 H3'         1.5690   -1.5600    1.5320 h1        1 I5C      0.141000
     32 HO3'        1.7910   -1.2100    3.4730 ho        1 I5C      0.300000
@<TRIPOS>BOND
     1    1   13 1   
     2    2    3 1   
     3    2    5 1   
     4    2   21 1   
     5    5   15 1   
     6    6    7 1   
     7    6    8 1   
     8    6   18 1   
     9    7   13 1   
    10    7   22 1   
    11    8    9 1   
    12    8   10 1   
    13   10   11 1   
    14   11   13 1   
    15   12   23 1   
    16   12   24 1   
    17   14   18 1   
    18   14   19 1   
    19   14   25 1   
    20   14   26 1   
    21   15   16 1   
    22   15   27 1   
    23   15   28 1   
    24   16   17 1   
    25   16   19 1   
    26   16   29 1   
    27   17   18 1   
    28   18   30 1   
    29   19   20 1   
    30   19   31 1   
    31   20   32 1   
@<TRIPOS>SUBSTRUCTURE
     1 I5C         1 TEMP              0 ****  ****    0 ROOT
