@<TRIPOS>MOLECULE
I5C
   32    33     1     0     0
SMALL
bcc


@<TRIPOS>ATOM
      1 I          -0.0200   -3.7990   -3.0270 i         1 I5C     -0.226800
      2 P          -3.8700    0.1790    4.1080 p5        1 I5C      1.438800
      3 OP1        -4.4630    0.3040    5.4550 o         1 I5C     -0.848500
      4 OP2        -4.9220   -0.8110    3.3380 oh        1 I5C     -0.785400
      5 O5'        -2.5850   -0.8470    4.1940 os        1 I5C     -0.585200
      6 N1          1.5530   -2.0920    0.4770 n         1 I5C     -0.330400
      7 C6          0.7780   -2.3770   -0.6010 c1        1 I5C     -0.049900
      8 C2          2.7260   -2.8750    0.7810 c         1 I5C      0.759500
      9 O2          3.4780   -2.5310    1.7320 o         1 I5C     -0.681100
     10 N3          3.0380   -3.9970    0.0060 ne        1 I5C     -0.797100
     11 C4          2.2620   -4.2720   -1.0700 cf        1 I5C      0.712500
     12 N4          2.6280   -5.3730   -1.8840 nh        1 I5C     -0.892800
     13 C5          1.1370   -3.4690   -1.4140 cf        1 I5C     -0.428900
     14 C2'         0.5000    0.1970    0.6970 c3        1 I5C     -0.107400
     15 C5'        -2.0140   -1.2610    2.9870 c3        1 I5C      0.192400
     16 C4'        -0.7010   -0.5150    2.7020 c3        1 I5C      0.087100
     17 O4'         0.3190   -1.4820    2.4280 os        1 I5C     -0.430600
     18 C1'         1.1950   -1.0040    1.3750 c3        1 I5C      0.319500
     19 C3'        -0.7790    0.4460    1.4960 c3        1 I5C      0.138100
     20 O3'        -0.8020    1.8000    1.9070 oh        1 I5C     -0.645800
     21 OP3        -3.4740    1.2850    3.2090 o         1 I5C     -0.848500
     22 H6         -5.4820   -1.2700    3.9530 ho        1 I5C      0.421000
     23 H41         1.8330   -5.8110   -2.2980 hn        1 I5C      0.371300
     24 H42         3.2310   -6.0320   -1.4390 hn        1 I5C      0.371300
     25 H2'         0.2500   -0.0220   -0.3710 hc        1 I5C      0.067200
     26 H2''        1.1710    1.0900    0.7380 hc        1 I5C      0.067200
     27 H5'        -1.7860   -2.3600    3.0820 h1        1 I5C      0.037700
     28 H5''       -2.7480   -1.1030    2.1500 h1        1 I5C      0.037700
     29 H4'        -0.3800    0.0520    3.6200 h1        1 I5C      0.058700
     30 H1'         2.1420   -0.6750    1.9020 h2        1 I5C      0.067700
     31 H3'        -1.6890    0.2280    0.8740 h1        1 I5C      0.053700
     32 HO3'       -1.6620    1.9400    2.3400 ho        1 I5C      0.457000
@<TRIPOS>BOND
     1    1   13 1   
     2    2    3 1   
     3    2    4 1   
     4    2    5 1   
     5    2   21 1   
     6    4   22 1   
     7    5   15 1   
     8    6    7 2   
     9    6    8 1   
    10    6   18 1   
    11    7   13 2   
    12    8    9 2   
    13    8   10 1   
    14   10   11 2   
    15   11   12 1   
    16   11   13 1   
    17   12   23 1   
    18   12   24 1   
    19   14   18 1   
    20   14   19 1   
    21   14   25 1   
    22   14   26 1   
    23   15   16 1   
    24   15   27 1   
    25   15   28 1   
    26   16   17 1   
    27   16   19 1   
    28   16   29 1   
    29   17   18 1   
    30   18   30 1   
    31   19   20 1   
    32   19   31 1   
    33   20   32 1   
@<TRIPOS>SUBSTRUCTURE
     1 I5C         1 TEMP              0 ****  ****    0 ROOT
