@<TRIPOS>MOLECULE
I5H
   28    30     1     0     0
SMALL
bcc


@<TRIPOS>ATOM
      1 N1         -0.0750   -0.0700   -0.0060 na        1 I5H     -0.187400
      2 C2          1.3190   -0.0790   -0.0330 cc        1 I5H     -0.083100
      3 C3          1.8260   -0.0390    1.2680 cd        1 I5H     -0.166400
      4 C4          0.6890    0.0030    2.1640 ca        1 I5H     -0.093800
      5 C5          0.5410    0.0670    3.5520 ca        1 I5H     -0.100000
      6 C6         -0.7360    0.0940    4.0910 ca        1 I5H     -0.144000
      7 C7         -1.8780    0.0630    3.2690 ca        1 I5H     -0.111000
      8 C8         -1.7780    0.0080    1.8880 ca        1 I5H     -0.138000
      9 C9         -0.4910   -0.0200    1.3280 ca        1 I5H     -0.045200
     10 C10         3.2410   -0.0280    1.6560 c3        1 I5H     -0.017200
     11 C11         3.7770   -1.4430    1.8880 c3        1 I5H     -0.008300
     12 C12         5.2610   -1.3740    2.3510 c         1 I5H      0.690500
     13 N13         5.3160   -1.9570    3.6250 n         1 I5H     -0.615500
     14 C14         4.0230   -2.4180    4.0120 c         1 I5H      0.774500
     15 N15         3.1070   -2.2220    2.9370 n         1 I5H     -0.507900
     16 O16         6.2160   -0.9050    1.7290 o         1 I5H     -0.580500
     17 O17         3.7730   -2.9520    5.1040 o         1 I5H     -0.604500
     18 HN1        -0.6700   -0.0900   -0.7900 hn        1 I5H      0.302700
     19 H2          1.8580   -0.1100   -0.9830 h4        1 I5H      0.170000
     20 H5          1.4270    0.1050    4.2020 ha        1 I5H      0.132000
     21 H6         -0.8670    0.1420    5.1820 ha        1 I5H      0.135000
     22 H7         -2.8730    0.0850    3.7390 ha        1 I5H      0.134000
     23 H8         -2.6730   -0.0130    1.2520 ha        1 I5H      0.135000
     24 H10         3.3710    0.5870    2.5870 hc        1 I5H      0.069700
     25 H10A        3.8690    0.4400    0.8500 hc        1 I5H      0.069700
     26 H11         3.7210   -2.0350    0.9300 h1        1 I5H      0.104700
     27 HN13        6.1310   -2.1150    4.1590 hn        1 I5H      0.357500
     28 HN15        2.1780   -1.9500    3.1780 hn        1 I5H      0.329500
@<TRIPOS>BOND
     1    1    2 1   
     2    1    9 1   
     3    1   18 1   
     4    2    3 2   
     5    2   19 1   
     6    3    4 1   
     7    3   10 1   
     8    4    5 ar  
     9    4    9 ar  
    10    5    6 ar  
    11    5   20 1   
    12    6    7 ar  
    13    6   21 1   
    14    7    8 ar  
    15    7   22 1   
    16    8    9 ar  
    17    8   23 1   
    18   10   11 1   
    19   10   24 1   
    20   10   25 1   
    21   11   12 1   
    22   11   15 1   
    23   11   26 1   
    24   12   13 1   
    25   12   16 2   
    26   13   14 1   
    27   13   27 1   
    28   14   15 1   
    29   14   17 2   
    30   15   28 1   
@<TRIPOS>SUBSTRUCTURE
     1 I5H         1 TEMP              0 ****  ****    0 ROOT
