@<TRIPOS>MOLECULE
I5H
   28    30     1     0     0
SMALL
bcc


@<TRIPOS>ATOM
      1 N1         -0.0710   -0.0570   -0.0120 na        1 I5H     -0.187400
      2 C2          1.3230   -0.0600   -0.0350 cc        1 I5H     -0.083100
      3 C3          1.8250   -0.0260    1.2690 cd        1 I5H     -0.166400
      4 C4          0.6840    0.0060    2.1610 ca        1 I5H     -0.093800
      5 C5          0.5310    0.0610    3.5490 ca        1 I5H     -0.100000
      6 C6         -0.7490    0.0800    4.0820 ca        1 I5H     -0.144000
      7 C7         -1.8870    0.0490    3.2560 ca        1 I5H     -0.111000
      8 C8         -1.7820    0.0030    1.8750 ca        1 I5H     -0.138000
      9 C9         -0.4920   -0.0170    1.3200 ca        1 I5H     -0.045200
     10 C10         3.2380   -0.0120    1.6620 c3        1 I5H     -0.017200
     11 C11         3.7790   -1.4270    1.8880 c3        1 I5H     -0.008300
     12 C12         5.2610   -1.3550    2.3570 c         1 I5H      0.690500
     13 N13         5.3130   -1.9460    3.6270 n         1 I5H     -0.615500
     14 C14         4.0210   -2.4140    4.0070 c         1 I5H      0.774500
     15 N15         3.1080   -2.2140    2.9290 n         1 I5H     -0.507900
     16 O16         6.2160   -0.8790    1.7410 o         1 I5H     -0.580500
     17 O17         3.7690   -2.9550    5.0950 o         1 I5H     -0.604500
     18 HN1        -0.6630   -0.0740   -0.7990 hn        1 I5H      0.302700
     19 H2          1.8660   -0.0820   -0.9820 h4        1 I5H      0.170000
     20 H5          1.4140    0.0990    4.2020 ha        1 I5H      0.132000
     21 H6         -0.8840    0.1210    5.1740 ha        1 I5H      0.135000
     22 H7         -2.8840    0.0640    3.7220 ha        1 I5H      0.134000
     23 H8         -2.6740   -0.0170    1.2360 ha        1 I5H      0.135000
     24 H10         3.3620    0.5980    2.5980 hc        1 I5H      0.069700
     25 H10A        3.8680    0.4630    0.8620 hc        1 I5H      0.069700
     26 H11         3.7280   -2.0130    0.9270 h1        1 I5H      0.104700
     27 HN13        6.1270   -2.1040    4.1630 hn        1 I5H      0.357500
     28 HN15        2.1770   -1.9470    3.1690 hn        1 I5H      0.329500
@<TRIPOS>BOND
     1    1    2 1   
     2    1    9 1   
     3    1   18 1   
     4    2    3 2   
     5    2   19 1   
     6    3    4 1   
     7    3   10 1   
     8    4    5 ar  
     9    4    9 ar  
    10    5    6 ar  
    11    5   20 1   
    12    6    7 ar  
    13    6   21 1   
    14    7    8 ar  
    15    7   22 1   
    16    8    9 ar  
    17    8   23 1   
    18   10   11 1   
    19   10   24 1   
    20   10   25 1   
    21   11   12 1   
    22   11   15 1   
    23   11   26 1   
    24   12   13 1   
    25   12   16 2   
    26   13   14 1   
    27   13   27 1   
    28   14   15 1   
    29   14   17 2   
    30   15   28 1   
@<TRIPOS>SUBSTRUCTURE
     1 I5H         1 TEMP              0 ****  ****    0 ROOT
