@<TRIPOS>MOLECULE
I5I
   26    21     1     0     0
SMALL
bcc


@<TRIPOS>ATOM
      1 C1         -2.8550   -0.2900   -2.2580 c1        1 I5I      0.064000
      2 C2         -1.4670   -0.2650   -2.3580 c1        1 I5I     -0.084500
      3 C3         -0.7220   -0.2240   -1.2300 c1        1 I5I     -0.039000
      4 C4         -1.4320   -0.2030    0.0890 c1        1 I5I     -0.039000
      5 C5         -2.8880   -0.2280    0.1120 c1        1 I5I     -0.084500
      6 C6         -3.5380   -0.2670   -0.9350 c1        1 I5I     -0.139000
      7 C7          0.6110   -0.1900   -1.0040 c1        1 I5I     -0.141000
      8 C8          0.8240   -0.1500    0.3740 c1        1 I5I      0.032000
      9 O9         -0.5470   -0.1580    1.0280 o         1 I5I     -0.074000
     10 C10         2.2570   -0.1470    1.2040 c1        1 I5I      0.068000
     11 N11         2.6360    0.9310    1.7540 n3        1 I5I     -0.280000
     12 C12         3.6270    0.5400    2.7360 c3        1 I5I     -0.114000
     13 C13         3.4920   -0.9900    2.6950 c3        1 I5I     -0.135000
     14 N14         2.7250   -1.1040    1.5920 n2        1 I5I     -0.149000
     15 N15        -3.8850   -0.2990   -3.4390 n2        1 I5I     -0.218000
     16 C16        -4.2910    0.8940   -4.0680 c1        1 I5I     -0.102000
     17 S17        -4.7620    2.2810   -4.8000 s         1 I5I      0.185000
     18 H2         -1.1320   -0.2670   -3.0910 ha        1 I5I      0.159500
     19 H5         -3.3940   -0.2340    0.9790 ha        1 I5I      0.159500
     20 H6         -4.4410   -0.2910   -0.8860 ha        1 I5I      0.143000
     21 H7          1.4280   -0.2440   -1.8070 DU        1 I5I      0.177000
     22 HN11        2.3320    1.9360    1.4270 hn        1 I5I      0.186000
     23 H12         4.8050    0.8550    2.2590 h1        1 I5I      0.097500
     24 H12A        3.3600    0.8170    3.5530 h1        1 I5I      0.097500
     25 H13         4.3630   -1.4040    2.6910 h1        1 I5I      0.114500
     26 H13A        2.8940   -1.2970    3.3820 h1        1 I5I      0.114500
@<TRIPOS>BOND
     1    1    6 1   
     2    1   15 1   
     3    2    3 1   
     4    2   18 1   
     5    4    5 1   
     6    5   19 1   
     7    6   20 1   
     8    7    8 1   
     9    8    9 1   
    10   10   11 1   
    11   10   14 1   
    12   11   12 1   
    13   11   22 1   
    14   12   13 1   
    15   12   23 1   
    16   12   24 1   
    17   13   14 1   
    18   13   25 1   
    19   13   26 1   
    20   15   16 1   
    21   16   17 1   
@<TRIPOS>SUBSTRUCTURE
     1 I5I         1 TEMP              0 ****  ****    0 ROOT
