@<TRIPOS>MOLECULE
I5I
   26    28     1     0     0
SMALL
bcc


@<TRIPOS>ATOM
      1 C1          2.4520   -0.3800    0.0130 ca        1 I5I      0.203400
      2 C2          1.3490   -1.2620    0.0650 ca        1 I5I     -0.063000
      3 C3          0.0730   -0.7150    0.0420 ca        1 I5I     -0.106800
      4 C4         -0.0930    0.7020   -0.0320 ca        1 I5I      0.066100
      5 C5          0.9790    1.5850   -0.0830 ca        1 I5I     -0.107000
      6 C6          2.2520    1.0280   -0.0600 ca        1 I5I     -0.138000
      7 C7         -1.2700   -1.2670    0.0780 cc        1 I5I     -0.104200
      8 C8         -2.1350   -0.1990    0.0280 cd        1 I5I     -0.014500
      9 O9         -1.4470    1.0380   -0.0430 os        1 I5I     -0.195200
     10 C10        -3.5880   -0.1340    0.0260 cf        1 I5I      0.610500
     11 N11        -4.2690    1.1050    0.3060 nh        1 I5I     -0.797200
     12 C12        -5.6950    0.8150    0.1240 c3        1 I5I      0.129800
     13 C13        -5.7500   -0.7320   -0.1230 c3        1 I5I      0.075800
     14 N14        -4.3620   -1.1860   -0.1690 n2        1 I5I     -0.595900
     15 N15         3.7250   -0.9330    0.0350 ne        1 I5I     -0.576800
     16 C16         4.8910   -0.5310    0.0110 c1        1 I5I      0.460300
     17 S17         6.3350   -0.3030   -0.0050 s         1 I5I     -0.156900
     18 H2          1.4920   -2.3510    0.1220 ha        1 I5I      0.161000
     19 H5          0.8270    2.6710   -0.1380 ha        1 I5I      0.158000
     20 H6          3.1250    1.6990   -0.0990 ha        1 I5I      0.143000
     21 H7         -1.5300   -2.3230    0.1330 ha        1 I5I      0.184000
     22 HN11       -3.9140    1.8940   -0.1890 hn        1 I5I      0.406800
     23 H12        -6.2320    1.0910    1.0670 h1        1 I5I      0.056200
     24 H12A       -6.1450    1.3800   -0.7330 h1        1 I5I      0.056200
     25 H13        -6.2860   -1.2480    0.7150 h1        1 I5I      0.072200
     26 H13A       -6.2590   -0.9820   -1.0890 h1        1 I5I      0.072200
@<TRIPOS>BOND
     1    1    2 ar  
     2    1    6 ar  
     3    1   15 1   
     4    2    3 ar  
     5    2   18 1   
     6    3    4 ar  
     7    3    7 1   
     8    4    5 ar  
     9    4    9 1   
    10    5    6 ar  
    11    5   19 1   
    12    6   20 1   
    13    7    8 2   
    14    7   21 1   
    15    8    9 1   
    16    8   10 1   
    17   10   11 1   
    18   10   14 2   
    19   11   12 1   
    20   11   22 1   
    21   12   13 1   
    22   12   23 1   
    23   12   24 1   
    24   13   14 1   
    25   13   25 1   
    26   13   26 1   
    27   15   16 2   
    28   16   17 2   
@<TRIPOS>SUBSTRUCTURE
     1 I5I         1 TEMP              0 ****  ****    0 ROOT
