@<TRIPOS>MOLECULE
I5I
   26    28     1     0     0
SMALL
bcc


@<TRIPOS>ATOM
      1 C1         -0.1100    0.0050    0.1570 ca        1 I5I      0.203400
      2 C2          1.2970   -0.0170    0.0220 ca        1 I5I     -0.063000
      3 C3          2.0650    0.0070    1.1790 ca        1 I5I     -0.106800
      4 C4          1.4270    0.0520    2.4570 ca        1 I5I      0.066100
      5 C5          0.0460    0.0740    2.6090 ca        1 I5I     -0.107000
      6 C6         -0.7140    0.0500    1.4460 ca        1 I5I     -0.138000
      7 C7          3.4910   -0.0030    1.4510 cc        1 I5I     -0.104200
      8 C8          3.6300    0.0330    2.8200 cd        1 I5I     -0.014500
      9 O9          2.3760    0.0700    3.4790 os        1 I5I     -0.195200
     10 C10         4.8100    0.0480    3.6690 cf        1 I5I      0.610500
     11 N11         4.7080   -0.2520    5.0750 nh        1 I5I     -0.797200
     12 C12         6.0570   -0.0480    5.6150 c3        1 I5I      0.129800
     13 C13         6.9440    0.2320    4.3540 c3        1 I5I      0.075800
     14 N14         6.0300    0.2740    3.2140 n2        1 I5I     -0.595900
     15 N15        -0.8720   -0.0180   -1.0020 ne        1 I5I     -0.576800
     16 C16        -2.0680   -0.0150   -1.3040 c1        1 I5I      0.460300
     17 S17        -3.4010   -0.0190   -1.9030 s         1 I5I     -0.156900
     18 H2          1.7740   -0.0530   -0.9680 ha        1 I5I      0.161000
     19 H5         -0.4220    0.1070    3.6020 ha        1 I5I      0.158000
     20 H6         -1.8120    0.0660    1.5310 ha        1 I5I      0.143000
     21 H7          4.2870   -0.0330    0.7090 ha        1 I5I      0.184000
     22 HN11        3.9700    0.2230    5.5470 hn        1 I5I      0.406800
     23 H12         6.3750   -0.9920    6.1290 h1        1 I5I      0.056200
     24 H12A        6.1070    0.8000    6.3450 h1        1 I5I      0.056200
     25 H13         7.4870    1.2080    4.4350 h1        1 I5I      0.072200
     26 H13A        7.6920   -0.5890    4.2050 h1        1 I5I      0.072200
@<TRIPOS>BOND
     1    1    2 ar  
     2    1    6 ar  
     3    1   15 1   
     4    2    3 ar  
     5    2   18 1   
     6    3    4 ar  
     7    3    7 1   
     8    4    5 ar  
     9    4    9 1   
    10    5    6 ar  
    11    5   19 1   
    12    6   20 1   
    13    7    8 2   
    14    7   21 1   
    15    8    9 1   
    16    8   10 1   
    17   10   11 1   
    18   10   14 2   
    19   11   12 1   
    20   11   22 1   
    21   12   13 1   
    22   12   23 1   
    23   12   24 1   
    24   13   14 1   
    25   13   25 1   
    26   13   26 1   
    27   15   16 2   
    28   16   17 2   
@<TRIPOS>SUBSTRUCTURE
     1 I5I         1 TEMP              0 ****  ****    0 ROOT
