@<TRIPOS>MOLECULE
I5I
   26    28     1     0     0
SMALL
bcc


@<TRIPOS>ATOM
      1 C1         -0.0960   -0.0480    0.2080 ca        1 I5I      0.203400
      2 C2          1.3100   -0.0510    0.0640 ca        1 I5I     -0.063000
      3 C3          2.0860   -0.0410    1.2160 ca        1 I5I     -0.106800
      4 C4          1.4550   -0.0280    2.4990 ca        1 I5I      0.066100
      5 C5          0.0740   -0.0240    2.6590 ca        1 I5I     -0.107000
      6 C6         -0.6920   -0.0340    1.5010 ca        1 I5I     -0.138000
      7 C7          3.5140   -0.0400    1.4800 cc        1 I5I     -0.104200
      8 C8          3.6600   -0.0250    2.8490 cd        1 I5I     -0.014500
      9 O9          2.4100   -0.0190    3.5150 os        1 I5I     -0.195200
     10 C10         4.8450   -0.0240    3.6910 cf        1 I5I      0.610500
     11 N11         4.7560    0.3310    5.0850 nu        1 I5I     -0.797200
     12 C12         6.1050    0.1300    5.6250 c3        1 I5I      0.129800
     13 C13         6.9810   -0.2110    4.3700 c3        1 I5I      0.075800
     14 N14         6.0590   -0.2830    3.2380 n2        1 I5I     -0.595900
     15 N15        -0.8650   -0.0590   -0.9480 ne        1 I5I     -0.576800
     16 C16        -2.0620   -0.0570   -1.2420 c1        1 I5I      0.460300
     17 S17        -3.3990   -0.0580   -1.8330 s         1 I5I     -0.156900
     18 H2          1.7820   -0.0600   -0.9290 ha        1 I5I      0.161000
     19 H5         -0.3880   -0.0120    3.6560 ha        1 I5I      0.158000
     20 H6         -1.7900   -0.0310    1.5920 ha        1 I5I      0.143000
     21 H7          4.3050   -0.0500    0.7330 ha        1 I5I      0.184000
     22 HN11        4.0140   -0.1160    5.5790 hn        1 I5I      0.406800
     23 H12         6.1490   -0.6910    6.3860 h1        1 I5I      0.056200
     24 H12A        6.4380    1.0870    6.1000 h1        1 I5I      0.056200
     25 H13         7.7380    0.5940    4.1860 h1        1 I5I      0.072200
     26 H13A        7.5110   -1.1900    4.4860 h1        1 I5I      0.072200
@<TRIPOS>BOND
     1    1    2 ar  
     2    1    6 ar  
     3    1   15 1   
     4    2    3 ar  
     5    2   18 1   
     6    3    4 ar  
     7    3    7 1   
     8    4    5 ar  
     9    4    9 1   
    10    5    6 ar  
    11    5   19 1   
    12    6   20 1   
    13    7    8 2   
    14    7   21 1   
    15    8    9 1   
    16    8   10 1   
    17   10   11 1   
    18   10   14 2   
    19   11   12 1   
    20   11   22 1   
    21   12   13 1   
    22   12   23 1   
    23   12   24 1   
    24   13   14 1   
    25   13   25 1   
    26   13   26 1   
    27   15   16 2   
    28   16   17 2   
@<TRIPOS>SUBSTRUCTURE
     1 I5I         1 TEMP              0 ****  ****    0 ROOT
