@<TRIPOS>MOLECULE
I5R
   35    38     1     0     0
SMALL
bcc


@<TRIPOS>ATOM
      1 O           0.0470    0.9520    0.1500 o         1 I5R     -0.619500
      2 C           1.2290    0.5700    0.1070 c         1 I5R      0.703500
      3 NAL         1.9260    0.3520    1.2840 n         1 I5R     -0.541400
      4 CAR         3.2520   -0.1230    1.2780 ca        1 I5R      0.495200
      5 NAK         3.9240   -0.2070    2.4610 nb        1 I5R     -0.682000
      6 CAE         5.1900   -0.6540    2.4300 ca        1 I5R      0.392200
      7 CAD         5.8620   -1.0300    1.2580 ca        1 I5R     -0.243300
      8 CAF         5.1860   -0.9480    0.0420 ca        1 I5R     -0.125000
      9 CAQ         3.8520   -0.5010    0.0160 ca        1 I5R     -0.016700
     10 N           3.0830   -0.5300   -1.1590 nh        1 I5R     -0.694600
     11 CA          1.9490    0.3720   -1.2340 c3        1 I5R      0.126500
     12 CB          2.2520    1.7780   -1.7940 c3        1 I5R     -0.037200
     13 CG          2.8460    1.7170   -3.1340 cc        1 I5R     -0.158400
     14 CD2         2.1770    1.3230   -4.3580 ca        1 I5R     -0.089800
     15 CE3         0.8850    0.8920   -4.6660 ca        1 I5R     -0.084000
     16 CZ3         0.5750    0.5930   -5.9840 ca        1 I5R     -0.152000
     17 CH2         1.5320    0.7160   -7.0070 ca        1 I5R     -0.110000
     18 CZ2         2.8250    1.1420   -6.7460 ca        1 I5R     -0.144000
     19 CE2         3.1540    1.4500   -5.4160 ca        1 I5R     -0.047200
     20 NE1         4.3540    1.8870   -4.8480 na        1 I5R     -0.190400
     21 CD1         4.1540    2.0630   -3.4790 cd        1 I5R     -0.102100
     22 H1          1.4680    0.5070    2.1570 hn        1 I5R      0.346500
     23 H2          5.6870   -0.7070    3.4150 h4        1 I5R      0.026100
     24 H3          6.9000   -1.3830    1.3000 ha        1 I5R      0.145000
     25 H4          5.6910   -1.2440   -0.8900 ha        1 I5R      0.141000
     26 H5          3.6360   -0.4950   -1.9950 hn        1 I5R      0.410800
     27 H6          1.2070   -0.1270   -1.9330 h1        1 I5R      0.104700
     28 H7          1.2780    2.3400   -1.8350 hc        1 I5R      0.068700
     29 H8          2.9360    2.3260   -1.0930 hc        1 I5R      0.068700
     30 H9          0.1310    0.7970   -3.8700 ha        1 I5R      0.140000
     31 H10        -0.4390    0.2530   -6.2420 ha        1 I5R      0.133000
     32 H11         1.2440    0.4680   -8.0400 ha        1 I5R      0.132000
     33 H12         3.5670    1.2370   -7.5500 ha        1 I5R      0.133000
     34 H13         5.1640    2.1360   -5.3500 hn        1 I5R      0.300700
     35 H14         4.9630    2.4250   -2.8400 h4        1 I5R      0.167000
@<TRIPOS>BOND
     1    1    2 2   
     2    2    3 1   
     3    2   11 1   
     4    3    4 1   
     5    3   22 1   
     6    4    5 ar  
     7    4    9 ar  
     8    5    6 ar  
     9    6    7 ar  
    10    6   23 1   
    11    7    8 ar  
    12    7   24 1   
    13    8    9 ar  
    14    8   25 1   
    15    9   10 1   
    16   10   11 1   
    17   10   26 1   
    18   11   12 1   
    19   11   27 1   
    20   12   13 1   
    21   12   28 1   
    22   12   29 1   
    23   13   14 1   
    24   13   21 2   
    25   14   15 ar  
    26   14   19 ar  
    27   15   16 ar  
    28   15   30 1   
    29   16   17 ar  
    30   16   31 1   
    31   17   18 ar  
    32   17   32 1   
    33   18   19 ar  
    34   18   33 1   
    35   19   20 1   
    36   20   21 1   
    37   20   34 1   
    38   21   35 1   
@<TRIPOS>SUBSTRUCTURE
     1 I5R         1 TEMP              0 ****  ****    0 ROOT
