@<TRIPOS>MOLECULE
I5R
   35    38     1     0     0
SMALL
bcc


@<TRIPOS>ATOM
      1 O           0.5410    1.8520    0.2680 o         1 I5R     -0.619500
      2 C           1.5850    1.1820    0.2040 c         1 I5R      0.701500
      3 NAL         2.0410    0.5190    1.3330 ns        1 I5R     -0.542400
      4 CAR         3.2180   -0.2550    1.3080 ca        1 I5R      0.493200
      5 NAK         3.5290   -1.0150    2.3950 nb        1 I5R     -0.681000
      6 CAE         4.6550   -1.7460    2.3430 ca        1 I5R      0.390200
      7 CAD         5.5190   -1.7820    1.2400 ca        1 I5R     -0.240300
      8 CAF         5.2110   -1.0120    0.1210 ca        1 I5R     -0.128000
      9 CAQ         4.0530   -0.2140    0.1250 ca        1 I5R     -0.004700
     10 N           3.7560    0.6790   -0.9130 nu        1 I5R     -0.714600
     11 CA          2.3560    1.0080   -1.1150 c3        1 I5R      0.139500
     12 CB          2.1940    2.2860   -1.9610 c3        1 I5R     -0.002200
     13 CG          2.7420    2.1140   -3.3110 cc        1 I5R     -0.157400
     14 CD2         2.1610    1.3340   -4.3860 ca        1 I5R     -0.092800
     15 CE3         1.0150    0.5460   -4.5080 ca        1 I5R     -0.087000
     16 CZ3         0.7530   -0.0740   -5.7200 ca        1 I5R     -0.153000
     17 CH2         1.6170    0.0760   -6.8210 ca        1 I5R     -0.112000
     18 CZ2         2.7640    0.8500   -6.7440 ca        1 I5R     -0.144000
     19 CE2         3.0420    1.4850   -5.5240 ca        1 I5R     -0.048200
     20 NE1         4.1070    2.3050   -5.1400 na        1 I5R     -0.192400
     21 CD1         3.9080    2.6940   -3.8140 cd        1 I5R     -0.095100
     22 H1          1.5120    0.5750    2.1770 hn        1 I5R      0.346500
     23 H2          4.8640   -2.3400    3.2520 h4        1 I5R      0.026100
     24 H3          6.4210   -2.4070    1.2590 ha        1 I5R      0.146000
     25 H4          5.8760   -1.0210   -0.7560 ha        1 I5R      0.141000
     26 H5          4.2300    0.4910   -1.7740 hn        1 I5R      0.415800
     27 H6          1.8160    0.1690   -1.6620 h1        1 I5R      0.058700
     28 H7          1.0930    2.5100   -2.0170 hc        1 I5R      0.076200
     29 H8          2.6910    3.1480   -1.4420 hc        1 I5R      0.076200
     30 H9          0.3340    0.4300   -3.6520 ha        1 I5R      0.137000
     31 H10        -0.1470   -0.6960   -5.8320 ha        1 I5R      0.132000
     32 H11         1.3710   -0.4330   -7.7650 ha        1 I5R      0.131000
     33 H12         3.4320    0.9650   -7.6080 ha        1 I5R      0.133000
     34 H13         4.8070    2.6480   -5.7420 hn        1 I5R      0.299700
     35 H14         4.6180    3.3570   -3.3140 h4        1 I5R      0.171000
@<TRIPOS>BOND
     1    1    2 2   
     2    2    3 1   
     3    2   11 1   
     4    3    4 1   
     5    3   22 1   
     6    4    5 ar  
     7    4    9 ar  
     8    5    6 ar  
     9    6    7 ar  
    10    6   23 1   
    11    7    8 ar  
    12    7   24 1   
    13    8    9 ar  
    14    8   25 1   
    15    9   10 1   
    16   10   11 1   
    17   10   26 1   
    18   11   12 1   
    19   11   27 1   
    20   12   13 1   
    21   12   28 1   
    22   12   29 1   
    23   13   14 1   
    24   13   21 2   
    25   14   15 ar  
    26   14   19 ar  
    27   15   16 ar  
    28   15   30 1   
    29   16   17 ar  
    30   16   31 1   
    31   17   18 ar  
    32   17   32 1   
    33   18   19 ar  
    34   18   33 1   
    35   19   20 1   
    36   20   21 1   
    37   20   34 1   
    38   21   35 1   
@<TRIPOS>SUBSTRUCTURE
     1 I5R         1 TEMP              0 ****  ****    0 ROOT
