@<TRIPOS>MOLECULE
I5R
   35    38     1     0     0
SMALL
bcc


@<TRIPOS>ATOM
      1 O          -1.1960   -3.2160   -0.7240 o         1 I5R     -0.619500
      2 C          -1.5180   -2.0660   -0.3830 c         1 I5R      0.703500
      3 NAL        -2.8470   -1.6790   -0.4300 n         1 I5R     -0.541400
      4 CAR        -3.2580   -0.3990   -0.0090 ca        1 I5R      0.495200
      5 NAK        -4.5590   -0.0360   -0.1880 nb        1 I5R     -0.682000
      6 CAE        -4.9260    1.1920    0.2120 ca        1 I5R      0.392200
      7 CAD        -4.0520    2.1230    0.7920 ca        1 I5R     -0.243300
      8 CAF        -2.7190    1.7640    0.9800 ca        1 I5R     -0.125000
      9 CAQ        -2.2820    0.4840    0.5940 ca        1 I5R     -0.016700
     10 N          -0.9870    0.0220    0.8850 nh        1 I5R     -0.694600
     11 CA         -0.4590   -1.0440    0.0560 c3        1 I5R      0.126500
     12 CB          0.2850   -0.5920   -1.2190 c3        1 I5R     -0.037200
     13 CG          1.4010    0.3080   -0.9110 cc        1 I5R     -0.158400
     14 CD2         2.6430   -0.0490   -0.2560 ca        1 I5R     -0.089800
     15 CE3         3.1590   -1.2330    0.2740 ca        1 I5R     -0.084000
     16 CZ3         4.4240   -1.2180    0.8420 ca        1 I5R     -0.152000
     17 CH2         5.1890   -0.0390    0.8940 ca        1 I5R     -0.110000
     18 CZ2         4.7160    1.1580    0.3790 ca        1 I5R     -0.144000
     19 CE2         3.4380    1.1580   -0.2010 ca        1 I5R     -0.047200
     20 NE1         2.6980    2.1910   -0.7840 na        1 I5R     -0.190400
     21 CD1         1.4820    1.6670   -1.2250 cd        1 I5R     -0.102100
     22 H1         -3.5340   -2.3330   -0.7410 hn        1 I5R      0.346500
     23 H2         -5.9920    1.4340    0.0490 h4        1 I5R      0.026100
     24 H3         -4.4140    3.1140    1.0940 ha        1 I5R      0.145000
     25 H4         -2.0170    2.4750    1.4400 ha        1 I5R      0.141000
     26 H5         -0.3200    0.7630    1.0000 hn        1 I5R      0.410800
     27 H6          0.2810   -1.6020    0.7100 h1        1 I5R      0.104700
     28 H7          0.6720   -1.5180   -1.7280 hc        1 I5R      0.068700
     29 H8         -0.4340   -0.0910   -1.9200 hc        1 I5R      0.068700
     30 H9          2.5670   -2.1590    0.2330 ha        1 I5R      0.140000
     31 H10         4.8450   -2.1440    1.2620 ha        1 I5R      0.133000
     32 H11         6.1890   -0.0710    1.3540 ha        1 I5R      0.132000
     33 H12         5.3190    2.0750    0.4220 ha        1 I5R      0.133000
     34 H13         3.0290    3.1020   -0.9560 hn        1 I5R      0.300700
     35 H14         0.7540    2.3010   -1.7360 h4        1 I5R      0.167000
@<TRIPOS>BOND
     1    1    2 2   
     2    2    3 1   
     3    2   11 1   
     4    3    4 1   
     5    3   22 1   
     6    4    5 ar  
     7    4    9 ar  
     8    5    6 ar  
     9    6    7 ar  
    10    6   23 1   
    11    7    8 ar  
    12    7   24 1   
    13    8    9 ar  
    14    8   25 1   
    15    9   10 1   
    16   10   11 1   
    17   10   26 1   
    18   11   12 1   
    19   11   27 1   
    20   12   13 1   
    21   12   28 1   
    22   12   29 1   
    23   13   14 1   
    24   13   21 2   
    25   14   15 ar  
    26   14   19 ar  
    27   15   16 ar  
    28   15   30 1   
    29   16   17 ar  
    30   16   31 1   
    31   17   18 ar  
    32   17   32 1   
    33   18   19 ar  
    34   18   33 1   
    35   19   20 1   
    36   20   21 1   
    37   20   34 1   
    38   21   35 1   
@<TRIPOS>SUBSTRUCTURE
     1 I5R         1 TEMP              0 ****  ****    0 ROOT
