@<TRIPOS>MOLECULE
I5S
   52    53     1     0     0
SMALL
bcc


@<TRIPOS>ATOM
      1 CL1         0.3520   -3.3400    0.6830 cl        1 I5S     -0.049400
      2 C2          1.7720   -2.4290    0.8060 ca        1 I5S      0.037400
      3 C3          2.7390   -2.7710    1.7600 ca        1 I5S     -0.126500
      4 C4          3.9080   -2.0190    1.8560 ca        1 I5S     -0.098000
      5 C5          4.1170   -0.9270    1.0060 ca        1 I5S     -0.132300
      6 C6          5.3510   -0.1030    1.1400 c3        1 I5S      0.194700
      7 O7          6.3780   -0.7680    0.3710 os        1 I5S     -0.480600
      8 C8          7.6010   -0.0520    0.3370 c3        1 I5S      0.106400
      9 C9          8.6700   -1.0440   -0.1450 c3        1 I5S      0.102800
     10 N10         8.2260   -1.7800   -1.3740 n4        1 I5S     -0.755000
     11 C13         9.1850   -2.8420   -1.7720 c3        1 I5S      0.065800
     12 C14         8.7230   -3.6080   -3.0320 c3        1 I5S      0.109800
     13 N15         9.6060   -4.6730   -3.4550 n3        1 I5S     -0.973800
     14 S16         8.5120   -5.6920   -5.5830 s4        1 I5S      1.681300
     15 O17         8.4730   -4.4090   -6.0370 o         1 I5S     -0.439400
     16 O18         7.5470   -6.1380   -4.7400 o         1 I5S     -0.439400
     17 C19         9.5860   -6.6240   -6.1560 ca        1 I5S     -0.661500
     18 C20        10.5060   -6.0830   -7.1060 ca        1 I5S      0.070000
     19 C21        11.4880   -6.8320   -7.7190 ca        1 I5S     -0.188000
     20 C22        11.6160   -8.1920   -7.4210 ca        1 I5S      0.119000
     21 C23        10.7480   -8.7900   -6.4940 ca        1 I5S     -0.239300
     22 C24        10.8600  -10.1910   -6.1770 ca        1 I5S      0.502200
     23 N25        10.0620  -10.8140   -5.3230 nb        1 I5S     -0.638000
     24 C26         9.0830  -10.0790   -4.7220 ca        1 I5S      0.516200
     25 C27         8.8830   -8.7150   -4.9460 ca        1 I5S     -0.340300
     26 C28         9.7230   -8.0300   -5.8500 ca        1 I5S      0.145000
     27 C29         3.1460   -0.5880    0.0590 ca        1 I5S     -0.098000
     28 C30         1.9730   -1.3330   -0.0430 ca        1 I5S     -0.126500
     29 H3          2.5710   -3.6210    2.4400 ha        1 I5S      0.163000
     30 H4          4.6610   -2.2780    2.6160 ha        1 I5S      0.139000
     31 H6C1        5.6930   -0.0430    2.2080 h1        1 I5S      0.059200
     32 H6C2        5.2060    0.9310    0.7260 h1        1 I5S      0.059200
     33 H8C1        7.5080    0.8220   -0.3630 h1        1 I5S      0.081200
     34 H8C2        7.8970    0.3130    1.3570 h1        1 I5S      0.081200
     35 H9C1        9.6240   -0.4920   -0.3760 hx        1 I5S      0.114700
     36 H9C2        8.8620   -1.8100    0.6600 hx        1 I5S      0.114700
     37 H10         7.2990   -2.1930   -1.1710 hn        1 I5S      0.468300
     38 H131        9.2920   -3.5550   -0.9030 hx        1 I5S      0.111700
     39 H132       10.1860   -2.3550   -1.9570 hx        1 I5S      0.111700
     40 H141        7.7070   -4.0660   -2.8390 h1        1 I5S      0.100200
     41 H142        8.6260   -2.8850   -3.8960 h1        1 I5S      0.100200
     42 H15        10.5270   -4.3210   -3.6530 hn        1 I5S      0.395300
     43 H20        10.4160   -5.0080   -7.3710 ha        1 I5S      0.176000
     44 H21        12.1680   -6.3630   -8.4530 ha        1 I5S      0.194000
     45 H22        12.3990   -8.7990   -7.9170 ha        1 I5S      0.188000
     46 H24        11.6480  -10.8040   -6.6630 h4        1 I5S      0.065100
     47 H26         8.4320  -10.6470   -4.0240 h4        1 I5S      0.068100
     48 H27         8.0550   -8.2200   -4.4150 ha        1 I5S      0.178000
     49 H29         3.2950    0.2810   -0.6000 ha        1 I5S      0.139000
     50 H30         1.2030   -1.0540   -0.7800 ha        1 I5S      0.163000
     51 H102        8.1030   -1.1090   -2.1410 hn        1 I5S      0.468300
     52 H152        9.6740   -5.3870   -2.7500 hn        1 I5S      0.395300
@<TRIPOS>BOND
     1    1    2 1   
     2    2    3 ar  
     3    2   28 ar  
     4    3    4 ar  
     5    3   29 1   
     6    4    5 ar  
     7    4   30 1   
     8    5    6 1   
     9    5   27 ar  
    10    6    7 1   
    11    6   31 1   
    12    6   32 1   
    13    7    8 1   
    14    8    9 1   
    15    8   33 1   
    16    8   34 1   
    17    9   10 1   
    18    9   35 1   
    19    9   36 1   
    20   10   11 1   
    21   10   37 1   
    22   10   51 1   
    23   11   12 1   
    24   11   38 1   
    25   11   39 1   
    26   12   13 1   
    27   12   40 1   
    28   12   41 1   
    29   13   42 1   
    30   13   52 1   
    31   14   15 1   
    32   14   16 1   
    33   14   17 1   
    34   17   18 ar  
    35   17   26 ar  
    36   18   19 ar  
    37   18   43 1   
    38   19   20 ar  
    39   19   44 1   
    40   20   21 ar  
    41   20   45 1   
    42   21   22 ar  
    43   21   26 ar  
    44   22   23 ar  
    45   22   46 1   
    46   23   24 ar  
    47   24   25 ar  
    48   24   47 1   
    49   25   26 ar  
    50   25   48 1   
    51   27   28 ar  
    52   27   49 1   
    53   28   50 1   
@<TRIPOS>SUBSTRUCTURE
     1 I5S         1 TEMP              0 ****  ****    0 ROOT
