@<TRIPOS>MOLECULE
I5S
   52    53     1     0     0
SMALL
bcc


@<TRIPOS>ATOM
      1 CL1         0.3650   -3.3600    0.7300 cl        1 I5S     -0.049400
      2 C2          1.7830   -2.4430    0.8410 ca        1 I5S      0.037400
      3 C3          2.7570   -2.7800    1.7900 ca        1 I5S     -0.126500
      4 C4          3.9230   -2.0240    1.8770 ca        1 I5S     -0.098000
      5 C5          4.1240   -0.9330    1.0240 ca        1 I5S     -0.132300
      6 C6          5.3560   -0.1050    1.1480 c3        1 I5S      0.194700
      7 O7          6.3800   -0.7680    0.3750 os        1 I5S     -0.480600
      8 C8          7.6000   -0.0480    0.3300 c3        1 I5S      0.106400
      9 C9          8.6700   -1.0380   -0.1560 c3        1 I5S      0.102800
     10 N10         8.2200   -1.7790   -1.3790 n4        1 I5S     -0.755000
     11 C13         9.1810   -2.8380   -1.7810 c3        1 I5S      0.065800
     12 C14         8.7130   -3.6110   -3.0350 c3        1 I5S      0.109800
     13 N15         9.5980   -4.6720   -3.4610 n3        1 I5S     -0.973800
     14 S16         8.4900   -5.7070   -5.5750 s4        1 I5S      1.681300
     15 O17         8.4300   -4.4240   -6.0290 o         1 I5S     -0.439400
     16 O18         7.5420   -6.1650   -4.7200 o         1 I5S     -0.439400
     17 C19         9.5690   -6.6250   -6.1610 ca        1 I5S     -0.661500
     18 C20        10.4700   -6.0730   -7.1240 ca        1 I5S      0.070000
     19 C21        11.4530   -6.8100   -7.7480 ca        1 I5S     -0.188000
     20 C22        11.6020   -8.1680   -7.4510 ca        1 I5S      0.119000
     21 C23        10.7540   -8.7760   -6.5130 ca        1 I5S     -0.239300
     22 C24        10.8870  -10.1760   -6.1960 ca        1 I5S      0.502200
     23 N25        10.1080  -10.8080   -5.3320 nb        1 I5S     -0.638000
     24 C26         9.1280  -10.0850   -4.7180 ca        1 I5S      0.516200
     25 C27         8.9080   -8.7240   -4.9410 ca        1 I5S     -0.340300
     26 C28         9.7270   -8.0290   -5.8570 ca        1 I5S      0.145000
     27 C29         3.1450   -0.6000    0.0820 ca        1 I5S     -0.098000
     28 C30         1.9740   -1.3490   -0.0110 ca        1 I5S     -0.126500
     29 H3          2.5960   -3.6290    2.4730 ha        1 I5S      0.163000
     30 H4          4.6820   -2.2790    2.6320 ha        1 I5S      0.139000
     31 H6C1        5.7030   -0.0400    2.2140 h1        1 I5S      0.059200
     32 H6C2        5.2050    0.9270    0.7320 h1        1 I5S      0.059200
     33 H8C1        7.9010    0.3220    1.3470 h1        1 I5S      0.081200
     34 H8C2        7.4990    0.8230   -0.3720 h1        1 I5S      0.081200
     35 H9C1        8.8690   -1.8000    0.6510 hx        1 I5S      0.114700
     36 H9C2        9.6200   -0.4820   -0.3950 hx        1 I5S      0.114700
     37 H10         7.2960   -2.1960   -1.1690 hn        1 I5S      0.468300
     38 H131        9.2980   -3.5480   -0.9100 hx        1 I5S      0.111700
     39 H132       10.1780   -2.3470   -1.9760 hx        1 I5S      0.111700
     40 H141        7.7010   -4.0730   -2.8320 h1        1 I5S      0.099700
     41 H142        8.6040   -2.8910   -3.9010 h1        1 I5S      0.099700
     42 H15         9.6740   -5.3840   -2.7550 hn        1 I5S      0.395300
     43 H20        10.3620   -4.9990   -7.3870 ha        1 I5S      0.176000
     44 H21        12.1180   -6.3330   -8.4920 ha        1 I5S      0.194000
     45 H22        12.3860   -8.7650   -7.9570 ha        1 I5S      0.188000
     46 H24        11.6770  -10.7790   -6.6920 h4        1 I5S      0.065100
     47 H26         8.4930  -10.6610   -4.0120 h4        1 I5S      0.068100
     48 H27         8.0810   -8.2400   -4.4000 ha        1 I5S      0.178000
     49 H29         3.2860    0.2690   -0.5800 ha        1 I5S      0.139000
     50 H30         1.1990   -1.0740   -0.7440 ha        1 I5S      0.163000
     51 H102        8.0890   -1.1110   -2.1470 hn        1 I5S      0.468300
     52 H152       10.5150   -4.3170   -3.6680 hn        1 I5S      0.395300
@<TRIPOS>BOND
     1    1    2 1   
     2    2    3 ar  
     3    2   28 ar  
     4    3    4 ar  
     5    3   29 1   
     6    4    5 ar  
     7    4   30 1   
     8    5    6 1   
     9    5   27 ar  
    10    6    7 1   
    11    6   31 1   
    12    6   32 1   
    13    7    8 1   
    14    8    9 1   
    15    8   33 1   
    16    8   34 1   
    17    9   10 1   
    18    9   35 1   
    19    9   36 1   
    20   10   11 1   
    21   10   37 1   
    22   10   51 1   
    23   11   12 1   
    24   11   38 1   
    25   11   39 1   
    26   12   13 1   
    27   12   40 1   
    28   12   41 1   
    29   13   42 1   
    30   13   52 1   
    31   14   15 1   
    32   14   16 1   
    33   14   17 1   
    34   17   18 ar  
    35   17   26 ar  
    36   18   19 ar  
    37   18   43 1   
    38   19   20 ar  
    39   19   44 1   
    40   20   21 ar  
    41   20   45 1   
    42   21   22 ar  
    43   21   26 ar  
    44   22   23 ar  
    45   22   46 1   
    46   23   24 ar  
    47   24   25 ar  
    48   24   47 1   
    49   25   26 ar  
    50   25   48 1   
    51   27   28 ar  
    52   27   49 1   
    53   28   50 1   
@<TRIPOS>SUBSTRUCTURE
     1 I5S         1 TEMP              0 ****  ****    0 ROOT
