@<TRIPOS>MOLECULE
I5S
   50    52     1     0     0
SMALL
bcc


@<TRIPOS>ATOM
      1 CL1         7.6010   -3.1640   -0.3110 cl        1 I5S     -0.095400
      2 C2          6.8570   -1.6720    0.0190 ca        1 I5S      0.017400
      3 C3          5.7890   -1.2380   -0.7710 ca        1 I5S     -0.125000
      4 C4          5.1840   -0.0120   -0.4970 ca        1 I5S     -0.108500
      5 C5          5.6380    0.7790    0.5620 ca        1 I5S     -0.088300
      6 C6          5.0290    2.1050    0.8730 c3        1 I5S      0.176700
      7 O7          3.7710    2.2080    0.2070 os        1 I5S     -0.430600
      8 C8          3.1320    3.4580    0.4650 c3        1 I5S      0.124400
      9 C9          1.7830    3.4200   -0.2600 c3        1 I5S      0.165800
     10 N10         0.8510    2.4790    0.3290 n3        1 I5S     -0.822200
     11 C13        -0.3210    2.2640   -0.4940 c3        1 I5S      0.146800
     12 C14        -1.2470    1.1790    0.1070 c3        1 I5S      0.221800
     13 N15        -2.4560    1.0000   -0.6410 n3        1 I5S     -0.919100
     14 S16        -2.9210   -0.3830   -1.3310 sy        1 I5S      1.514200
     15 O17        -1.8220   -1.2620   -1.4660 o         1 I5S     -0.653800
     16 O18        -3.6360   -0.0830   -2.5080 o         1 I5S     -0.653800
     17 C19        -3.9750   -1.0460   -0.1740 ca        1 I5S     -0.372500
     18 C20        -3.5500   -2.1540    0.5380 ca        1 I5S      0.017000
     19 C21        -4.3470   -2.7580    1.5320 ca        1 I5S     -0.170000
     20 C22        -5.5860   -2.2400    1.8250 ca        1 I5S     -0.033000
     21 C23        -6.0660   -1.1120    1.1160 ca        1 I5S     -0.190300
     22 C24        -7.3560   -0.5440    1.3890 ca        1 I5S      0.435200
     23 N25        -7.8560    0.4970    0.7450 nb        1 I5S     -0.666000
     24 C26        -7.0890    1.0480   -0.2490 ca        1 I5S      0.410200
     25 C27        -5.8310    0.5920   -0.5980 ca        1 I5S     -0.263300
     26 C28        -5.2700   -0.5170    0.1000 ca        1 I5S      0.085000
     27 C29         6.7060    0.3330    1.3510 ca        1 I5S     -0.108500
     28 C30         7.3190   -0.8880    1.0820 ca        1 I5S     -0.125000
     29 H3          5.4250   -1.8570   -1.6050 ha        1 I5S      0.148500
     30 H4          4.3410    0.3360   -1.1140 ha        1 I5S      0.145500
     31 H6C1        4.8740    2.2160    1.9820 h1        1 I5S      0.039700
     32 H6C2        5.7060    2.9310    0.5150 h1        1 I5S      0.039700
     33 H8C1        3.0050    3.6020    1.5700 h1        1 I5S      0.039200
     34 H8C2        3.7550    4.2930    0.0480 h1        1 I5S      0.039200
     35 H9C1        1.3250    4.4470   -0.1880 h1        1 I5S      0.041700
     36 H9C2        1.9790    3.2040   -1.3520 h1        1 I5S      0.041700
     37 H10         1.3160    1.6090    0.5220 hn        1 I5S      0.371800
     38 H131       -0.8800    3.2410   -0.5470 h1        1 I5S      0.036200
     39 H132       -0.0560    1.9710   -1.5530 h1        1 I5S      0.036200
     40 H141       -0.6910    0.1960    0.1330 h1        1 I5S      0.060700
     41 H142       -1.5010    1.4660    1.1680 h1        1 I5S      0.060700
     42 H15        -3.0050    1.8240   -0.7110 hn        1 I5S      0.448800
     43 H20        -2.5530   -2.5900    0.3250 ha        1 I5S      0.166000
     44 H21        -3.9630   -3.6410    2.0660 ha        1 I5S      0.147000
     45 H22        -6.2210   -2.6900    2.6050 ha        1 I5S      0.141000
     46 H24        -7.9860   -0.9890    2.1820 h4        1 I5S      0.024100
     47 H26        -7.5570    1.9020   -0.7730 h4        1 I5S      0.029100
     48 H27        -5.2890    1.0560   -1.4370 ha        1 I5S      0.164000
     49 H29         7.0650    0.9500    2.1880 ha        1 I5S      0.145500
     50 H30         8.1590   -1.2330    1.7040 ha        1 I5S      0.148500
@<TRIPOS>BOND
     1    1    2 1   
     2    2    3 ar  
     3    2   28 ar  
     4    3    4 ar  
     5    3   29 1   
     6    4    5 ar  
     7    4   30 1   
     8    5    6 1   
     9    5   27 ar  
    10    6    7 1   
    11    6   31 1   
    12    6   32 1   
    13    7    8 1   
    14    8    9 1   
    15    8   33 1   
    16    8   34 1   
    17    9   10 1   
    18    9   35 1   
    19    9   36 1   
    20   10   11 1   
    21   10   37 1   
    22   11   12 1   
    23   11   38 1   
    24   11   39 1   
    25   12   13 1   
    26   12   40 1   
    27   12   41 1   
    28   13   14 1   
    29   13   42 1   
    30   14   15 2   
    31   14   16 2   
    32   14   17 1   
    33   17   18 ar  
    34   17   26 ar  
    35   18   19 ar  
    36   18   43 1   
    37   19   20 ar  
    38   19   44 1   
    39   20   21 ar  
    40   20   45 1   
    41   21   22 ar  
    42   21   26 ar  
    43   22   23 ar  
    44   22   46 1   
    45   23   24 ar  
    46   24   25 ar  
    47   24   47 1   
    48   25   26 ar  
    49   25   48 1   
    50   27   28 ar  
    51   27   49 1   
    52   28   50 1   
@<TRIPOS>SUBSTRUCTURE
     1 I5S         1 TEMP              0 ****  ****    0 ROOT
