@<TRIPOS>MOLECULE
I5S
   52    53     1     0     0
SMALL
bcc


@<TRIPOS>ATOM
      1 Cl1         0.3380   -3.2870    0.6570 cl        1 I5S     -0.049400
      2 C2          1.7650   -2.3860    0.7840 ca        1 I5S      0.037400
      3 C3          2.7250   -2.7340    1.7420 ca        1 I5S     -0.126500
      4 C4          3.8990   -1.9910    1.8420 ca        1 I5S     -0.098000
      5 C5          4.1200   -0.9010    0.9930 ca        1 I5S     -0.132300
      6 C6          5.3590   -0.0860    1.1300 c3        1 I5S      0.194700
      7 O7          6.3840   -0.7590    0.3660 os        1 I5S     -0.480600
      8 C8          7.6110   -0.0510    0.3330 c3        1 I5S      0.106400
      9 C9          8.6760   -1.0500   -0.1440 c3        1 I5S      0.102800
     10 N10         8.2300   -1.7860   -1.3710 ny        1 I5S     -0.755000
     11 C13         9.1850   -2.8540   -1.7660 c3        1 I5S      0.065800
     12 C14         8.7200   -3.6220   -3.0240 c3        1 I5S      0.109800
     13 N15         9.6000   -4.6900   -3.4430 n8        1 I5S     -0.973800
     14 S16         8.4990   -5.7170   -5.5650 s4        1 I5S      1.681300
     15 O17         8.4510   -4.4340   -6.0190 o         1 I5S     -0.439400
     16 O18         7.5430   -6.1690   -4.7160 o         1 I5S     -0.439400
     17 C19         9.5760   -6.6420   -6.1450 ca        1 I5S     -0.661500
     18 C20        10.4860   -6.0950   -7.1020 ca        1 I5S      0.070000
     19 C21        11.4690   -6.8380   -7.7210 ca        1 I5S     -0.188000
     20 C22        11.6080   -8.1970   -7.4230 ca        1 I5S      0.119000
     21 C23        10.7500   -8.8000   -6.4900 ca        1 I5S     -0.239300
     22 C24        10.8730  -10.2010   -6.1730 ca        1 I5S      0.502200
     23 N25        10.0850  -10.8280   -5.3130 nb        1 I5S     -0.638000
     24 C26         9.1050  -10.0990   -4.7060 ca        1 I5S      0.516200
     25 C27         8.8950   -8.7370   -4.9290 ca        1 I5S     -0.340300
     26 C28         9.7240   -8.0470   -5.8400 ca        1 I5S      0.145000
     27 C29         3.1540   -0.5570    0.0410 ca        1 I5S     -0.098000
     28 C30         1.9770   -1.2940   -0.0650 ca        1 I5S     -0.126500
     29 H3          2.5480   -3.5820    2.4230 ha        1 I5S      0.163000
     30 H4          4.6470   -2.2550    2.6050 ha        1 I5S      0.139000
     31 H6C1        5.6970   -0.0270    2.1990 h1        1 I5S      0.059200
     32 H6C2        5.2230    0.9480    0.7150 h1        1 I5S      0.059200
     33 H8C1        7.5260    0.8220   -0.3680 h1        1 I5S      0.081200
     34 H8C2        7.9060    0.3150    1.3540 h1        1 I5S      0.081200
     35 H9C1        9.6330   -0.5040   -0.3740 hx        1 I5S      0.114700
     36 H9C2        8.8610   -1.8150    0.6640 hx        1 I5S      0.114700
     37 H10         7.3010   -2.1950   -1.1700 hn        1 I5S      0.468300
     38 H131        9.2890   -3.5650   -0.8940 hx        1 I5S      0.111700
     39 H132       10.1880   -2.3710   -1.9520 hx        1 I5S      0.111700
     40 H141        7.7030   -4.0750   -2.8290 h1        1 I5S      0.099700
     41 H142        8.6250   -2.9010   -3.8900 h1        1 I5S      0.099700
     42 H15        10.5220   -4.3430   -3.6430 hn        1 I5S      0.395300
     43 H20        10.3870   -5.0210   -7.3660 ha        1 I5S      0.176000
     44 H21        12.1410   -6.3650   -8.4600 ha        1 I5S      0.194000
     45 H22        12.3910   -8.8000   -7.9240 ha        1 I5S      0.188000
     46 H24        11.6610  -10.8090   -6.6650 h4        1 I5S      0.065100
     47 H26         8.4630  -10.6710   -4.0030 h4        1 I5S      0.068100
     48 H27         8.0670   -8.2470   -4.3930 ha        1 I5S      0.178000
     49 H29         3.3120    0.3110   -0.6180 ha        1 I5S      0.139000
     50 H30         1.2120   -1.0090   -0.8050 ha        1 I5S      0.163000
     51 H102        8.1120   -1.1170   -2.1400 hn        1 I5S      0.468300
     52 H152        9.6650   -5.4030   -2.7370 hn        1 I5S      0.395300
@<TRIPOS>BOND
     1    1    2 1   
     2    2    3 ar  
     3    2   28 ar  
     4    3    4 ar  
     5    3   29 1   
     6    4    5 ar  
     7    4   30 1   
     8    5    6 1   
     9    5   27 ar  
    10    6    7 1   
    11    6   31 1   
    12    6   32 1   
    13    7    8 1   
    14    8    9 1   
    15    8   33 1   
    16    8   34 1   
    17    9   10 1   
    18    9   35 1   
    19    9   36 1   
    20   10   11 1   
    21   10   37 1   
    22   10   51 1   
    23   11   12 1   
    24   11   38 1   
    25   11   39 1   
    26   12   13 1   
    27   12   40 1   
    28   12   41 1   
    29   13   42 1   
    30   13   52 1   
    31   14   15 1   
    32   14   16 1   
    33   14   17 1   
    34   17   18 ar  
    35   17   26 ar  
    36   18   19 ar  
    37   18   43 1   
    38   19   20 ar  
    39   19   44 1   
    40   20   21 ar  
    41   20   45 1   
    42   21   22 ar  
    43   21   26 ar  
    44   22   23 ar  
    45   22   46 1   
    46   23   24 ar  
    47   24   25 ar  
    48   24   47 1   
    49   25   26 ar  
    50   25   48 1   
    51   27   28 ar  
    52   27   49 1   
    53   28   50 1   
@<TRIPOS>SUBSTRUCTURE
     1 I5S         1 TEMP              0 ****  ****    0 ROOT
