@<TRIPOS>MOLECULE
I5T
   53    57     1     0     0
SMALL
bcc


@<TRIPOS>ATOM
      1 C1         -0.5110    0.9270    0.5760 ca        1 I5T     -0.095000
      2 C2          7.6090   -7.6050   11.3440 ca        1 I5T     -0.160000
      3 C3          0.7530    1.5100    0.6630 ca        1 I5T     -0.118500
      4 C4         -0.9350    0.0340    1.5610 ca        1 I5T     -0.118500
      5 C5          8.1840   -7.6290   10.0710 ca        1 I5T     -0.062000
      6 C6          6.7010   -6.6050   11.6820 ca        1 I5T     -0.034000
      7 C7          1.5940    1.2020    1.7300 ca        1 I5T     -0.110500
      8 C8         -0.0980   -0.2760    2.6310 ca        1 I5T     -0.110500
      9 C9          7.8510   -6.6660    9.1220 ca        1 I5T     -0.167000
     10 C10         6.3590   -5.6150   10.7510 ca        1 I5T     -0.240600
     11 C11         1.1740    0.3050    2.7240 ca        1 I5T     -0.112300
     12 C12         6.9350   -5.6620    9.4690 ca        1 I5T      0.145100
     13 C13         5.4380   -4.5300   11.1080 c         1 I5T      0.584700
     14 C14         3.3620   -3.4050    5.3280 c         1 I5T      0.619100
     15 C15         5.3720   -3.4110   10.1020 c3        1 I5T     -0.210400
     16 C16         4.2570   -4.7300    8.2710 c3        1 I5T     -0.121900
     17 C17         5.6920   -2.7300    7.7170 c3        1 I5T     -0.121900
     18 C18         1.5700   -0.3560    5.2110 cx        1 I5T     -0.099400
     19 C19         4.2710   -5.1040    6.7930 c3        1 I5T      0.059000
     20 C20         5.6780   -3.1950    6.2630 c3        1 I5T      0.059000
     21 C21         2.0780    0.0070    3.8410 cx        1 I5T     -0.015400
     22 C22         2.1700   -1.4350    4.3420 cx        1 I5T     -0.002500
     23 C23         5.4940   -3.9190    8.6700 c3        1 I5T      0.165800
     24 N24         4.4940   -3.9580    5.9010 n         1 I5T     -0.388800
     25 N25         3.4810   -2.0260    4.6490 ny        1 I5T     -0.625800
     26 O26         4.7840   -4.4940   12.1540 o         1 I5T     -0.502100
     27 O27         2.2750   -3.9670    5.1660 o         1 I5T     -0.479100
     28 O28         6.6770   -4.7230    8.4830 os        1 I5T     -0.338900
     29 H1         -1.1750    1.1720   -0.2680 ha        1 I5T      0.153000
     30 H3          1.0880    2.2180   -0.1110 ha        1 I5T      0.151000
     31 H4         -1.9340   -0.4240    1.4970 ha        1 I5T      0.151000
     32 H2          7.8760   -8.3770   12.0820 ha        1 I5T      0.155000
     33 H5          8.9080   -8.4190    9.8110 ha        1 I5T      0.151000
     34 H6          6.2420   -6.5720   12.6850 ha        1 I5T      0.166000
     35 H7          2.5870    1.6720    1.7940 ha        1 I5T      0.131500
     36 H8         -0.4470   -0.9750    3.4060 ha        1 I5T      0.131500
     37 H9          8.3000   -6.6760    8.1190 ha        1 I5T      0.152000
     38 H21         3.0150    0.6050    3.8030 hc        1 I5T      0.094700
     39 H151        4.4130   -2.8440   10.2230 hc        1 I5T      0.090700
     40 H152        6.2210   -2.7090   10.3250 hc        1 I5T      0.090700
     41 H25         4.0100   -1.3860    5.2500 hn        1 I5T      0.452300
     42 H161        3.3360   -4.1440    8.5220 hc        1 I5T      0.080700
     43 H162        4.2340   -5.6820    8.8670 hc        1 I5T      0.080700
     44 H191        3.3070   -5.6190    6.5170 h1        1 I5T      0.092700
     45 H192        5.1310   -5.8090    6.5920 h1        1 I5T      0.092700
     46 H171        6.6860   -2.2530    7.9230 hc        1 I5T      0.080700
     47 H172        4.8880   -1.9760    7.9150 hc        1 I5T      0.080700
     48 H201        6.5490   -3.9060    6.1150 h1        1 I5T      0.092700
     49 H202        5.8460   -2.3240    5.5740 h1        1 I5T      0.092700
     50 H181        2.1200    0.0240    6.0920 hc        1 I5T      0.108700
     51 H182        0.4790   -0.4050    5.4020 hc        1 I5T      0.108700
     52 H22         1.4900   -2.2030    3.8950 hx        1 I5T      0.169700
     53 H252        3.9910   -2.1500    3.7660 hn        1 I5T      0.452300
@<TRIPOS>BOND
     1    1    3 ar  
     2    1    4 ar  
     3    1   29 1   
     4    2    5 ar  
     5    2    6 ar  
     6    2   32 1   
     7    3    7 ar  
     8    3   30 1   
     9    4    8 ar  
    10    4   31 1   
    11    5    9 ar  
    12    5   33 1   
    13    6   10 ar  
    14    6   34 1   
    15    7   11 ar  
    16    7   35 1   
    17    8   11 ar  
    18    8   36 1   
    19    9   12 ar  
    20    9   37 1   
    21   10   12 ar  
    22   10   13 1   
    23   11   21 1   
    24   12   28 1   
    25   13   15 1   
    26   13   26 2   
    27   14   24 1   
    28   14   25 1   
    29   14   27 2   
    30   15   23 1   
    31   15   39 1   
    32   15   40 1   
    33   16   19 1   
    34   16   23 1   
    35   16   42 1   
    36   16   43 1   
    37   17   20 1   
    38   17   23 1   
    39   17   46 1   
    40   17   47 1   
    41   18   21 1   
    42   18   22 1   
    43   18   50 1   
    44   18   51 1   
    45   19   24 1   
    46   19   44 1   
    47   19   45 1   
    48   20   24 1   
    49   20   48 1   
    50   20   49 1   
    51   21   22 1   
    52   21   38 1   
    53   22   25 1   
    54   22   52 1   
    55   23   28 1   
    56   25   41 1   
    57   25   53 1   
@<TRIPOS>SUBSTRUCTURE
     1 I5T         1 TEMP              0 ****  ****    0 ROOT
