@<TRIPOS>MOLECULE
I5T
   53    57     1     0     0
SMALL
bcc


@<TRIPOS>ATOM
      1 C1         -0.5170    0.9220    0.5730 ca        1 I5T     -0.095000
      2 C2          7.6090   -7.6070   11.3410 ca        1 I5T     -0.160000
      3 C3          0.7500    1.4990    0.6540 ca        1 I5T     -0.118500
      4 C4         -0.9430    0.0370    1.5650 ca        1 I5T     -0.118500
      5 C5          8.1760   -7.6390   10.0650 ca        1 I5T     -0.062000
      6 C6          6.7100   -6.6000   11.6820 ca        1 I5T     -0.034000
      7 C7          1.5930    1.1920    1.7210 ca        1 I5T     -0.110500
      8 C8         -0.1040   -0.2720    2.6340 ca        1 I5T     -0.110500
      9 C9          7.8420   -6.6780    9.1140 ca        1 I5T     -0.167000
     10 C10         6.3670   -5.6110   10.7490 ca        1 I5T     -0.240600
     11 C11         1.1710    0.3030    2.7200 ca        1 I5T     -0.112300
     12 C12         6.9340   -5.6660    9.4640 ca        1 I5T      0.145100
     13 C13         5.4550   -4.5200   11.1090 c         1 I5T      0.584700
     14 C14         3.3490   -3.4040    5.3380 c         1 I5T      0.619100
     15 C15         5.3890   -3.4040   10.0990 c3        1 I5T     -0.210400
     16 C16         4.2540   -4.7230    8.2800 c3        1 I5T     -0.121900
     17 C17         5.6970   -2.7330    7.7090 c3        1 I5T     -0.121900
     18 C18         1.5700   -0.3470    5.2100 cx        1 I5T     -0.099400
     19 C19         4.2560   -5.1030    6.8030 c3        1 I5T      0.059000
     20 C20         5.6710   -3.2040    6.2560 c3        1 I5T      0.059000
     21 C21         2.0760    0.0060    3.8360 cx        1 I5T     -0.015400
     22 C22         2.1620   -1.4330    4.3450 cx        1 I5T     -0.002500
     23 C23         5.4990   -3.9180    8.6680 c3        1 I5T      0.165800
     24 N24         4.4800   -3.9620    5.9060 n         1 I5T     -0.388800
     25 N25         3.4720   -2.0290    4.6520 n4        1 I5T     -0.625800
     26 O26         4.8090   -4.4750   12.1590 o         1 I5T     -0.502100
     27 O27         2.2570   -3.9600    5.1850 o         1 I5T     -0.479100
     28 O28         6.6750   -4.7300    8.4760 os        1 I5T     -0.338900
     29 H1         -1.1820    1.1660   -0.2700 ha        1 I5T      0.153000
     30 H3          1.0870    2.2010   -0.1240 ha        1 I5T      0.151000
     31 H4         -1.9440   -0.4170    1.5050 ha        1 I5T      0.151000
     32 H2          7.8760   -8.3770   12.0810 ha        1 I5T      0.155000
     33 H5          8.8930   -8.4340    9.8030 ha        1 I5T      0.151000
     34 H6          6.2580   -6.5610   12.6880 ha        1 I5T      0.166000
     35 H7          2.5880    1.6590    1.7800 ha        1 I5T      0.131500
     36 H8         -0.4550   -0.9650    3.4130 ha        1 I5T      0.131500
     37 H9          8.2840   -6.6940    8.1080 ha        1 I5T      0.152000
     38 H21         3.0160    0.6000    3.7930 hc        1 I5T      0.094700
     39 H151        4.4340   -2.8300   10.2250 hc        1 I5T      0.090700
     40 H152        6.2440   -2.7060   10.3130 hc        1 I5T      0.090700
     41 H25         3.9790   -2.1590    3.7680 hn        1 I5T      0.451800
     42 H161        3.3380   -4.1300    8.5350 hc        1 I5T      0.080700
     43 H162        4.2290   -5.6720    8.8800 hc        1 I5T      0.080700
     44 H191        5.1110   -5.8140    6.6000 h1        1 I5T      0.092700
     45 H192        3.2880   -5.6130    6.5360 h1        1 I5T      0.092700
     46 H171        4.8990   -1.9740    7.9090 hc        1 I5T      0.080700
     47 H172        6.6960   -2.2620    7.9060 hc        1 I5T      0.080700
     48 H201        5.8390   -2.3370    5.5640 h1        1 I5T      0.092700
     49 H202        6.5370   -3.9210    6.1060 h1        1 I5T      0.092700
     50 H181        0.4790   -0.3900    5.4040 hc        1 I5T      0.108700
     51 H182        2.1240    0.0350    6.0880 hc        1 I5T      0.108700
     52 H22         1.4780   -2.2000    3.9040 hx        1 I5T      0.169700
     53 H252        4.0050   -1.3890    5.2480 hn        1 I5T      0.451800
@<TRIPOS>BOND
     1    1    3 ar  
     2    1    4 ar  
     3    1   29 1   
     4    2    5 ar  
     5    2    6 ar  
     6    2   32 1   
     7    3    7 ar  
     8    3   30 1   
     9    4    8 ar  
    10    4   31 1   
    11    5    9 ar  
    12    5   33 1   
    13    6   10 ar  
    14    6   34 1   
    15    7   11 ar  
    16    7   35 1   
    17    8   11 ar  
    18    8   36 1   
    19    9   12 ar  
    20    9   37 1   
    21   10   12 ar  
    22   10   13 1   
    23   11   21 1   
    24   12   28 1   
    25   13   15 1   
    26   13   26 2   
    27   14   24 1   
    28   14   25 1   
    29   14   27 2   
    30   15   23 1   
    31   15   39 1   
    32   15   40 1   
    33   16   19 1   
    34   16   23 1   
    35   16   42 1   
    36   16   43 1   
    37   17   20 1   
    38   17   23 1   
    39   17   46 1   
    40   17   47 1   
    41   18   21 1   
    42   18   22 1   
    43   18   50 1   
    44   18   51 1   
    45   19   24 1   
    46   19   44 1   
    47   19   45 1   
    48   20   24 1   
    49   20   48 1   
    50   20   49 1   
    51   21   22 1   
    52   21   38 1   
    53   22   25 1   
    54   22   52 1   
    55   23   28 1   
    56   25   41 1   
    57   25   53 1   
@<TRIPOS>SUBSTRUCTURE
     1 I5T         1 TEMP              0 ****  ****    0 ROOT
