@<TRIPOS>MOLECULE
I5U
   67    70     1     0     0
SMALL
bcc


@<TRIPOS>ATOM
      1 N26         1.6000   -1.3300   -2.9670 nz        1 I5U     -0.803600
      2 C26         2.7360   -0.9650   -2.0510 ce        1 I5U      0.630800
      3 C25         2.8690   -1.9350   -0.9760 cc        1 I5U     -0.358000
      4 S21         2.3590   -1.6830    0.6010 ss        1 I5U      0.161200
      5 C22         2.8500   -3.1730    1.1170 cc        1 I5U     -0.133100
      6 C23         3.4290   -3.9180    0.1010 cd        1 I5U     -0.155000
      7 C24         3.4400   -3.1990   -1.1230 cd        1 I5U     -0.095000
      8 N27         3.3790    0.1050   -2.3720 nf        1 I5U     -0.534100
      9 C31         4.5290    0.6260   -1.7620 ca        1 I5U      0.110400
     10 C32         5.4170   -0.1130   -0.9510 ca        1 I5U     -0.102000
     11 C33         6.5740    0.4810   -0.4560 ca        1 I5U     -0.119000
     12 C34         6.8750    1.8070   -0.7580 ca        1 I5U     -0.079000
     13 C36         4.8390    1.9760   -2.0600 ca        1 I5U     -0.057000
     14 C35         6.0080    2.5540   -1.5660 ca        1 I5U     -0.150300
     15 C37         6.3110    3.9910   -1.8370 c3        1 I5U      0.176700
     16 O38         6.1060    4.3850   -3.1950 os        1 I5U     -0.448600
     17 C20         7.1310    4.0070   -4.1090 c3        1 I5U      0.119100
     18 C21         7.1050    5.0540   -5.2390 c3        1 I5U      0.092800
     19 N22         7.3160    6.4420   -4.7450 nz        1 I5U     -0.833600
     20 C19         6.8300    2.6360   -4.7300 c3        1 I5U      0.107400
     21 O18         7.8700    2.3930   -5.6670 os        1 I5U     -0.439600
     22 C17         8.0050    1.0220   -6.0450 c3        1 I5U      0.178700
     23 C15         6.9480    0.5720   -7.0010 ca        1 I5U     -0.124300
     24 C14         6.8840    1.1330   -8.2800 ca        1 I5U     -0.113000
     25 C13         5.9580    0.6540   -9.2040 ca        1 I5U     -0.102000
     26 C12         5.0870   -0.3770   -8.8650 ca        1 I5U     -0.137000
     27 C16         6.0790   -0.4620   -6.6460 ca        1 I5U     -0.137000
     28 C11         5.1360   -0.9500   -7.5750 ca        1 I5U      0.108600
     29 N07         4.3030   -2.0440   -7.2450 nu        1 I5U     -0.739600
     30 C06         3.4120   -1.9770   -6.1520 ce        1 I5U      0.741800
     31 N06         3.2970   -1.0280   -5.2670 n2        1 I5U     -0.931100
     32 C05         2.5640   -3.1790   -5.9980 cc        1 I5U     -0.259000
     33 S01         3.1070   -4.7520   -6.1490 ss        1 I5U      0.163200
     34 C02         1.6200   -5.4130   -5.8420 cc        1 I5U     -0.162100
     35 C03         0.6540   -4.4470   -5.6220 cd        1 I5U     -0.161000
     36 C04         1.2040   -3.1380   -5.7110 cd        1 I5U     -0.164000
     37 H261        1.3790   -0.5730   -3.6260 hn        1 I5U      0.471800
     38 H262        0.7810   -1.5580   -2.4000 hn        1 I5U      0.471800
     39 H24         3.8580   -3.5970   -2.0520 ha        1 I5U      0.167000
     40 H22         2.7260   -3.5210    2.1470 h4        1 I5U      0.207000
     41 H23         3.8280   -4.9310    0.2140 ha        1 I5U      0.188000
     42 H32         5.2090   -1.1710   -0.7150 ha        1 I5U      0.160000
     43 H36         4.1630    2.5840   -2.6850 ha        1 I5U      0.160000
     44 H33         7.2580   -0.1050    0.1810 ha        1 I5U      0.166000
     45 H34         7.7930    2.2650   -0.3550 ha        1 I5U      0.155000
     46 H371        5.5760    4.6450   -1.2820 h1        1 I5U      0.076200
     47 H372        7.3580    4.2440   -1.5190 h1        1 I5U      0.076200
     48 H20         8.1380    3.9860   -3.6070 h1        1 I5U      0.078700
     49 H211        6.1000    5.0220   -5.7520 hx        1 I5U      0.131200
     50 H212        7.9140    4.7930   -5.9840 hx        1 I5U      0.131200
     51 H191        6.8150    1.8600   -3.9190 h1        1 I5U      0.062200
     52 H192        5.8390    2.6430   -5.2550 h1        1 I5U      0.062200
     53 H221        7.1840    7.1130   -5.5080 hn        1 I5U      0.465800
     54 H222        6.6380    6.6390   -3.9970 hn        1 I5U      0.465800
     55 H171        9.0140    1.0010   -6.5470 h1        1 I5U      0.073700
     56 H172        8.0270    0.3730   -5.1280 h1        1 I5U      0.073700
     57 H14         7.5790    1.9400   -8.5580 ha        1 I5U      0.145000
     58 H16         6.1610   -0.9190   -5.6470 ha        1 I5U      0.139000
     59 H13         5.9180    1.0870  -10.2170 ha        1 I5U      0.156000
     60 H12         4.3730   -0.7510   -9.6170 ha        1 I5U      0.152000
     61 H07         3.9980   -2.5930   -8.0220 hn        1 I5U      0.446800
     62 H06         3.8610   -0.2170   -5.4010 hn        1 I5U      0.407400
     63 H04         0.6080   -2.2260   -5.6340 ha        1 I5U      0.148000
     64 H02         1.4370   -6.4900   -5.8320 h4        1 I5U      0.200000
     65 H03        -0.4030   -4.6500   -5.4260 ha        1 I5U      0.175000
     66 H263        1.8850   -2.1580   -3.5160 hn        1 I5U      0.471800
     67 H223        8.2630    6.5480   -4.3660 hn        1 I5U      0.465800
@<TRIPOS>BOND
     1    1    2 1   
     2    1   37 1   
     3    1   38 1   
     4    1   66 1   
     5    2    3 1   
     6    2    8 2   
     7    3    4 1   
     8    3    7 2   
     9    4    5 1   
    10    5    6 2   
    11    5   40 1   
    12    6    7 1   
    13    6   41 1   
    14    7   39 1   
    15    8    9 1   
    16    9   10 ar  
    17    9   13 ar  
    18   10   11 ar  
    19   10   42 1   
    20   11   12 ar  
    21   11   44 1   
    22   12   14 ar  
    23   12   45 1   
    24   13   14 ar  
    25   13   43 1   
    26   14   15 1   
    27   15   16 1   
    28   15   46 1   
    29   15   47 1   
    30   16   17 1   
    31   17   18 1   
    32   17   20 1   
    33   17   48 1   
    34   18   19 1   
    35   18   49 1   
    36   18   50 1   
    37   19   53 1   
    38   19   54 1   
    39   19   67 1   
    40   20   21 1   
    41   20   51 1   
    42   20   52 1   
    43   21   22 1   
    44   22   23 1   
    45   22   55 1   
    46   22   56 1   
    47   23   24 ar  
    48   23   27 ar  
    49   24   25 ar  
    50   24   57 1   
    51   25   26 ar  
    52   25   59 1   
    53   26   28 ar  
    54   26   60 1   
    55   27   28 ar  
    56   27   58 1   
    57   28   29 1   
    58   29   30 1   
    59   29   61 1   
    60   30   31 2   
    61   30   32 1   
    62   31   62 1   
    63   32   33 1   
    64   32   36 2   
    65   33   34 1   
    66   34   35 2   
    67   34   64 1   
    68   35   36 1   
    69   35   65 1   
    70   36   63 1   
@<TRIPOS>SUBSTRUCTURE
     1 I5U         1 TEMP              0 ****  ****    0 ROOT
