@<TRIPOS>MOLECULE
I5U
   67    70     1     0     0
SMALL
bcc


@<TRIPOS>ATOM
      1 N26         1.6130   -1.2430   -2.8210 n4        1 I5U     -0.803600
      2 C26         2.7990   -0.9100   -1.9570 ce        1 I5U      0.630800
      3 C25         2.9540   -1.8880   -0.8910 cc        1 I5U     -0.358000
      4 S21         2.5210   -1.6280    0.7070 ss        1 I5U      0.161200
      5 C22         2.9970   -3.1330    1.1970 cc        1 I5U     -0.133100
      6 C23         3.5110   -3.8880    0.1550 cd        1 I5U     -0.155000
      7 C24         3.4870   -3.1650   -1.0670 cd        1 I5U     -0.095000
      8 N27         3.4550    0.1430   -2.3050 nf        1 I5U     -0.534100
      9 C31         4.6440    0.6320   -1.7460 ca        1 I5U      0.110400
     10 C32         5.5480   -0.1320   -0.9760 ca        1 I5U     -0.102000
     11 C33         6.7410    0.4300   -0.5320 ca        1 I5U     -0.119000
     12 C34         7.0640    1.7480   -0.8470 ca        1 I5U     -0.079000
     13 C36         4.9760    1.9740   -2.0570 ca        1 I5U     -0.057000
     14 C35         6.1820    2.5190   -1.6150 ca        1 I5U     -0.150300
     15 C37         6.5110    3.9480   -1.8980 c3        1 I5U      0.176700
     16 O38         6.2560    4.3490   -3.2470 os        1 I5U     -0.448600
     17 C20         7.2300    3.9450   -4.2050 c3        1 I5U      0.119100
     18 C21         7.1820    4.9940   -5.3320 c3        1 I5U      0.092800
     19 N22         7.4520    6.3760   -4.8470 n4        1 I5U     -0.833600
     20 C19         6.8650    2.5840   -4.8120 c3        1 I5U      0.107400
     21 O18         7.8560    2.3150   -5.7940 os        1 I5U     -0.439600
     22 C17         7.9360    0.9410   -6.1780 c3        1 I5U      0.178700
     23 C15         6.8260    0.5220   -7.0880 ca        1 I5U     -0.124300
     24 C14         6.7210    1.0870   -8.3610 ca        1 I5U     -0.113000
     25 C13         5.7420    0.6360   -9.2440 ca        1 I5U     -0.102000
     26 C12         4.8590   -0.3720   -8.8680 ca        1 I5U     -0.137000
     27 C16         5.9460   -0.4890   -6.6950 ca        1 I5U     -0.137000
     28 C11         4.9500   -0.9490   -7.5820 ca        1 I5U      0.108600
     29 N07         4.1020   -2.0200   -7.2160 nh        1 I5U     -0.739600
     30 C06         3.2630   -1.9310   -6.0840 ce        1 I5U      0.741800
     31 N06         3.2140   -0.9810   -5.1940 n2        1 I5U     -0.931100
     32 C05         2.3890   -3.1080   -5.8940 cc        1 I5U     -0.260000
     33 S01         2.8800   -4.6960   -6.0720 ss        1 I5U      0.163200
     34 C02         1.3900   -5.3160   -5.7000 cc        1 I5U     -0.162100
     35 C03         0.4620   -4.3240   -5.4350 cd        1 I5U     -0.161000
     36 C04         1.0450   -3.0300   -5.5470 cd        1 I5U     -0.164000
     37 H261        1.3830   -0.4780   -3.4690 hn        1 I5U      0.471800
     38 H262        1.8510   -2.0770   -3.3840 hn        1 I5U      0.471800
     39 H24         3.8520   -3.5700   -2.0150 ha        1 I5U      0.167000
     40 H22         2.9100   -3.4810    2.2310 h4        1 I5U      0.207000
     41 H23         3.8890   -4.9110    0.2470 ha        1 I5U      0.188000
     42 H32         5.3220   -1.1840   -0.7320 ha        1 I5U      0.160000
     43 H36         4.2900    2.6010   -2.6510 ha        1 I5U      0.160000
     44 H33         7.4360   -0.1760    0.0730 ha        1 I5U      0.166000
     45 H34         8.0100    2.1800   -0.4840 ha        1 I5U      0.155000
     46 H371        7.5780    4.1730   -1.6270 h1        1 I5U      0.076200
     47 H372        5.8190    4.6200   -1.3120 h1        1 I5U      0.076200
     48 H20         8.2570    3.8970   -3.7480 h1        1 I5U      0.078700
     49 H211        7.9500    4.7130   -6.1120 hx        1 I5U      0.131200
     50 H212        6.1550    4.9900   -5.8000 hx        1 I5U      0.131200
     51 H191        5.8520    2.6180   -5.2930 h1        1 I5U      0.062200
     52 H192        6.8650    1.8080   -4.0010 h1        1 I5U      0.062200
     53 H221        8.4170    6.4560   -4.5110 hn        1 I5U      0.465800
     54 H222        6.8130    6.5900   -4.0700 hn        1 I5U      0.465800
     55 H171        7.9810    0.2900   -5.2640 h1        1 I5U      0.073700
     56 H172        8.9220    0.8940   -6.7250 h1        1 I5U      0.073700
     57 H14         7.4250    1.8760   -8.6690 ha        1 I5U      0.145000
     58 H16         6.0590   -0.9500   -5.7010 ha        1 I5U      0.139000
     59 H13         5.6700    1.0710  -10.2540 ha        1 I5U      0.156000
     60 H12         4.1030   -0.7240   -9.5870 ha        1 I5U      0.152000
     61 H07         3.7480   -2.5580   -7.9790 hn        1 I5U      0.446800
     62 H06         3.7940   -0.1860   -5.3520 hn        1 I5U      0.407400
     63 H04         0.4790   -2.1020   -5.4420 ha        1 I5U      0.148000
     64 H02         1.1770   -6.3880   -5.6830 h4        1 I5U      0.200000
     65 H03        -0.5900   -4.4970   -5.1930 ha        1 I5U      0.175000
     66 H263        0.8150   -1.4500   -2.2180 hn        1 I5U      0.471800
     67 H223        7.3050    7.0510   -5.6040 hn        1 I5U      0.465800
@<TRIPOS>BOND
     1    1    2 1   
     2    1   37 1   
     3    1   38 1   
     4    1   66 1   
     5    2    3 1   
     6    2    8 2   
     7    3    4 1   
     8    3    7 2   
     9    4    5 1   
    10    5    6 2   
    11    5   40 1   
    12    6    7 1   
    13    6   41 1   
    14    7   39 1   
    15    8    9 1   
    16    9   10 ar  
    17    9   13 ar  
    18   10   11 ar  
    19   10   42 1   
    20   11   12 ar  
    21   11   44 1   
    22   12   14 ar  
    23   12   45 1   
    24   13   14 ar  
    25   13   43 1   
    26   14   15 1   
    27   15   16 1   
    28   15   46 1   
    29   15   47 1   
    30   16   17 1   
    31   17   18 1   
    32   17   20 1   
    33   17   48 1   
    34   18   19 1   
    35   18   49 1   
    36   18   50 1   
    37   19   53 1   
    38   19   54 1   
    39   19   67 1   
    40   20   21 1   
    41   20   51 1   
    42   20   52 1   
    43   21   22 1   
    44   22   23 1   
    45   22   55 1   
    46   22   56 1   
    47   23   24 ar  
    48   23   27 ar  
    49   24   25 ar  
    50   24   57 1   
    51   25   26 ar  
    52   25   59 1   
    53   26   28 ar  
    54   26   60 1   
    55   27   28 ar  
    56   27   58 1   
    57   28   29 1   
    58   29   30 1   
    59   29   61 1   
    60   30   31 2   
    61   30   32 1   
    62   31   62 1   
    63   32   33 1   
    64   32   36 2   
    65   33   34 1   
    66   34   35 2   
    67   34   64 1   
    68   35   36 1   
    69   35   65 1   
    70   36   63 1   
@<TRIPOS>SUBSTRUCTURE
     1 I5U         1 TEMP              0 ****  ****    0 ROOT
