@<TRIPOS>MOLECULE
I5U
   68    71     1     0     0
SMALL
bcc


@<TRIPOS>ATOM
      1 N26         5.5240    3.1180    5.0610 n4        1 I5U     -0.817600
      2 C26         4.6700    2.3260    4.0960 ce        1 I5U      0.631800
      3 C25         3.8070    1.4120    4.8200 cc        1 I5U     -0.379000
      4 S21         4.0540   -0.2390    4.9580 ss        1 I5U      0.177200
      5 C22         2.7110   -0.4770    5.8860 cc        1 I5U     -0.126100
      6 C23         2.0160    0.7010    6.1230 cd        1 I5U     -0.148000
      7 C24         2.6530    1.8070    5.5050 cd        1 I5U     -0.094000
      8 N27         4.8540    2.6030    2.8520 nf        1 I5U     -0.544100
      9 C31         4.1590    2.0620    1.7570 ca        1 I5U      0.115400
     10 C32         2.8460    1.5470    1.8290 ca        1 I5U     -0.096000
     11 C33         2.2110    1.0880    0.6790 ca        1 I5U     -0.116000
     12 C34         2.8640    1.1190   -0.5510 ca        1 I5U     -0.073000
     13 C36         4.8090    2.1140    0.4990 ca        1 I5U     -0.061000
     14 C35         4.1620    1.6340   -0.6410 ca        1 I5U     -0.120300
     15 C37         4.8980    1.6290   -1.9420 c3        1 I5U      0.181700
     16 O38         3.9500    1.9020   -2.9900 os        1 I5U     -0.455600
     17 C20         4.5170    1.9070   -4.2970 c3        1 I5U      0.126100
     18 C21         3.4730    2.5960   -5.1980 c3        1 I5U      0.097800
     19 N22         3.0900    3.9500   -4.7120 n4        1 I5U     -0.832600
     20 C19         4.7330    0.4750   -4.8060 c3        1 I5U      0.104400
     21 O18         5.2360    0.5850   -6.1370 os        1 I5U     -0.442600
     22 C17         5.4930   -0.7060   -6.7100 c3        1 I5U      0.172700
     23 C15         6.2500   -0.5360   -7.9880 ca        1 I5U     -0.076300
     24 C14         6.9970    0.6150   -8.2580 ca        1 I5U     -0.065000
     25 C13         7.7310    0.7160   -9.4390 ca        1 I5U     -0.099000
     26 C12         7.7390   -0.3280  -10.3620 ca        1 I5U     -0.090000
     27 C16         6.2380   -1.5920   -8.9080 ca        1 I5U     -0.105000
     28 C11         6.9890   -1.4880  -10.0920 ca        1 I5U     -0.054400
     29 N07         7.0130   -2.5980  -11.0400 n4        1 I5U     -0.675400
     30 C06         5.9250   -2.5310  -12.1330 ce        1 I5U      0.686800
     31 N06         4.9840   -1.6780  -12.1590 n2        1 I5U     -0.715100
     32 C05         6.1350   -3.5640  -13.1290 cc        1 I5U     -0.352000
     33 S01         5.5240   -3.4430  -14.6820 ss        1 I5U      0.302200
     34 C02         6.1020   -4.8950  -15.1530 cc        1 I5U     -0.165100
     35 C03         6.7870   -5.5560  -14.1330 cd        1 I5U     -0.137000
     36 C04         6.8050   -4.7850  -12.9510 cd        1 I5U     -0.125000
     37 H261        6.0610    3.8590    4.5970 hn        1 I5U      0.470467
     38 H262        6.1670    2.4720    5.5300 hn        1 I5U      0.470467
     39 H24         2.2670    2.8290    5.5580 ha        1 I5U      0.169000
     40 H22         2.4130   -1.4580    6.2710 h4        1 I5U      0.213000
     41 H23         1.0970    0.7800    6.7140 ha        1 I5U      0.196000
     42 H32         2.3100    1.5180    2.7930 ha        1 I5U      0.164000
     43 H36         5.8310    2.5210    0.4200 ha        1 I5U      0.158000
     44 H33         1.1840    0.6890    0.7470 ha        1 I5U      0.168000
     45 H34         2.3620    0.7400   -1.4550 ha        1 I5U      0.153000
     46 H371        5.3570    0.6180   -2.1170 h1        1 I5U      0.059200
     47 H372        5.7000    2.4160   -1.9640 h1        1 I5U      0.059200
     48 H20         5.4920    2.4700   -4.3080 h1        1 I5U      0.079700
     49 H211        2.5350    1.9670   -5.2270 hx        1 I5U      0.129200
     50 H212        3.9000    2.6790   -6.2400 hx        1 I5U      0.129200
     51 H191        5.4810   -0.0490   -4.1540 h1        1 I5U      0.067200
     52 H192        3.7680   -0.0970   -4.8030 h1        1 I5U      0.067200
     53 H221        2.3130    4.3190   -5.2710 hn        1 I5U      0.469800
     54 H222        2.7990    3.8840   -3.7260 hn        1 I5U      0.469800
     55 H171        6.1050   -1.3210   -5.9930 h1        1 I5U      0.065200
     56 H172        4.5070   -1.2160   -6.8920 h1        1 I5U      0.065200
     57 H14         7.0080    1.4410   -7.5270 ha        1 I5U      0.164000
     58 H16         5.6470   -2.4970   -8.6850 ha        1 I5U      0.160000
     59 H13         8.3220    1.6250   -9.6470 ha        1 I5U      0.179000
     60 H12         8.3380   -0.2310  -11.2840 ha        1 I5U      0.173000
     61 H07         6.8890   -3.4840  -10.5360 hn        1 I5U      0.465800
     62 H06         4.8960   -0.9570  -11.4780 hn        1 I5U      0.452400
     63 H04         7.2730   -5.1410  -12.0310 ha        1 I5U      0.145000
     64 H02         5.9660   -5.3110  -16.1580 h4        1 I5U      0.214000
     65 H03         7.2490   -6.5440  -14.2280 ha        1 I5U      0.190000
     66 H263        4.8970    3.5320    5.7620 hn        1 I5U      0.470467
     67 H223        3.8840    4.5950   -4.7760 hn        1 I5U      0.469800
     68 H072        7.9250   -2.6240  -11.5170 hn        1 I5U      0.465800
@<TRIPOS>BOND
     1    1    2 1   
     2    1   37 1   
     3    1   38 1   
     4    1   66 1   
     5    2    3 1   
     6    2    8 2   
     7    3    4 1   
     8    3    7 2   
     9    4    5 1   
    10    5    6 2   
    11    5   40 1   
    12    6    7 1   
    13    6   41 1   
    14    7   39 1   
    15    8    9 1   
    16    9   10 ar  
    17    9   13 ar  
    18   10   11 ar  
    19   10   42 1   
    20   11   12 ar  
    21   11   44 1   
    22   12   14 ar  
    23   12   45 1   
    24   13   14 ar  
    25   13   43 1   
    26   14   15 1   
    27   15   16 1   
    28   15   46 1   
    29   15   47 1   
    30   16   17 1   
    31   17   18 1   
    32   17   20 1   
    33   17   48 1   
    34   18   19 1   
    35   18   49 1   
    36   18   50 1   
    37   19   53 1   
    38   19   54 1   
    39   19   67 1   
    40   20   21 1   
    41   20   51 1   
    42   20   52 1   
    43   21   22 1   
    44   22   23 1   
    45   22   55 1   
    46   22   56 1   
    47   23   24 ar  
    48   23   27 ar  
    49   24   25 ar  
    50   24   57 1   
    51   25   26 ar  
    52   25   59 1   
    53   26   28 ar  
    54   26   60 1   
    55   27   28 ar  
    56   27   58 1   
    57   28   29 1   
    58   29   30 1   
    59   29   61 1   
    60   29   68 1   
    61   30   31 2   
    62   30   32 1   
    63   31   62 1   
    64   32   33 1   
    65   32   36 2   
    66   33   34 1   
    67   34   35 2   
    68   34   64 1   
    69   35   36 1   
    70   35   65 1   
    71   36   63 1   
@<TRIPOS>SUBSTRUCTURE
     1 I5U         1 TEMP              0 ****  ****    0 ROOT
