@<TRIPOS>MOLECULE
I63
   82    84     1     0     0
SMALL
bcc


@<TRIPOS>ATOM
      1 O42         1.6070    3.6140   -2.9830 o         1 I63     -0.825800
      2 C40         1.3350    2.7120   -2.1440 c         1 I63      0.927600
      3 O41         0.5710    2.8440   -1.1530 o         1 I63     -0.825800
      4 C39         1.9290    1.2970   -2.3820 c3        1 I63     -0.008600
      5 O38         3.3510    1.4090   -2.2510 os        1 I63     -0.293900
      6 C26         4.0760    0.2830   -2.5420 ca        1 I63      0.158100
      7 C25         5.4750    0.4350   -2.4540 ca        1 I63     -0.161000
      8 C27         3.5270   -0.9560   -2.9070 ca        1 I63     -0.208000
      9 C28         4.3800   -2.0180   -3.2000 ca        1 I63     -0.101000
     10 C29         5.7630   -1.8690   -3.1340 ca        1 I63     -0.177000
     11 C24         6.3140   -0.6390   -2.7510 ca        1 I63     -0.079300
     12 C15         7.7950   -0.4190   -2.6400 c3        1 I63      0.192400
     13 C16         8.6330   -1.6830   -2.7960 c3        1 I63     -0.079400
     14 C17        10.0880   -1.4180   -2.4570 c3        1 I63     -0.038100
     15 C18        10.9450   -2.6040   -2.7260 ca        1 I63     -0.067300
     16 C23        11.5230   -3.3200   -1.6780 ca        1 I63     -0.129000
     17 C22        12.3380   -4.4250   -1.9310 ca        1 I63     -0.178000
     18 C21        12.5810   -4.8250   -3.2450 ca        1 I63      0.091100
     19 O34        13.3730   -5.8970   -3.6130 os        1 I63     -0.306900
     20 C35        13.9140   -6.6600   -2.5430 c3        1 I63      0.112700
     21 C20        11.9950   -4.1020   -4.3180 ca        1 I63      0.102100
     22 O36        12.2990   -4.5680   -5.5820 os        1 I63     -0.309900
     23 C37        11.6460   -3.9060   -6.6600 c3        1 I63      0.110700
     24 C19        11.1850   -2.9990   -4.0510 ca        1 I63     -0.176000
     25 O1          8.2050    0.4650   -3.7140 os        1 I63     -0.434900
     26 C1          8.3910    1.7860   -3.4330 c         1 I63      0.616100
     27 O2          8.3580    2.1710   -2.2640 o         1 I63     -0.546000
     28 C2          8.6640    2.5950   -4.7100 c3        1 I63      0.070700
     29 N7          7.9100    3.8230   -4.7340 n         1 I63     -0.465800
     30 C6          8.3430    4.9240   -3.9000 c3        1 I63      0.091000
     31 C5          9.7530    4.7480   -3.3390 c3        1 I63     -0.094400
     32 C4         10.6780    4.1430   -4.3710 c3        1 I63     -0.073400
     33 C3         10.1900    2.7840   -4.8300 c3        1 I63     -0.078400
     34 C8          6.7520    3.9250   -5.4980 c         1 I63      0.583100
     35 O3          6.4190    3.0250   -6.2900 o         1 I63     -0.583100
     36 C9          5.9210    5.2040   -5.3700 c         1 I63      0.531100
     37 O4          6.3290    6.2320   -5.9130 o         1 I63     -0.529100
     38 C10         4.6070    5.0670   -4.6240 c3        1 I63     -0.113000
     39 C13         3.5920    4.4430   -5.5750 c3        1 I63     -0.110600
     40 C14         4.7820    4.1590   -3.4160 c3        1 I63     -0.110600
     41 C11         4.1500    6.4600   -4.1780 c3        1 I63     -0.060400
     42 C12         2.7090    6.5060   -3.7420 c3        1 I63     -0.109100
     43 H2          1.6690    0.9530   -3.4150 h1        1 I63      0.026200
     44 H3          1.5460    0.5730   -1.6200 h1        1 I63      0.026200
     45 H4          5.8930    1.4110   -2.1600 ha        1 I63      0.157000
     46 H5          2.4390   -1.0900   -2.9670 ha        1 I63      0.142000
     47 H6          3.9520   -2.9880   -3.4940 ha        1 I63      0.117000
     48 H7          6.4100   -2.7180   -3.3900 ha        1 I63      0.119000
     49 H8          8.0200    0.0660   -1.6460 h1        1 I63      0.082700
     50 H9          8.2200   -2.4680   -2.1110 hc        1 I63      0.059700
     51 H10         8.5530   -2.0580   -3.8490 hc        1 I63      0.059700
     52 H11        10.1710   -1.1170   -1.3780 hc        1 I63      0.052700
     53 H12        10.4520   -0.5490   -3.0730 hc        1 I63      0.052700
     54 H13        11.3380   -3.0150   -0.6370 ha        1 I63      0.135000
     55 H14        12.7820   -4.9720   -1.0880 ha        1 I63      0.135000
     56 H15        13.1010   -7.0920   -1.9100 h1        1 I63      0.040033
     57 H16        14.4810   -7.4730   -3.0650 h1        1 I63      0.040033
     58 H17        14.6040   -6.0380   -1.9220 h1        1 I63      0.040033
     59 H18        11.9650   -2.8370   -6.7160 h1        1 I63      0.043700
     60 H19        10.5360   -3.9780   -6.5580 h1        1 I63      0.043700
     61 H20        11.9980   -4.4700   -7.5610 h1        1 I63      0.043700
     62 H21        10.7240   -2.4290   -4.8700 ha        1 I63      0.147000
     63 H22         8.3140    1.9530   -5.5800 h1        1 I63      0.118700
     64 H23         8.3060    5.8670   -4.5190 h1        1 I63      0.056200
     65 H24         7.6200    5.0400   -3.0390 h1        1 I63      0.056200
     66 H25         9.7130    4.0870   -2.4320 hc        1 I63      0.060700
     67 H26        10.1310    5.7520   -3.0190 hc        1 I63      0.060700
     68 H27        11.7090    4.0450   -3.9430 hc        1 I63      0.041700
     69 H28        10.7480    4.8340   -5.2530 hc        1 I63      0.041700
     70 H29        10.6910    1.9750   -4.2370 hc        1 I63      0.049700
     71 H30        10.4740    2.6340   -5.9040 hc        1 I63      0.049700
     72 H31         3.3130    5.1670   -6.3760 hc        1 I63      0.062533
     73 H32         2.6760    4.1600   -4.9900 hc        1 I63      0.062533
     74 H33         4.0180    3.5220   -6.0440 hc        1 I63      0.062533
     75 H34         3.7780    3.9660   -2.9410 hc        1 I63      0.062533
     76 H35         5.4620    4.6230   -2.6640 hc        1 I63      0.062533
     77 H36         5.1950    3.1660   -3.7220 hc        1 I63      0.062533
     78 H37         4.8100    6.7940   -3.3340 hc        1 I63      0.030200
     79 H38         4.3060    7.1800   -5.0260 hc        1 I63      0.030200
     80 H39         2.0290    6.4270   -4.6240 hc        1 I63      0.051700
     81 H40         2.4590    5.6600   -3.0480 hc        1 I63      0.051700
     82 H41         2.5020    7.4740   -3.2230 hc        1 I63      0.051700
@<TRIPOS>BOND
     1    1    2 1   
     2    2    3 1   
     3    2    4 1   
     4    4    5 1   
     5    4   43 1   
     6    4   44 1   
     7    5    6 1   
     8    6    7 ar  
     9    6    8 ar  
    10    7   11 ar  
    11    7   45 1   
    12    8    9 ar  
    13    8   46 1   
    14    9   10 ar  
    15    9   47 1   
    16   10   11 ar  
    17   10   48 1   
    18   11   12 1   
    19   12   13 1   
    20   12   25 1   
    21   12   49 1   
    22   13   14 1   
    23   13   50 1   
    24   13   51 1   
    25   14   15 1   
    26   14   52 1   
    27   14   53 1   
    28   15   16 ar  
    29   15   24 ar  
    30   16   17 ar  
    31   16   54 1   
    32   17   18 ar  
    33   17   55 1   
    34   18   19 1   
    35   18   21 ar  
    36   19   20 1   
    37   20   56 1   
    38   20   57 1   
    39   20   58 1   
    40   21   22 1   
    41   21   24 ar  
    42   22   23 1   
    43   23   59 1   
    44   23   60 1   
    45   23   61 1   
    46   24   62 1   
    47   25   26 1   
    48   26   27 2   
    49   26   28 1   
    50   28   29 1   
    51   28   33 1   
    52   28   63 1   
    53   29   30 1   
    54   29   34 1   
    55   30   31 1   
    56   30   64 1   
    57   30   65 1   
    58   31   32 1   
    59   31   66 1   
    60   31   67 1   
    61   32   33 1   
    62   32   68 1   
    63   32   69 1   
    64   33   70 1   
    65   33   71 1   
    66   34   35 2   
    67   34   36 1   
    68   36   37 2   
    69   36   38 1   
    70   38   39 1   
    71   38   40 1   
    72   38   41 1   
    73   39   72 1   
    74   39   73 1   
    75   39   74 1   
    76   40   75 1   
    77   40   76 1   
    78   40   77 1   
    79   41   42 1   
    80   41   78 1   
    81   41   79 1   
    82   42   80 1   
    83   42   81 1   
    84   42   82 1   
@<TRIPOS>SUBSTRUCTURE
     1 I63         1 TEMP              0 ****  ****    0 ROOT
