@<TRIPOS>MOLECULE
I63
   82    78     1     0     0
SMALL
bcc


@<TRIPOS>ATOM
      1 O42        -6.7750   -0.0040    3.6980 o         1 I63     -0.563000
      2 C40        -7.4830   -0.2360    2.6750 c1        1 I63      0.347000
      3 O41        -8.7070   -0.4860    2.8030 o         1 I63     -0.563000
      4 C39        -6.8330   -0.3000    1.2990 c2        1 I63     -0.109000
      5 O38        -6.0230    0.8790    1.0900 os        1 I63     -0.180000
      6 C26        -5.2210    0.8200   -0.0810 c2        1 I63      0.112000
      7 C25        -3.8420    0.6610    0.0290 c2        1 I63     -0.176000
      8 C27        -5.8130    0.9520   -1.3410 c1        1 I63     -0.209000
      9 C28        -5.0270    0.9250   -2.4840 c1        1 I63     -0.134500
     10 C29        -3.6320    0.7640   -2.3760 c1        1 I63     -0.134500
     11 C24        -3.0440    0.6330   -1.1260 c1        1 I63     -0.063000
     12 C15        -1.5550    0.3480   -1.0110 c3        1 I63      0.077000
     13 C16        -1.3010   -1.1140   -1.2940 c3        1 I63     -0.171000
     14 C17        -0.5530   -1.7410   -0.1230 c3        1 I63     -0.122000
     15 C18        -0.6930   -3.2840   -0.1890 c2        1 I63     -0.053000
     16 C23        -0.0730   -3.9880   -1.2090 c2        1 I63     -0.168000
     17 C22        -0.0320   -5.3820   -1.1670 c1        1 I63     -0.120000
     18 C21        -0.6130   -6.0640   -0.1010 c1        1 I63      0.046000
     19 O34        -0.5540   -7.4870   -0.0460 os        1 I63     -0.226000
     20 C35        -1.3370   -8.1440   -1.0560 c3        1 I63     -0.070000
     21 C20        -1.2310   -5.3590    0.9160 c1        1 I63      0.046000
     22 O36        -1.7210   -6.0610    2.0860 os        1 I63     -0.226000
     23 C37        -3.1450   -6.2800    2.0750 c3        1 I63     -0.070000
     24 C19        -1.2720   -3.9670    0.8750 c1        1 I63     -0.194000
     25 O1         -0.8340    1.1530   -1.9560 os        1 I63     -0.269000
     26 C1          0.3200    1.8540   -1.3820 c1        1 I63      0.284000
     27 O2          0.2310    2.3740   -0.2990 o         1 I63     -0.365000
     28 C2          1.6620    1.8050   -2.0900 c2        1 I63      0.037000
     29 N7          2.6680    2.6530   -1.4130 n         1 I63     -0.306000
     30 C6          4.0180    2.5660   -1.9790 c3        1 I63     -0.026000
     31 C5          4.5060    1.1930   -2.0810 c3        1 I63     -0.171000
     32 C4          3.5640    0.3000   -2.7590 c3        1 I63     -0.157000
     33 C3          2.2050    0.3610   -2.1810 c3        1 I63     -0.159000
     34 C8          2.3440    3.5260   -0.2580 c2        1 I63      0.275000
     35 O3          1.2250    3.5660    0.1690 o         1 I63     -0.345000
     36 C9          3.4230    4.5080    0.2930 c2        1 I63      0.233000
     37 O4          3.8970    5.3680   -0.4400 o         1 I63     -0.266000
     38 C10         3.8040    4.4780    1.7940 c3        1 I63     -0.081000
     39 C13         2.6910    5.1880    2.6170 c3        1 I63     -0.214000
     40 C14         3.9370    3.0300    2.2590 c3        1 I63     -0.214000
     41 C11         5.1420    5.2040    1.9950 c3        1 I63     -0.150000
     42 C12         5.6630    4.9370    3.3970 c3        1 I63     -0.209000
     43 H2         -6.2690   -1.0950    1.2420 h4        1 I63      0.065500
     44 H3         -7.5380   -0.3450    0.6010 h4        1 I63      0.065500
     45 H4         -3.4260    0.5680    0.9190 ha        1 I63      0.148000
     46 H5         -6.7740    1.0620   -1.4170 ha        1 I63      0.142000
     47 H6         -5.4400    1.0270   -3.3590 ha        1 I63      0.124500
     48 H7         -3.0750    0.7450   -3.1840 ha        1 I63      0.124500
     49 H8         -1.2570    0.5590   -0.1190 h1        1 I63      0.125000
     50 H9         -2.1600   -1.5760   -1.4170 hc        1 I63      0.100000
     51 H10        -0.7650   -1.2010   -2.1090 hc        1 I63      0.100000
     52 H11        -0.9310   -1.4160    0.7150 hc        1 I63      0.090500
     53 H12         0.3900   -1.4960   -0.1700 hc        1 I63      0.090500
     54 H13         0.4100   -3.5040   -1.9150 ha        1 I63      0.122000
     55 H14         0.3870   -5.8890   -1.9100 ha        1 I63      0.133000
     56 H15        -2.2290   -7.7320   -1.0990 h1        1 I63      0.093333
     57 H16        -0.8860   -8.0510   -1.9360 h1        1 I63      0.093333
     58 H17        -1.4270   -9.1000   -0.8320 h1        1 I63      0.093333
     59 H18        -3.4090   -6.8070    2.8780 h1        1 I63      0.093333
     60 H19        -3.3920   -6.7720    1.2670 h1        1 I63      0.093333
     61 H20        -3.6090   -5.4130    2.0850 h1        1 I63      0.093333
     62 H21        -1.3150   -3.6020    1.7960 ha        1 I63      0.165000
     63 H22         1.4270    2.1580   -2.9740 h4        1 I63      0.157000
     64 H23         4.6320    3.0770   -1.4110 h1        1 I63      0.088500
     65 H24         4.0100    2.9670   -2.8840 h1        1 I63      0.088500
     66 H25         5.3550    1.1960   -2.5820 hc        1 I63      0.099500
     67 H26         4.6730    0.8530   -1.1860 hc        1 I63      0.099500
     68 H27         3.8900   -0.6010   -2.6900 hc        1 I63      0.086000
     69 H28         3.5180    0.5450   -3.6910 hc        1 I63      0.086000
     70 H29         2.2220   -0.0350   -1.2760 hc        1 I63      0.106500
     71 H30         1.6130   -0.1560   -2.7310 hc        1 I63      0.106500
     72 H31         2.3540    5.9680    2.1130 hc        1 I63      0.091833
     73 H32         1.9550    4.5590    2.7760 hc        1 I63      0.091833
     74 H33         3.0680    5.4960    3.5030 hc        1 I63      0.091833
     75 H34         3.8620    2.9920    3.2250 hc        1 I63      0.091833
     76 H35         4.8080    2.6770    1.9860 hc        1 I63      0.091833
     77 H36         3.2190    2.4870    1.8520 hc        1 I63      0.091833
     78 H37         5.7920    4.8750    1.3410 hc        1 I63      0.088500
     79 H38         5.0090    6.1910    1.8680 hc        1 I63      0.088500
     80 H39         5.0910    5.3920    4.0510 hc        1 I63      0.074667
     81 H40         6.5730    5.2740    3.4710 hc        1 I63      0.074667
     82 H41         5.6560    3.9710    3.5710 hc        1 I63      0.074667
@<TRIPOS>BOND
     1    1    2 1   
     2    2    3 1   
     3    4    5 1   
     4    4   43 1   
     5    4   44 1   
     6    5    6 1   
     7    6    7 1   
     8    6    8 1   
     9    7   11 1   
    10    7   45 1   
    11    8   46 1   
    12    9   10 1   
    13    9   47 1   
    14   10   48 1   
    15   11   12 1   
    16   12   13 1   
    17   12   25 1   
    18   12   49 1   
    19   13   14 1   
    20   13   50 1   
    21   13   51 1   
    22   14   15 1   
    23   14   52 1   
    24   14   53 1   
    25   15   16 1   
    26   15   24 1   
    27   16   17 1   
    28   16   54 1   
    29   17   55 1   
    30   18   19 1   
    31   18   21 1   
    32   19   20 1   
    33   20   56 1   
    34   20   57 1   
    35   20   58 1   
    36   21   22 1   
    37   22   23 1   
    38   23   59 1   
    39   23   60 1   
    40   23   61 1   
    41   24   62 1   
    42   25   26 1   
    43   26   27 1   
    44   28   29 1   
    45   28   33 1   
    46   28   63 1   
    47   29   30 1   
    48   29   34 1   
    49   30   31 1   
    50   30   64 1   
    51   30   65 1   
    52   31   32 1   
    53   31   66 1   
    54   31   67 1   
    55   32   33 1   
    56   32   68 1   
    57   32   69 1   
    58   33   70 1   
    59   33   71 1   
    60   34   35 1   
    61   34   36 1   
    62   36   37 1   
    63   36   38 1   
    64   38   39 1   
    65   38   40 1   
    66   38   41 1   
    67   39   72 1   
    68   39   73 1   
    69   39   74 1   
    70   40   75 1   
    71   40   76 1   
    72   40   77 1   
    73   41   42 1   
    74   41   78 1   
    75   41   79 1   
    76   42   80 1   
    77   42   81 1   
    78   42   82 1   
@<TRIPOS>SUBSTRUCTURE
     1 I63         1 TEMP              0 ****  ****    0 ROOT
