@<TRIPOS>MOLECULE
I63
   82    84     1     0     0
SMALL
bcc


@<TRIPOS>ATOM
      1 O42         5.9450   -2.5760    0.7800 o         1 I63     -0.825800
      2 C40         5.4090   -3.6440    0.3740 c         1 I63      0.927600
      3 O41         5.9880   -4.5450   -0.2870 o         1 I63     -0.825800
      4 C39         3.9340   -3.9140    0.7750 c3        1 I63     -0.008600
      5 O38         3.1320   -2.9140    0.1350 os        1 I63     -0.293900
      6 C26         1.8010   -2.9080    0.4570 ca        1 I63      0.158100
      7 C25         1.0440   -1.8820   -0.1470 ca        1 I63     -0.161000
      8 C27         1.1760   -3.8230    1.3190 ca        1 I63     -0.208000
      9 C28        -0.1850   -3.6900    1.5820 ca        1 I63     -0.101000
     10 C29        -0.9330   -2.6680    1.0020 ca        1 I63     -0.177000
     11 C24        -0.3180   -1.7640    0.1280 ca        1 I63     -0.079300
     12 C15        -1.0710   -0.6540   -0.5460 c3        1 I63      0.192400
     13 C16        -2.5810   -0.7050   -0.3430 c3        1 I63     -0.079400
     14 C17        -3.2840    0.3130   -1.2230 c3        1 I63     -0.038100
     15 C18        -4.7450    0.3690   -0.9480 ca        1 I63     -0.067300
     16 C23        -5.6670   -0.0900   -1.8880 ca        1 I63     -0.129000
     17 C22        -7.0390   -0.0250   -1.6350 ca        1 I63     -0.178000
     18 C21        -7.5000    0.5020   -0.4290 ca        1 I63      0.091100
     19 O34        -8.8310    0.6220   -0.0740 os        1 I63     -0.306900
     20 C35        -9.7680    0.1020   -1.0080 c3        1 I63      0.112700
     21 C20        -6.5670    0.9720    0.5340 ca        1 I63      0.102100
     22 O36        -7.1190    1.4840    1.6930 os        1 I63     -0.309900
     23 C37        -6.1920    1.8730    2.7000 c3        1 I63      0.110700
     24 C19        -5.2010    0.9030    0.2670 ca        1 I63     -0.176000
     25 O1         -0.6350    0.6050    0.0280 os        1 I63     -0.434900
     26 C1          0.2790    1.3490   -0.6550 c         1 I63      0.616100
     27 O2          0.5990    1.0220   -1.7990 o         1 I63     -0.546000
     28 C2          0.7420    2.5600    0.1680 c3        1 I63      0.070700
     29 N7          2.1720    2.7300    0.1090 n         1 I63     -0.465800
     30 C6          2.7600    3.2770   -1.0950 c3        1 I63      0.091000
     31 C5          1.7410    3.9170   -2.0370 c3        1 I63     -0.094400
     32 C4          0.6920    4.6840   -1.2640 c3        1 I63     -0.073400
     33 C3         -0.0630    3.7870   -0.3050 c3        1 I63     -0.078400
     34 C8          2.9770    2.3160    1.1650 c         1 I63      0.583100
     35 O3          2.4830    1.9320    2.2410 o         1 I63     -0.583100
     36 C9          4.4940    2.3930    0.9830 c         1 I63      0.531100
     37 O4          5.0430    3.4940    1.0410 o         1 I63     -0.529100
     38 C10         5.2070    1.0650    0.8070 c3        1 I63     -0.113000
     39 C13         5.3550    0.4280    2.1850 c3        1 I63     -0.110600
     40 C14         4.3870    0.1420   -0.0820 c3        1 I63     -0.110600
     41 C11         6.5800    1.3260    0.1780 c3        1 I63     -0.060400
     42 C12         7.5150    0.1490    0.2730 c3        1 I63     -0.109100
     43 H2          3.6070   -4.9260    0.4260 h1        1 I63      0.026200
     44 H3          3.8290   -3.8300    1.8860 h1        1 I63      0.026200
     45 H4          1.5450   -1.1740   -0.8260 ha        1 I63      0.157000
     46 H5          1.7520   -4.6330    1.7860 ha        1 I63      0.142000
     47 H6         -0.6750   -4.4020    2.2620 ha        1 I63      0.117000
     48 H7         -2.0000   -2.5770    1.2450 ha        1 I63      0.119000
     49 H8         -0.8350   -0.6660   -1.6490 h1        1 I63      0.082700
     50 H9         -2.9370   -1.7370   -0.5960 hc        1 I63      0.059700
     51 H10        -2.8220   -0.5020    0.7330 hc        1 I63      0.059700
     52 H11        -2.8320    1.3260   -1.0390 hc        1 I63      0.052700
     53 H12        -3.1040    0.0610   -2.3030 hc        1 I63      0.052700
     54 H13        -5.3160   -0.5100   -2.8420 ha        1 I63      0.135000
     55 H14        -7.7450   -0.3930   -2.3910 ha        1 I63      0.135000
     56 H15       -10.7550    0.2750   -0.5100 h1        1 I63      0.040033
     57 H16        -9.7130    0.6580   -1.9760 h1        1 I63      0.040033
     58 H17        -9.5990   -0.9900   -1.1770 h1        1 I63      0.040033
     59 H18        -6.8500    2.2030    3.5430 h1        1 I63      0.043700
     60 H19        -5.5550    1.0100    3.0110 h1        1 I63      0.043700
     61 H20        -5.5560    2.7200    2.3440 h1        1 I63      0.043700
     62 H21        -4.4650    1.2610    1.0020 ha        1 I63      0.147000
     63 H22         0.4610    2.3420    1.2480 h1        1 I63      0.118700
     64 H23         3.5200    4.0550   -0.7900 h1        1 I63      0.056200
     65 H24         3.3010    2.4540   -1.6490 h1        1 I63      0.056200
     66 H25         2.2880    4.6010   -2.7330 hc        1 I63      0.060700
     67 H26         1.2480    3.1160   -2.6510 hc        1 I63      0.060700
     68 H27         1.1890    5.5110   -0.6900 hc        1 I63      0.041700
     69 H28        -0.0300    5.1610   -1.9770 hc        1 I63      0.041700
     70 H29        -1.0090    3.4210   -0.7850 hc        1 I63      0.049700
     71 H30        -0.3570    4.3800    0.6010 hc        1 I63      0.049700
     72 H31         4.3710    0.4200    2.7130 hc        1 I63      0.062533
     73 H32         5.7060   -0.6310    2.0560 hc        1 I63      0.062533
     74 H33         6.0960    0.9940    2.7970 hc        1 I63      0.062533
     75 H34         4.3240    0.5440   -1.1210 hc        1 I63      0.062533
     76 H35         4.8630   -0.8780   -0.1070 hc        1 I63      0.062533
     77 H36         3.3540    0.0130    0.3250 hc        1 I63      0.062533
     78 H37         6.4270    1.5990   -0.9000 hc        1 I63      0.030200
     79 H38         7.0460    2.2150    0.6830 hc        1 I63      0.030200
     80 H39         7.0100   -0.8070   -0.0260 hc        1 I63      0.051700
     81 H40         8.3990    0.3160   -0.3890 hc        1 I63      0.051700
     82 H41         7.8800    0.0220    1.3210 hc        1 I63      0.051700
@<TRIPOS>BOND
     1    1    2 1   
     2    2    3 1   
     3    2    4 1   
     4    4    5 1   
     5    4   43 1   
     6    4   44 1   
     7    5    6 1   
     8    6    7 ar  
     9    6    8 ar  
    10    7   11 ar  
    11    7   45 1   
    12    8    9 ar  
    13    8   46 1   
    14    9   10 ar  
    15    9   47 1   
    16   10   11 ar  
    17   10   48 1   
    18   11   12 1   
    19   12   13 1   
    20   12   25 1   
    21   12   49 1   
    22   13   14 1   
    23   13   50 1   
    24   13   51 1   
    25   14   15 1   
    26   14   52 1   
    27   14   53 1   
    28   15   16 ar  
    29   15   24 ar  
    30   16   17 ar  
    31   16   54 1   
    32   17   18 ar  
    33   17   55 1   
    34   18   19 1   
    35   18   21 ar  
    36   19   20 1   
    37   20   56 1   
    38   20   57 1   
    39   20   58 1   
    40   21   22 1   
    41   21   24 ar  
    42   22   23 1   
    43   23   59 1   
    44   23   60 1   
    45   23   61 1   
    46   24   62 1   
    47   25   26 1   
    48   26   27 2   
    49   26   28 1   
    50   28   29 1   
    51   28   33 1   
    52   28   63 1   
    53   29   30 1   
    54   29   34 1   
    55   30   31 1   
    56   30   64 1   
    57   30   65 1   
    58   31   32 1   
    59   31   66 1   
    60   31   67 1   
    61   32   33 1   
    62   32   68 1   
    63   32   69 1   
    64   33   70 1   
    65   33   71 1   
    66   34   35 2   
    67   34   36 1   
    68   36   37 2   
    69   36   38 1   
    70   38   39 1   
    71   38   40 1   
    72   38   41 1   
    73   39   72 1   
    74   39   73 1   
    75   39   74 1   
    76   40   75 1   
    77   40   76 1   
    78   40   77 1   
    79   41   42 1   
    80   41   78 1   
    81   41   79 1   
    82   42   80 1   
    83   42   81 1   
    84   42   82 1   
@<TRIPOS>SUBSTRUCTURE
     1 I63         1 TEMP              0 ****  ****    0 ROOT
