@<TRIPOS>MOLECULE
I63
   82    84     1     0     0
SMALL
bcc


@<TRIPOS>ATOM
      1 O42         1.6490    3.6930   -2.9480 o         1 I63     -0.825800
      2 C40         1.2280    2.7580   -2.2130 c         1 I63      0.927600
      3 O41         0.3370    2.8670   -1.3320 o         1 I63     -0.825800
      4 C39         1.7960    1.3330   -2.4500 c3        1 I63     -0.008600
      5 O38         3.2120    1.4030   -2.2420 os        1 I63     -0.294900
      6 C26         3.9290    0.2810   -2.5620 ca        1 I63      0.156100
      7 C25         5.3280    0.4150   -2.4390 ca        1 I63     -0.157000
      8 C27         3.3760   -0.9380   -2.9850 ca        1 I63     -0.208000
      9 C28         4.2240   -1.9960   -3.3000 ca        1 I63     -0.101000
     10 C29         5.6070   -1.8640   -3.1990 ca        1 I63     -0.175000
     11 C24         6.1610   -0.6570   -2.7570 ca        1 I63     -0.071300
     12 C15         7.6410   -0.4560   -2.6080 c3        1 I63      0.191400
     13 C16         8.4630   -1.7360   -2.7040 c3        1 I63     -0.087400
     14 C17         9.8860   -1.5060   -2.2280 c3        1 I63     -0.040100
     15 C18        10.7680   -2.6670   -2.5250 ca        1 I63     -0.064300
     16 C23        11.2870   -3.4490   -1.4940 ca        1 I63     -0.129000
     17 C22        12.1270   -4.5300   -1.7710 ca        1 I63     -0.178000
     18 C21        12.4540   -4.8390   -3.0900 ca        1 I63      0.090100
     19 O34        13.2770   -5.8790   -3.4810 os        1 I63     -0.307900
     20 C35        13.7710   -6.7020   -2.4320 c3        1 I63      0.112700
     21 C20        11.9290   -4.0460   -4.1460 ca        1 I63      0.102100
     22 O36        12.3160   -4.4230   -5.4180 os        1 I63     -0.310900
     23 C37        11.7250   -3.6930   -6.4870 c3        1 I63      0.110700
     24 C19        11.0940   -2.9690   -3.8560 ca        1 I63     -0.176000
     25 O1          8.0500    0.4110   -3.6980 os        1 I63     -0.421900
     26 C1          8.7000    1.5670   -3.4020 c         1 I63      0.629100
     27 O2          9.1170    1.7690   -2.2600 o         1 I63     -0.557000
     28 C2          8.8430    2.4820   -4.6230 c3        1 I63      0.051700
     29 N7          7.9690    3.6320   -4.4660 n         1 I63     -0.445800
     30 C6          8.5940    4.7560   -3.8040 c3        1 I63      0.080000
     31 C5          9.8210    5.3040   -4.5420 c3        1 I63     -0.106400
     32 C4         10.5230    4.2320   -5.3540 c3        1 I63     -0.073400
     33 C3         10.3340    2.8560   -4.7520 c3        1 I63     -0.095400
     34 C8          6.8910    3.8030   -5.3380 c         1 I63      0.574100
     35 O3          6.5750    2.9260   -6.1610 o         1 I63     -0.573100
     36 C9          6.0820    5.0970   -5.2360 c         1 I63      0.532100
     37 O4          6.5200    6.1060   -5.7920 o         1 I63     -0.532100
     38 C10         4.7570    5.0060   -4.5020 c3        1 I63     -0.113000
     39 C13         3.7200    4.4710   -5.4840 c3        1 I63     -0.110100
     40 C14         4.8710    4.0450   -3.3290 c3        1 I63     -0.110100
     41 C11         4.3760    6.4060   -4.0100 c3        1 I63     -0.061400
     42 C12         2.9360    6.5210   -3.5850 c3        1 I63     -0.108100
     43 H2          1.5800    1.0180   -3.5020 h1        1 I63      0.026200
     44 H3          1.3550    0.6020   -1.7260 h1        1 I63      0.026200
     45 H4          5.7420    1.3780   -2.1060 ha        1 I63      0.151000
     46 H5          2.2870   -1.0560   -3.0730 ha        1 I63      0.142000
     47 H6          3.7940   -2.9490   -3.6410 ha        1 I63      0.117000
     48 H7          6.2530   -2.7080   -3.4770 ha        1 I63      0.120000
     49 H8          7.8480    0.0540   -1.6220 h1        1 I63      0.084700
     50 H9          8.4690   -2.0950   -3.7660 hc        1 I63      0.059200
     51 H10         7.9760   -2.5230   -2.0720 hc        1 I63      0.059200
     52 H11        10.2940   -0.5860   -2.7320 hc        1 I63      0.056200
     53 H12         9.8790   -1.2960   -1.1250 hc        1 I63      0.056200
     54 H13        11.0350   -3.2180   -0.4480 ha        1 I63      0.135000
     55 H14        12.5230   -5.1320   -0.9410 ha        1 I63      0.134000
     56 H15        12.9320   -7.1840   -1.8740 h1        1 I63      0.039700
     57 H16        14.3800   -7.4710   -2.9710 h1        1 I63      0.039700
     58 H17        14.4140   -6.1110   -1.7340 h1        1 I63      0.039700
     59 H18        12.1360   -4.1920   -7.4000 h1        1 I63      0.043367
     60 H19        12.0360   -2.6200   -6.4510 h1        1 I63      0.043367
     61 H20        10.6110   -3.7770   -6.4590 h1        1 I63      0.043367
     62 H21        10.6800   -2.3460   -4.6620 ha        1 I63      0.146000
     63 H22         8.5150    1.8960   -5.5370 h1        1 I63      0.115700
     64 H23         7.8390    5.5790   -3.6620 h1        1 I63      0.069200
     65 H24         8.9120    4.3930   -2.7820 h1        1 I63      0.069200
     66 H25        10.5210    5.7330   -3.7790 hc        1 I63      0.050200
     67 H26         9.5080    6.1390   -5.2220 hc        1 I63      0.050200
     68 H27        11.6190    4.4600   -5.4150 hc        1 I63      0.044200
     69 H28        10.1240    4.2350   -6.4030 hc        1 I63      0.044200
     70 H29        10.8350    2.0850   -5.3900 hc        1 I63      0.056700
     71 H30        10.8130    2.8310   -3.7370 hc        1 I63      0.056700
     72 H31         4.1010    3.5450   -5.9790 hc        1 I63      0.062700
     73 H32         2.7840    4.2180   -4.9150 hc        1 I63      0.062700
     74 H33         3.4880    5.2360   -6.2610 hc        1 I63      0.062700
     75 H34         5.2000    3.0350   -3.6750 hc        1 I63      0.062700
     76 H35         3.8610    3.9170   -2.8480 hc        1 I63      0.062700
     77 H36         5.5980    4.4280   -2.5740 hc        1 I63      0.062700
     78 H37         4.5820    7.1460   -4.8310 hc        1 I63      0.029700
     79 H38         5.0460    6.6700   -3.1490 hc        1 I63      0.029700
     80 H39         2.7790    7.4860   -3.0450 hc        1 I63      0.052033
     81 H40         2.2610    6.5010   -4.4750 hc        1 I63      0.052033
     82 H41         2.6330    5.6740   -2.9150 hc        1 I63      0.052033
@<TRIPOS>BOND
     1    1    2 1   
     2    2    3 1   
     3    2    4 1   
     4    4    5 1   
     5    4   43 1   
     6    4   44 1   
     7    5    6 1   
     8    6    7 ar  
     9    6    8 ar  
    10    7   11 ar  
    11    7   45 1   
    12    8    9 ar  
    13    8   46 1   
    14    9   10 ar  
    15    9   47 1   
    16   10   11 ar  
    17   10   48 1   
    18   11   12 1   
    19   12   13 1   
    20   12   25 1   
    21   12   49 1   
    22   13   14 1   
    23   13   50 1   
    24   13   51 1   
    25   14   15 1   
    26   14   52 1   
    27   14   53 1   
    28   15   16 ar  
    29   15   24 ar  
    30   16   17 ar  
    31   16   54 1   
    32   17   18 ar  
    33   17   55 1   
    34   18   19 1   
    35   18   21 ar  
    36   19   20 1   
    37   20   56 1   
    38   20   57 1   
    39   20   58 1   
    40   21   22 1   
    41   21   24 ar  
    42   22   23 1   
    43   23   59 1   
    44   23   60 1   
    45   23   61 1   
    46   24   62 1   
    47   25   26 1   
    48   26   27 2   
    49   26   28 1   
    50   28   29 1   
    51   28   33 1   
    52   28   63 1   
    53   29   30 1   
    54   29   34 1   
    55   30   31 1   
    56   30   64 1   
    57   30   65 1   
    58   31   32 1   
    59   31   66 1   
    60   31   67 1   
    61   32   33 1   
    62   32   68 1   
    63   32   69 1   
    64   33   70 1   
    65   33   71 1   
    66   34   35 2   
    67   34   36 1   
    68   36   37 2   
    69   36   38 1   
    70   38   39 1   
    71   38   40 1   
    72   38   41 1   
    73   39   72 1   
    74   39   73 1   
    75   39   74 1   
    76   40   75 1   
    77   40   76 1   
    78   40   77 1   
    79   41   42 1   
    80   41   78 1   
    81   41   79 1   
    82   42   80 1   
    83   42   81 1   
    84   42   82 1   
@<TRIPOS>SUBSTRUCTURE
     1 I63         1 TEMP              0 ****  ****    0 ROOT
