@<TRIPOS>MOLECULE
I63
   82    84     1     0     0
SMALL
bcc


@<TRIPOS>ATOM
      1 O42         1.6260    3.6510   -2.9610 o         1 I63     -0.825800
      2 C40         1.3570    2.7600   -2.1090 c         1 I63      0.927600
      3 O41         0.6030    2.9070   -1.1130 o         1 I63     -0.825800
      4 C39         1.9420    1.3390   -2.3350 c3        1 I63     -0.008600
      5 O38         3.3660    1.4450   -2.2190 os        1 I63     -0.293900
      6 C26         4.0820    0.3120   -2.5020 ca        1 I63      0.158100
      7 C25         5.4830    0.4580   -2.4290 ca        1 I63     -0.161000
      8 C27         3.5240   -0.9280   -2.8480 ca        1 I63     -0.208000
      9 C28         4.3680   -1.9980   -3.1350 ca        1 I63     -0.101000
     10 C29         5.7530   -1.8550   -3.0830 ca        1 I63     -0.177000
     11 C24         6.3130   -0.6250   -2.7210 ca        1 I63     -0.079300
     12 C15         7.7960   -0.4100   -2.6250 c3        1 I63      0.192400
     13 C16         8.6270   -1.6800   -2.7750 c3        1 I63     -0.079400
     14 C17        10.0860   -1.4190   -2.4530 c3        1 I63     -0.038100
     15 C18        10.9350   -2.6130   -2.7160 ca        1 I63     -0.067300
     16 C23        11.5200   -3.3180   -1.6660 ca        1 I63     -0.129000
     17 C22        12.3270   -4.4300   -1.9140 ca        1 I63     -0.178000
     18 C21        12.5540   -4.8480   -3.2250 ca        1 I63      0.091100
     19 O34        13.3380   -5.9270   -3.5890 os        1 I63     -0.306900
     20 C35        13.8870   -6.6800   -2.5150 c3        1 I63      0.112700
     21 C20        11.9610   -4.1340   -4.3010 ca        1 I63      0.102100
     22 O36        12.2500   -4.6170   -5.5630 os        1 I63     -0.309900
     23 C37        11.5890   -3.9650   -6.6410 c3        1 I63      0.110700
     24 C19        11.1600   -3.0250   -4.0380 ca        1 I63     -0.176000
     25 O1          8.2010    0.4600   -3.7130 os        1 I63     -0.434900
     26 C1          8.3970    1.7820   -3.4490 c         1 I63      0.616100
     27 O2          8.3770    2.1810   -2.2840 o         1 I63     -0.546000
     28 C2          8.6630    2.5750   -4.7370 c3        1 I63      0.070700
     29 N7          7.9150    3.8070   -4.7680 n         1 I63     -0.465800
     30 C6          8.3600    4.9150   -3.9500 c3        1 I63      0.091000
     31 C5          9.7750    4.7380   -3.4000 c3        1 I63     -0.094400
     32 C4         10.6870    4.1170   -4.4330 c3        1 I63     -0.073400
     33 C3         10.1880    2.7550   -4.8720 c3        1 I63     -0.078400
     34 C8          6.7510    3.9070   -5.5240 c         1 I63      0.583100
     35 O3          6.4070    2.9990   -6.3020 o         1 I63     -0.583100
     36 C9          5.9270    5.1910   -5.4030 c         1 I63      0.531100
     37 O4          6.3360    6.2110   -5.9600 o         1 I63     -0.529100
     38 C10         4.6190    5.0700   -4.6440 c3        1 I63     -0.113000
     39 C13         3.5930    4.4400   -5.5800 c3        1 I63     -0.110600
     40 C14         4.8000    4.1740   -3.4280 c3        1 I63     -0.110600
     41 C11         4.1730    6.4700   -4.2100 c3        1 I63     -0.060400
     42 C12         2.7360    6.5280   -3.7620 c3        1 I63     -0.109100
     43 H2          1.6710    0.9840   -3.3620 h1        1 I63      0.026200
     44 H3          1.5620    0.6260   -1.5610 h1        1 I63      0.026200
     45 H4          5.9090    1.4350   -2.1510 ha        1 I63      0.157000
     46 H5          2.4340   -1.0570   -2.8960 ha        1 I63      0.142000
     47 H6          3.9330   -2.9690   -3.4130 ha        1 I63      0.117000
     48 H7          6.3930   -2.7110   -3.3350 ha        1 I63      0.119000
     49 H8          8.0340    0.0850   -1.6390 h1        1 I63      0.082700
     50 H9          8.2160   -2.4550   -2.0770 hc        1 I63      0.059700
     51 H10         8.5350   -2.0670   -3.8230 hc        1 I63      0.059700
     52 H11        10.4490   -0.5590   -3.0820 hc        1 I63      0.052700
     53 H12        10.1820   -1.1060   -1.3790 hc        1 I63      0.052700
     54 H13        11.3470   -3.0010   -0.6270 ha        1 I63      0.135000
     55 H14        12.7770   -4.9700   -1.0690 ha        1 I63      0.135000
     56 H15        14.4440   -7.5020   -3.0330 h1        1 I63      0.040033
     57 H16        14.5860   -6.0540   -1.9090 h1        1 I63      0.040033
     58 H17        13.0790   -7.1000   -1.8680 h1        1 I63      0.040033
     59 H18        11.9120   -2.8980   -6.7140 h1        1 I63      0.043700
     60 H19        10.4790   -4.0310   -6.5270 h1        1 I63      0.043700
     61 H20        11.9280   -4.5420   -7.5380 h1        1 I63      0.043700
     62 H21        10.6920   -2.4620   -4.8600 ha        1 I63      0.147000
     63 H22         8.3020    1.9250   -5.5960 h1        1 I63      0.118700
     64 H23         7.6460    5.0440   -3.0840 h1        1 I63      0.056200
     65 H24         8.3230    5.8510   -4.5800 h1        1 I63      0.056200
     66 H25        10.1610    5.7440   -3.0950 hc        1 I63      0.060700
     67 H26         9.7390    4.0880   -2.4850 hc        1 I63      0.060700
     68 H27        10.7530    4.7970   -5.3230 hc        1 I63      0.041700
     69 H28        11.7220    4.0180   -4.0130 hc        1 I63      0.041700
     70 H29        10.4630    2.5920   -5.9470 hc        1 I63      0.049700
     71 H30        10.6900    1.9500   -4.2740 hc        1 I63      0.049700
     72 H31         2.6800    4.1680   -4.9830 hc        1 I63      0.062533
     73 H32         3.3100    5.1560   -6.3860 hc        1 I63      0.062533
     74 H33         4.0100    3.5120   -6.0410 hc        1 I63      0.062533
     75 H34         3.8000    3.9920   -2.9420 hc        1 I63      0.062533
     76 H35         5.2060    3.1760   -3.7250 hc        1 I63      0.062533
     77 H36         5.4890    4.6430   -2.6870 hc        1 I63      0.062533
     78 H37         4.3250    7.1790   -5.0670 hc        1 I63      0.030200
     79 H38         4.8420    6.8100   -3.3750 hc        1 I63      0.030200
     80 H39         2.0480    6.4430   -4.6380 hc        1 I63      0.051700
     81 H40         2.5390    7.5020   -3.2530 hc        1 I63      0.051700
     82 H41         2.4870    5.6910   -3.0570 hc        1 I63      0.051700
@<TRIPOS>BOND
     1    1    2 1   
     2    2    3 1   
     3    2    4 1   
     4    4    5 1   
     5    4   43 1   
     6    4   44 1   
     7    5    6 1   
     8    6    7 ar  
     9    6    8 ar  
    10    7   11 ar  
    11    7   45 1   
    12    8    9 ar  
    13    8   46 1   
    14    9   10 ar  
    15    9   47 1   
    16   10   11 ar  
    17   10   48 1   
    18   11   12 1   
    19   12   13 1   
    20   12   25 1   
    21   12   49 1   
    22   13   14 1   
    23   13   50 1   
    24   13   51 1   
    25   14   15 1   
    26   14   52 1   
    27   14   53 1   
    28   15   16 ar  
    29   15   24 ar  
    30   16   17 ar  
    31   16   54 1   
    32   17   18 ar  
    33   17   55 1   
    34   18   19 1   
    35   18   21 ar  
    36   19   20 1   
    37   20   56 1   
    38   20   57 1   
    39   20   58 1   
    40   21   22 1   
    41   21   24 ar  
    42   22   23 1   
    43   23   59 1   
    44   23   60 1   
    45   23   61 1   
    46   24   62 1   
    47   25   26 1   
    48   26   27 2   
    49   26   28 1   
    50   28   29 1   
    51   28   33 1   
    52   28   63 1   
    53   29   30 1   
    54   29   34 1   
    55   30   31 1   
    56   30   64 1   
    57   30   65 1   
    58   31   32 1   
    59   31   66 1   
    60   31   67 1   
    61   32   33 1   
    62   32   68 1   
    63   32   69 1   
    64   33   70 1   
    65   33   71 1   
    66   34   35 2   
    67   34   36 1   
    68   36   37 2   
    69   36   38 1   
    70   38   39 1   
    71   38   40 1   
    72   38   41 1   
    73   39   72 1   
    74   39   73 1   
    75   39   74 1   
    76   40   75 1   
    77   40   76 1   
    78   40   77 1   
    79   41   42 1   
    80   41   78 1   
    81   41   79 1   
    82   42   80 1   
    83   42   81 1   
    84   42   82 1   
@<TRIPOS>SUBSTRUCTURE
     1 I63         1 TEMP              0 ****  ****    0 ROOT
