@<TRIPOS>MOLECULE
I6X
   62    66     1     0     0
SMALL
bcc


@<TRIPOS>ATOM
      1 C1         -0.2830   -0.5820    0.0700 c3        1 I6X     -0.113100
      2 C2          1.2180   -0.3700   -0.0440 c3        1 I6X      0.067000
      3 N3          1.9140   -0.2760    1.2300 n         1 I6X     -0.338000
      4 C4          2.0640   -1.4060    1.9950 cc        1 I6X      0.048600
      5 C5          2.7230   -1.3990    3.2050 cd        1 I6X     -0.221200
      6 C6          3.2800   -0.1640    3.6790 cd        1 I6X     -0.060000
      7 C7          3.1420    0.9790    2.9590 cc        1 I6X     -0.163400
      8 C8          2.4200    0.9770    1.6740 c         1 I6X      0.684700
      9 O9          2.2390    1.9860    0.9720 o         1 I6X     -0.598500
     10 C10         3.6930    2.2830    3.3850 c3        1 I6X     -0.052900
     11 C11         2.8920   -2.6130    4.0780 c3        1 I6X      0.310000
     12 C12         1.8700   -2.5580    5.2330 ca        1 I6X     -0.040300
     13 C13         1.6090   -1.5970    6.1920 ca        1 I6X     -0.096000
     14 C14         0.5710   -1.8290    7.1090 ca        1 I6X     -0.057000
     15 C15        -0.1970   -2.9910    7.0740 ca        1 I6X     -0.140000
     16 C16         0.0570   -3.9720    6.0930 ca        1 I6X      0.162900
     17 C17         1.0880   -3.7460    5.1810 ca        1 I6X     -0.277900
     18 C18         1.6050   -4.5040    4.0220 ce        1 I6X      0.490800
     19 N19         2.5680   -3.9070    3.3620 n2        1 I6X     -0.483900
     20 N20         1.0590   -5.8240    3.6910 nz        1 I6X     -0.780600
     21 F21        -0.6810   -5.1070    6.0240 f         1 I6X     -0.144900
     22 C22         4.3250   -2.7220    4.5630 ca        1 I6X     -0.109300
     23 C23         4.6420   -2.7750    5.9230 ca        1 I6X     -0.122000
     24 C24         5.9760   -2.8760    6.3190 ca        1 I6X     -0.124000
     25 C25         6.9930   -2.9350    5.3700 ca        1 I6X     -0.095000
     26 C26         6.6850   -2.8920    4.0020 cp        1 I6X     -0.017000
     27 C27         5.3440   -2.7850    3.6060 ca        1 I6X     -0.086000
     28 C28         7.7420   -2.9550    3.0000 cp        1 I6X     -0.177300
     29 C29         8.8620   -3.7790    3.1740 ca        1 I6X     -0.067000
     30 C30         9.8530   -3.8080    2.1800 ca        1 I6X     -0.064300
     31 C31         9.6720   -2.9930    1.0340 ca        1 I6X      0.425200
     32 N32         8.6040   -2.1960    0.8570 nb        1 I6X     -0.656000
     33 C33         7.6660   -2.1790    1.8200 ca        1 I6X      0.409200
     34 C34        10.9920   -4.6150    2.3090 cg        1 I6X     -0.160000
     35 C35        11.9710   -5.3000    2.4140 c1        1 I6X     -0.069100
     36 C36        13.1370   -6.1100    2.5360 c3        1 I6X     -0.031000
     37 H11C       -0.7100   -0.6440   -0.9610 hc        1 I6X      0.048367
     38 H12C       -0.5210   -1.5280    0.6120 hc        1 I6X      0.048367
     39 H13C       -0.7710    0.2680    0.6040 hc        1 I6X      0.048367
     40 H21C        1.6720   -1.2200   -0.6290 h1        1 I6X      0.081200
     41 H22C        1.4110    0.5880   -0.6130 h1        1 I6X      0.081200
     42 H4          1.6230   -2.3210    1.5580 h4        1 I6X      0.145000
     43 H6          3.8330   -0.1690    4.6330 ha        1 I6X      0.148000
     44 H101        4.4250    2.6550    2.6230 hc        1 I6X      0.061367
     45 H102        2.8700    3.0400    3.4600 hc        1 I6X      0.061367
     46 H103        4.2070    2.2030    4.3730 hc        1 I6X      0.061367
     47 H13         2.1950   -0.6650    6.2340 ha        1 I6X      0.175000
     48 H14         0.3540   -1.0670    7.8780 ha        1 I6X      0.171000
     49 H15        -1.0080   -3.1550    7.8020 ha        1 I6X      0.179000
     50 H201        0.1310   -5.9120    4.1330 hn        1 I6X      0.478800
     51 H202        1.6850   -6.5500    4.0660 hn        1 I6X      0.478800
     52 H23         3.8540   -2.7280    6.6900 ha        1 I6X      0.135000
     53 H27         5.0930   -2.7460    2.5340 ha        1 I6X      0.152000
     54 H24         6.2250   -2.9050    7.3920 ha        1 I6X      0.149000
     55 H25         8.0440   -3.0070    5.6920 ha        1 I6X      0.154000
     56 H29         8.9650   -4.4020    4.0750 ha        1 I6X      0.147000
     57 H33         6.8120   -1.4990    1.6450 h4        1 I6X      0.025100
     58 H31        10.4260   -2.9830    0.2250 h4        1 I6X      0.041100
     59 H361       13.4240   -6.5370    1.5390 hc        1 I6X      0.065700
     60 H362       13.9970   -5.5030    2.9210 hc        1 I6X      0.065700
     61 H363       12.9550   -6.9580    3.2470 hc        1 I6X      0.065700
     62 H203        0.9760   -5.9460    2.6740 hn        1 I6X      0.478800
@<TRIPOS>BOND
     1    1    2 1   
     2    1   37 1   
     3    1   38 1   
     4    1   39 1   
     5    2    3 1   
     6    2   40 1   
     7    2   41 1   
     8    3    4 1   
     9    3    8 1   
    10    4    5 2   
    11    4   42 1   
    12    5    6 1   
    13    5   11 1   
    14    6    7 2   
    15    6   43 1   
    16    7    8 1   
    17    7   10 1   
    18    8    9 2   
    19   10   44 1   
    20   10   45 1   
    21   10   46 1   
    22   11   12 1   
    23   11   19 1   
    24   11   22 1   
    25   12   13 ar  
    26   12   17 ar  
    27   13   14 ar  
    28   13   47 1   
    29   14   15 ar  
    30   14   48 1   
    31   15   16 ar  
    32   15   49 1   
    33   16   17 ar  
    34   16   21 1   
    35   17   18 1   
    36   18   19 2   
    37   18   20 1   
    38   20   50 1   
    39   20   51 1   
    40   20   62 1   
    41   22   23 ar  
    42   22   27 ar  
    43   23   24 ar  
    44   23   52 1   
    45   24   25 ar  
    46   24   54 1   
    47   25   26 ar  
    48   25   55 1   
    49   26   27 ar  
    50   26   28 1   
    51   27   53 1   
    52   28   29 ar  
    53   28   33 ar  
    54   29   30 ar  
    55   29   56 1   
    56   30   31 ar  
    57   30   34 1   
    58   31   32 ar  
    59   31   58 1   
    60   32   33 ar  
    61   33   57 1   
    62   34   35 3   
    63   35   36 1   
    64   36   59 1   
    65   36   60 1   
    66   36   61 1   
@<TRIPOS>SUBSTRUCTURE
     1 I6X         1 TEMP              0 ****  ****    0 ROOT
