@<TRIPOS>MOLECULE
I6X
   62    66     1     0     0
SMALL
bcc


@<TRIPOS>ATOM
      1 C1         -0.1780   -0.5900    0.0990 c3        1 I6X     -0.113100
      2 C2          1.3250   -0.3870    0.0090 c3        1 I6X      0.067000
      3 N3          2.0040   -0.3120    1.2940 n         1 I6X     -0.338000
      4 C4          2.1350   -1.4510    2.0500 cc        1 I6X      0.048600
      5 C5          2.7760   -1.4620    3.2680 cd        1 I6X     -0.221200
      6 C6          3.3340   -0.2350    3.7640 cd        1 I6X     -0.060000
      7 C7          3.2150    0.9160    3.0540 cc        1 I6X     -0.163400
      8 C8          2.5110    0.9330    1.7590 c         1 I6X      0.684700
      9 O9          2.3480    1.9510    1.0650 o         1 I6X     -0.598500
     10 C10         3.7690    2.2120    3.5020 c3        1 I6X     -0.052900
     11 C11         2.9230   -2.6860    4.1310 c3        1 I6X      0.310000
     12 C12         1.8850   -2.6360    5.2710 ca        1 I6X     -0.040300
     13 C13         1.6170   -1.6840    6.2370 ca        1 I6X     -0.096000
     14 C14         0.5640   -1.9180    7.1360 ca        1 I6X     -0.057000
     15 C15        -0.2120   -3.0740    7.0770 ca        1 I6X     -0.140000
     16 C16         0.0500   -4.0460    6.0900 ca        1 I6X      0.162900
     17 C17         1.0960   -3.8180    5.1950 ca        1 I6X     -0.277900
     18 C18         1.6240   -4.5670    4.0360 ce        1 I6X      0.490800
     19 N19         2.6010   -3.9700    3.3960 n2        1 I6X     -0.483900
     20 N20         1.0740   -5.8800    3.6830 n4        1 I6X     -0.780600
     21 F21        -0.6950   -5.1750    5.9980 f         1 I6X     -0.144900
     22 C22         4.3490   -2.8100    4.6360 ca        1 I6X     -0.109300
     23 C23         4.6460   -2.8790    6.0000 ca        1 I6X     -0.122000
     24 C24         5.9720   -2.9940    6.4140 ca        1 I6X     -0.124000
     25 C25         7.0030   -3.0510    5.4790 ca        1 I6X     -0.095000
     26 C26         6.7150   -2.9920    4.1070 cp        1 I6X     -0.017000
     27 C27         5.3810   -2.8710    3.6930 ca        1 I6X     -0.086000
     28 C28         7.7860   -3.0520    3.1200 cp        1 I6X     -0.177300
     29 C29         8.8980   -3.8870    3.3020 ca        1 I6X     -0.067000
     30 C30         9.9030   -3.9130    2.3220 ca        1 I6X     -0.064300
     31 C31         9.7440   -3.0850    1.1810 ca        1 I6X      0.425200
     32 N32         8.6850   -2.2790    0.9980 nb        1 I6X     -0.656000
     33 C33         7.7330   -2.2640    1.9470 ca        1 I6X      0.409200
     34 C34        11.0340   -4.7300    2.4600 cg        1 I6X     -0.160000
     35 C35        12.0060   -5.4230    2.5720 c1        1 I6X     -0.069100
     36 C36        13.1640   -6.2430    2.7020 c3        1 I6X     -0.031000
     37 H11C       -0.4310   -1.5400    0.6280 hc        1 I6X      0.048367
     38 H12C       -0.5910   -0.6380   -0.9390 hc        1 I6X      0.048367
     39 H13C       -0.6680    0.2580    0.6350 hc        1 I6X      0.048367
     40 H21C        1.7820   -1.2340   -0.5790 h1        1 I6X      0.081200
     41 H22C        1.5330    0.5760   -0.5460 h1        1 I6X      0.081200
     42 H4          1.6940   -2.3580    1.5960 h4        1 I6X      0.145000
     43 H6          3.8740   -0.2550    4.7260 ha        1 I6X      0.148000
     44 H101        4.2680    2.1170    4.4960 hc        1 I6X      0.061367
     45 H102        2.9510    2.9730    3.5740 hc        1 I6X      0.061367
     46 H103        4.5140    2.5860    2.7550 hc        1 I6X      0.061367
     47 H13         2.2080   -0.7560    6.2980 ha        1 I6X      0.175000
     48 H14         0.3410   -1.1620    7.9100 ha        1 I6X      0.171000
     49 H15        -1.0340   -3.2390    7.7920 ha        1 I6X      0.179000
     50 H201        1.6890   -6.6130    4.0590 hn        1 I6X      0.478800
     51 H202        0.1390   -5.9650    4.1100 hn        1 I6X      0.478800
     52 H23         3.8470   -2.8340    6.7550 ha        1 I6X      0.135000
     53 H27         5.1460   -2.8200    2.6180 ha        1 I6X      0.152000
     54 H24         6.2060   -3.0360    7.4890 ha        1 I6X      0.149000
     55 H25         8.0490   -3.1340    5.8160 ha        1 I6X      0.154000
     56 H29         8.9830   -4.5190    4.1980 ha        1 I6X      0.147000
     57 H33         6.8870   -1.5770    1.7660 h4        1 I6X      0.025100
     58 H31        10.5100   -3.0730    0.3840 h4        1 I6X      0.041100
     59 H361       13.3720   -6.7840    1.7420 hc        1 I6X      0.066033
     60 H362       13.0200   -7.0030    3.5140 hc        1 I6X      0.066033
     61 H363       14.0600   -5.6180    2.9560 hc        1 I6X      0.066033
     62 H203        1.0050   -5.9900    2.6640 hn        1 I6X      0.478800
@<TRIPOS>BOND
     1    1    2 1   
     2    1   37 1   
     3    1   38 1   
     4    1   39 1   
     5    2    3 1   
     6    2   40 1   
     7    2   41 1   
     8    3    4 1   
     9    3    8 1   
    10    4    5 2   
    11    4   42 1   
    12    5    6 1   
    13    5   11 1   
    14    6    7 2   
    15    6   43 1   
    16    7    8 1   
    17    7   10 1   
    18    8    9 2   
    19   10   44 1   
    20   10   45 1   
    21   10   46 1   
    22   11   12 1   
    23   11   19 1   
    24   11   22 1   
    25   12   13 ar  
    26   12   17 ar  
    27   13   14 ar  
    28   13   47 1   
    29   14   15 ar  
    30   14   48 1   
    31   15   16 ar  
    32   15   49 1   
    33   16   17 ar  
    34   16   21 1   
    35   17   18 1   
    36   18   19 2   
    37   18   20 1   
    38   20   50 1   
    39   20   51 1   
    40   20   62 1   
    41   22   23 ar  
    42   22   27 ar  
    43   23   24 ar  
    44   23   52 1   
    45   24   25 ar  
    46   24   54 1   
    47   25   26 ar  
    48   25   55 1   
    49   26   27 ar  
    50   26   28 1   
    51   27   53 1   
    52   28   29 ar  
    53   28   33 ar  
    54   29   30 ar  
    55   29   56 1   
    56   30   31 ar  
    57   30   34 1   
    58   31   32 ar  
    59   31   58 1   
    60   32   33 ar  
    61   33   57 1   
    62   34   35 3   
    63   35   36 1   
    64   36   59 1   
    65   36   60 1   
    66   36   61 1   
@<TRIPOS>SUBSTRUCTURE
     1 I6X         1 TEMP              0 ****  ****    0 ROOT
