@<TRIPOS>MOLECULE
I6X
   61    65     1     0     0
SMALL
bcc


@<TRIPOS>ATOM
      1 C1          4.3160    3.4130    2.1390 c3        1 I6X     -0.114100
      2 C2          2.8540    3.6710    1.8130 c3        1 I6X      0.074000
      3 N3          2.3240    2.8610    0.7300 n         1 I6X     -0.340000
      4 C4          2.1230    1.5140    0.9420 cc        1 I6X      0.040600
      5 C5          1.6260    0.6790   -0.0330 cd        1 I6X     -0.191200
      6 C6          1.3070    1.2350   -1.3140 cd        1 I6X     -0.042000
      7 C7          1.5020    2.5580   -1.5660 cc        1 I6X     -0.197400
      8 C8          2.0440    3.4480   -0.5280 c         1 I6X      0.686700
      9 O9          2.2550    4.6660   -0.6960 o         1 I6X     -0.644500
     10 C10         1.1940    3.1910   -2.8650 c3        1 I6X     -0.039900
     11 C11         1.4150   -0.8020    0.1850 c3        1 I6X      0.293000
     12 C12         2.5770   -1.5630   -0.4830 ca        1 I6X     -0.057300
     13 C13         3.0590   -1.5620   -1.7780 ca        1 I6X     -0.123000
     14 C14         4.1740   -2.3590   -2.0800 ca        1 I6X     -0.090000
     15 C15         4.7940   -3.1390   -1.1120 ca        1 I6X     -0.169000
     16 C16         4.3120   -3.1350    0.2180 ca        1 I6X      0.165900
     17 C17         3.2110   -2.3380    0.5230 ca        1 I6X     -0.240900
     18 C18         2.4760   -2.0560    1.7980 ce        1 I6X      0.654800
     19 N19         1.4750   -1.1980    1.6270 n2        1 I6X     -0.651900
     20 N20         2.9080   -2.5890    3.0010 nh        1 I6X     -0.889800
     21 F21         4.9200   -3.8940    1.1590 f         1 I6X     -0.137900
     22 C22         0.0570   -1.2010   -0.3670 ca        1 I6X     -0.066300
     23 C23        -0.0880   -2.1210   -1.4070 ca        1 I6X     -0.124000
     24 C24        -1.3610   -2.4620   -1.8660 ca        1 I6X     -0.135000
     25 C25        -2.4950   -1.8970   -1.2900 ca        1 I6X     -0.114000
     26 C26        -2.3630   -0.9800   -0.2370 cp        1 I6X     -0.042000
     27 C27        -1.0830   -0.6370    0.2190 ca        1 I6X     -0.081000
     28 C28        -3.5450   -0.3920    0.3830 cp        1 I6X     -0.150300
     29 C29        -4.6580   -0.0160   -0.3800 ca        1 I6X     -0.069000
     30 C30        -5.7740    0.5440    0.2630 ca        1 I6X     -0.081300
     31 C31        -5.7210    0.7040    1.6700 ca        1 I6X      0.414200
     32 N32        -4.6600    0.3480    2.4140 nb        1 I6X     -0.664000
     33 C33        -3.6000   -0.1870    1.7820 ca        1 I6X      0.409200
     34 C34        -6.9090    0.9380   -0.4600 cg        1 I6X     -0.132000
     35 C35        -7.8810    1.2760   -1.0750 c1        1 I6X     -0.103100
     36 C36        -9.0360    1.6780   -1.8060 c3        1 I6X     -0.022000
     37 H11C        4.6120    4.0720    2.9900 hc        1 I6X      0.046700
     38 H12C        4.4850    2.3500    2.4350 hc        1 I6X      0.046700
     39 H13C        4.9700    3.6470    1.2640 hc        1 I6X      0.046700
     40 H21C        2.2310    3.4740    2.7330 h1        1 I6X      0.072700
     41 H22C        2.7260    4.7560    1.5280 h1        1 I6X      0.072700
     42 H4          2.3850    1.1550    1.9560 h4        1 I6X      0.170000
     43 H6          0.8910    0.5670   -2.0860 ha        1 I6X      0.142000
     44 H101        0.4460    4.0120   -2.7220 hc        1 I6X      0.049367
     45 H102        2.1200    3.6480   -3.2980 hc        1 I6X      0.049367
     46 H103        0.7820    2.4480   -3.5900 hc        1 I6X      0.049367
     47 H13         2.5890   -0.9450   -2.5580 ha        1 I6X      0.150000
     48 H14         4.5670   -2.3640   -3.1090 ha        1 I6X      0.143000
     49 H15         5.6650   -3.7620   -1.3630 ha        1 I6X      0.154000
     50 H201        3.4290   -3.4330    2.9210 hn        1 I6X      0.420300
     51 H202        2.2720   -2.5460    3.7650 hn        1 I6X      0.420300
     52 H23         0.7930   -2.5890   -1.8700 ha        1 I6X      0.138000
     53 H27        -0.9690    0.0870    1.0420 ha        1 I6X      0.153000
     54 H24        -1.4680   -3.1870   -2.6870 ha        1 I6X      0.134000
     55 H25        -3.4960   -2.1770   -1.6510 ha        1 I6X      0.136000
     56 H29        -4.6570   -0.1510   -1.4720 ha        1 I6X      0.147000
     57 H33        -2.7470   -0.4730    2.4250 h4        1 I6X      0.031100
     58 H31        -6.5750    1.1410    2.2180 h4        1 I6X      0.029100
     59 H361       -9.7880    2.1510   -1.1230 hc        1 I6X      0.058367
     60 H362       -8.7590    2.4230   -2.5980 hc        1 I6X      0.058367
     61 H363       -9.5150    0.7940   -2.3030 hc        1 I6X      0.058367
@<TRIPOS>BOND
     1    1    2 1   
     2    1   37 1   
     3    1   38 1   
     4    1   39 1   
     5    2    3 1   
     6    2   40 1   
     7    2   41 1   
     8    3    4 1   
     9    3    8 1   
    10    4    5 2   
    11    4   42 1   
    12    5    6 1   
    13    5   11 1   
    14    6    7 2   
    15    6   43 1   
    16    7    8 1   
    17    7   10 1   
    18    8    9 2   
    19   10   44 1   
    20   10   45 1   
    21   10   46 1   
    22   11   12 1   
    23   11   19 1   
    24   11   22 1   
    25   12   13 ar  
    26   12   17 ar  
    27   13   14 ar  
    28   13   47 1   
    29   14   15 ar  
    30   14   48 1   
    31   15   16 ar  
    32   15   49 1   
    33   16   17 ar  
    34   16   21 1   
    35   17   18 1   
    36   18   19 2   
    37   18   20 1   
    38   20   50 1   
    39   20   51 1   
    40   22   23 ar  
    41   22   27 ar  
    42   23   24 ar  
    43   23   52 1   
    44   24   25 ar  
    45   24   54 1   
    46   25   26 ar  
    47   25   55 1   
    48   26   27 ar  
    49   26   28 1   
    50   27   53 1   
    51   28   29 ar  
    52   28   33 ar  
    53   29   30 ar  
    54   29   56 1   
    55   30   31 ar  
    56   30   34 1   
    57   31   32 ar  
    58   31   58 1   
    59   32   33 ar  
    60   33   57 1   
    61   34   35 3   
    62   35   36 1   
    63   36   59 1   
    64   36   60 1   
    65   36   61 1   
@<TRIPOS>SUBSTRUCTURE
     1 I6X         1 TEMP              0 ****  ****    0 ROOT
