@<TRIPOS>MOLECULE
I6X
   62    66     1     0     0
SMALL
bcc


@<TRIPOS>ATOM
      1 C1          0.1120    0.0150    0.1170 c3        1 I6X     -0.113100
      2 C2          1.6250   -0.0800    0.0150 c3        1 I6X      0.067000
      3 N3          2.3130   -0.1780    1.2930 n         1 I6X     -0.338000
      4 C4          2.2210   -1.3420    2.0150 cc        1 I6X      0.048600
      5 C5          2.8560   -1.5160    3.2250 cd        1 I6X     -0.221200
      6 C6          3.6500   -0.4400    3.7470 cd        1 I6X     -0.058000
      7 C7          3.7560    0.7330    3.0710 cc        1 I6X     -0.163400
      8 C8          3.0620    0.9270    1.7850 c         1 I6X      0.685700
      9 O9          3.1000    1.9760    1.1210 o         1 I6X     -0.599500
     10 C10         4.5590    1.8790    3.5480 c3        1 I6X     -0.051900
     11 C11         2.7650   -2.7710    4.0500 c3        1 I6X      0.310000
     12 C12         1.7660   -2.5530    5.2060 ca        1 I6X     -0.040300
     13 C13         1.7000   -1.5970    6.2020 ca        1 I6X     -0.096000
     14 C14         0.6280   -1.6470    7.1090 ca        1 I6X     -0.057000
     15 C15        -0.3610   -2.6240    7.0270 ca        1 I6X     -0.140000
     16 C16        -0.3050   -3.5980    6.0080 ca        1 I6X      0.162900
     17 C17         0.7580   -3.5520    5.1060 ca        1 I6X     -0.277900
     18 C18         1.1200   -4.3550    3.9190 ce        1 I6X      0.491800
     19 N19         2.1910   -3.9430    3.2840 n2        1 I6X     -0.484900
     20 N20         0.3190   -5.5230    3.5380 n4        1 I6X     -0.780600
     21 F21        -1.2580   -4.5540    5.8950 f         1 I6X     -0.144900
     22 C22         4.1420   -3.1900    4.5320 ca        1 I6X     -0.109300
     23 C23         4.4260   -3.3720    5.8880 ca        1 I6X     -0.122000
     24 C24         5.7060   -3.7630    6.2800 ca        1 I6X     -0.124000
     25 C25         6.7000   -3.9850    5.3290 ca        1 I6X     -0.094000
     26 C26         6.4220   -3.8140    3.9650 cp        1 I6X     -0.018000
     27 C27         5.1370   -3.4120    3.5740 ca        1 I6X     -0.086000
     28 C28         7.4510   -4.0540    2.9610 cp        1 I6X     -0.174300
     29 C29         8.7840   -3.6800    3.1760 ca        1 I6X     -0.065000
     30 C30         9.7380   -3.9330    2.1780 ca        1 I6X     -0.060300
     31 C31         9.3020   -4.5650    0.9840 ca        1 I6X      0.424200
     32 N32         8.0270   -4.9300    0.7660 nb        1 I6X     -0.658000
     33 C33         7.1280   -4.6780    1.7340 ca        1 I6X      0.405200
     34 C34        11.0820   -3.5760    2.3450 cg        1 I6X     -0.163000
     35 C35        12.2340   -3.2720    2.4830 c1        1 I6X     -0.066100
     36 C36        13.6030   -2.9120    2.6440 c3        1 I6X     -0.032000
     37 H11C       -0.3090    0.0810   -0.9160 hc        1 I6X      0.048367
     38 H12C       -0.3200   -0.8810    0.6230 hc        1 I6X      0.048367
     39 H13C       -0.1980    0.9270    0.6830 hc        1 I6X      0.048367
     40 H21C        1.9020   -0.9820   -0.6020 h1        1 I6X      0.081200
     41 H22C        2.0150    0.8390   -0.5160 h1        1 I6X      0.081200
     42 H4          1.6060   -2.1310    1.5420 h4        1 I6X      0.145000
     43 H6          4.1810   -0.5940    4.7010 ha        1 I6X      0.148000
     44 H101        3.9100    2.7880    3.6430 hc        1 I6X      0.060700
     45 H102        5.3630    2.1150    2.8050 hc        1 I6X      0.060700
     46 H103        5.0300    1.6620    4.5360 hc        1 I6X      0.060700
     47 H13         2.4640   -0.8060    6.2820 ha        1 I6X      0.175000
     48 H14         0.5660   -0.8870    7.9070 ha        1 I6X      0.171000
     49 H15        -1.1940   -2.6460    7.7480 ha        1 I6X      0.179000
     50 H201        0.7790   -6.3740    3.8860 hn        1 I6X      0.478800
     51 H202       -0.6120   -5.4350    3.9730 hn        1 I6X      0.478800
     52 H23         3.6560   -3.2030    6.6550 ha        1 I6X      0.135000
     53 H27         4.9160   -3.2560    2.5060 ha        1 I6X      0.153000
     54 H24         5.9310   -3.8980    7.3490 ha        1 I6X      0.149000
     55 H25         7.7060   -4.3020    5.6470 ha        1 I6X      0.154000
     56 H29         9.0830   -3.1860    4.1130 ha        1 I6X      0.150000
     57 H33         6.0930   -4.9990    1.5210 h4        1 I6X      0.017100
     58 H31        10.0170   -4.7830    0.1700 h4        1 I6X      0.040100
     59 H361       14.1960   -3.7840    3.0250 hc        1 I6X      0.066367
     60 H362       13.7050   -2.0670    3.3740 hc        1 I6X      0.066367
     61 H363       14.0410   -2.5880    1.6630 hc        1 I6X      0.066367
     62 H203        0.2230   -5.5880    2.5170 hn        1 I6X      0.478800
@<TRIPOS>BOND
     1    1    2 1   
     2    1   37 1   
     3    1   38 1   
     4    1   39 1   
     5    2    3 1   
     6    2   40 1   
     7    2   41 1   
     8    3    4 1   
     9    3    8 1   
    10    4    5 2   
    11    4   42 1   
    12    5    6 1   
    13    5   11 1   
    14    6    7 2   
    15    6   43 1   
    16    7    8 1   
    17    7   10 1   
    18    8    9 2   
    19   10   44 1   
    20   10   45 1   
    21   10   46 1   
    22   11   12 1   
    23   11   19 1   
    24   11   22 1   
    25   12   13 ar  
    26   12   17 ar  
    27   13   14 ar  
    28   13   47 1   
    29   14   15 ar  
    30   14   48 1   
    31   15   16 ar  
    32   15   49 1   
    33   16   17 ar  
    34   16   21 1   
    35   17   18 1   
    36   18   19 2   
    37   18   20 1   
    38   20   50 1   
    39   20   51 1   
    40   20   62 1   
    41   22   23 ar  
    42   22   27 ar  
    43   23   24 ar  
    44   23   52 1   
    45   24   25 ar  
    46   24   54 1   
    47   25   26 ar  
    48   25   55 1   
    49   26   27 ar  
    50   26   28 1   
    51   27   53 1   
    52   28   29 ar  
    53   28   33 ar  
    54   29   30 ar  
    55   29   56 1   
    56   30   31 ar  
    57   30   34 1   
    58   31   32 ar  
    59   31   58 1   
    60   32   33 ar  
    61   33   57 1   
    62   34   35 3   
    63   35   36 1   
    64   36   59 1   
    65   36   60 1   
    66   36   61 1   
@<TRIPOS>SUBSTRUCTURE
     1 I6X         1 TEMP              0 ****  ****    0 ROOT
