@<TRIPOS>MOLECULE
I75
   22    20     1     0     0
SMALL
bcc


@<TRIPOS>ATOM
      1 CAA        -1.8110    0.5860    0.5450 c2        1 I75      0.131000
      2 CAB         2.4240   -0.1980    6.8120 c1        1 I75     -0.038000
      3 OAC        -0.2850    0.2820    3.4510 o         1 I75     -0.333000
      4 CAE         4.4190   -0.3640    2.6990 ca        1 I75     -0.208000
      5 CAF         3.3000   -0.2300    3.5120 ca        1 I75     -0.041000
      6 CAG         1.8930    0.0300    1.5500 ca        1 I75     -0.041000
      7 OAH        -0.9510    0.4910   -0.3280 o         1 I75     -0.300000
      8 CAJ         4.2660   -0.3000    1.3050 ca        1 I75      0.110000
      9 CAK         2.0330   -0.0320    2.9450 ca        1 I75     -0.222000
     10 CAL         3.0010   -0.1020    0.7230 ca        1 I75     -0.208000
     11 HAA         2.9050   -0.0550   -0.3710 ha        1 I75      0.147000
     12 HAAA       -1.5680    0.5180    1.6280 h4        1 I75      0.085000
     13 HAAB       -2.8820    0.7450    0.2930 h4        1 I75      0.085000
     14 HAB         2.4120    0.7080    7.4360 ha        1 I75      0.021000
     15 HABA        1.1170    0.0370    4.9250 h4        1 I75      0.097000
     16 HABB        2.1310   -1.0890    7.3880 ha        1 I75      0.021000
     17 HOAD        6.1290   -0.5540    0.9650 ho        1 I75      0.220000
     18 HAE         3.3970   -0.2770    4.6140 ha        1 I75      0.167500
     19 HAF         5.4130   -0.5190    3.1400 ha        1 I75      0.147000
     20 HAG         0.8910    0.1860    1.1090 ha        1 I75      0.167500
     21 OAD         5.3250   -0.4240    0.4400 oh        1 I75     -0.247000
     22 CAI         0.8760    0.1050    3.8340 c2        1 I75      0.239000
@<TRIPOS>BOND
     1    1    7 1   
     2    1   12 1   
     3    1   13 1   
     4    2   14 1   
     5    2   16 1   
     6    3   22 1   
     7    4    5 1   
     8    4    8 1   
     9    4   19 1   
    10    5    9 1   
    11    5   18 1   
    12    6    9 1   
    13    6   10 1   
    14    6   20 1   
    15    8   10 1   
    16    8   21 1   
    17    9   22 1   
    18   10   11 1   
    19   15   22 1   
    20   17   21 1   
@<TRIPOS>SUBSTRUCTURE
     1 I75         1 TEMP              0 ****  ****    0 ROOT
