@<TRIPOS>MOLECULE
I75
   22    22     1     0     0
SMALL
bcc


@<TRIPOS>ATOM
      1 CAA        -2.0950    2.4780    0.0710 c3        1 I75      0.119700
      2 CAB         3.6610   -0.6670   -0.0440 c3        1 I75     -0.198100
      3 OAC         2.7750    1.5470   -0.0430 o         1 I75     -0.544100
      4 CAE        -0.4170   -2.0350    0.0710 ca        1 I75     -0.156000
      5 CAF         0.8930   -1.5670    0.0340 ca        1 I75     -0.084000
      6 CAG         0.1030    0.7250    0.0320 ca        1 I75     -0.107000
      7 OAH        -2.3370    1.0750    0.0900 os        1 I75     -0.349900
      8 CAJ        -1.4800   -1.1230    0.0890 ca        1 I75      0.142100
      9 CAK         1.1640   -0.1950    0.0140 ca        1 I75     -0.183600
     10 CAL        -1.2110    0.2670    0.0690 ca        1 I75      0.027100
     11 HAA        -1.5580    2.7710   -0.8640 h1        1 I75      0.049033
     12 HAAA       -3.1240    2.9180    0.0920 h1        1 I75      0.049033
     13 HAAB       -1.5120    2.7880    0.9720 h1        1 I75      0.049033
     14 HAB         4.6480   -0.1420   -0.0740 hc        1 I75      0.064700
     15 HABA        3.6200   -1.3040    0.8730 hc        1 I75      0.064700
     16 HABB        3.5740   -1.3210   -0.9460 hc        1 I75      0.064700
     17 HOAD       -3.3780   -0.8960    0.1340 ho        1 I75      0.442000
     18 HAE        -0.6360   -3.1130    0.0860 ha        1 I75      0.156000
     19 HAF         1.7170   -2.2970    0.0200 ha        1 I75      0.139000
     20 HAG         0.3350    1.8020    0.0160 ha        1 I75      0.164000
     21 OAD        -2.7510   -1.6360    0.1250 oh        1 I75     -0.490100
     22 CAI         2.5450    0.3290   -0.0250 c         1 I75      0.581700
@<TRIPOS>BOND
     1    1    7 1   
     2    1   11 1   
     3    1   12 1   
     4    1   13 1   
     5    2   14 1   
     6    2   15 1   
     7    2   16 1   
     8    2   22 1   
     9    3   22 2   
    10    4    5 ar  
    11    4    8 ar  
    12    4   18 1   
    13    5    9 ar  
    14    5   19 1   
    15    6    9 ar  
    16    6   10 ar  
    17    6   20 1   
    18    7   10 1   
    19    8   10 ar  
    20    8   21 1   
    21    9   22 1   
    22   17   21 1   
@<TRIPOS>SUBSTRUCTURE
     1 I75         1 TEMP              0 ****  ****    0 ROOT
