@<TRIPOS>MOLECULE
I75
   22    19     1     0     0
SMALL
bcc


@<TRIPOS>ATOM
      1 CAA        -2.7610   -0.6190   -2.0140 c3        1 I75      0.113700
      2 CAB         1.2290    2.3210    2.4150 c3        1 I75     -0.198100
      3 OAC         1.7800    2.8580    0.1770 o         1 I75     -0.536100
      4 OAD        -0.3200   -2.9860   -1.2040 oh        1 I75     -0.471600
      5 CAE         1.2550   -1.6610    0.0660 c1        1 I75     -0.083500
      6 CAF         1.6540   -0.4410    0.5890 c1        1 I75     -0.083500
      7 CAG        -0.3180    0.5910   -0.3110 c1        1 I75      0.003500
      8 OAH        -1.3650   -0.8090   -2.0690 os        1 I75     -0.309400
      9 CAI         1.3240    2.0250    0.9350 c         1 I75      0.528300
     10 CAJ         0.0690   -1.7550   -0.6460 c1        1 I75      0.107600
     11 CAK         0.8670    0.6850    0.4010 cg        1 I75     -0.146200
     12 CAL        -0.7170   -0.6290   -0.8350 c1        1 I75      0.044600
     13 HAA        -3.0870   -0.8480   -1.1170 h1        1 I75      0.045700
     14 HAAA       -3.1960   -1.1970   -2.6770 h1        1 I75      0.045700
     15 HAAB       -2.9710    0.3200   -2.2090 h1        1 I75      0.045700
     16 HAB         0.6060    1.6910    2.8350 hc        1 I75      0.064367
     17 HABA        0.9040    3.2370    2.5450 hc        1 I75      0.064367
     18 HABB        2.1140    2.2270    2.8250 hc        1 I75      0.064367
     19 HOAD       -0.4930   -3.5660   -0.5520 ho        1 I75      0.423000
     20 HAE         1.8080   -2.4530    0.1990 ha        1 I75      0.080500
     21 HAF         2.4890   -0.3750    1.0910 ha        1 I75      0.080500
     22 HAG        -0.8720    1.3840   -0.4440 ha        1 I75      0.116500
@<TRIPOS>BOND
     1    1    8 1   
     2    1   13 1   
     3    1   14 1   
     4    1   15 1   
     5    2    9 1   
     6    2   16 1   
     7    2   17 1   
     8    2   18 1   
     9    3    9 2   
    10    4   10 1   
    11    4   19 1   
    12    5    6 3   
    13    5   20 1   
    14    6   21 1   
    15    7   11 3   
    16    7   22 1   
    17    8   12 1   
    18    9   11 1   
    19   10   12 3   
@<TRIPOS>SUBSTRUCTURE
     1 I75         1 TEMP              0 ****  ****    0 ROOT
