@<TRIPOS>MOLECULE
I76
   54    58     1     0     0
SMALL
bcc


@<TRIPOS>ATOM
      1 CAA        -0.1510   -0.2510    0.2170 c3        1 I76     -0.109100
      2 CBE         1.3710   -0.2000    0.0920 c3        1 I76      0.078000
      3 CAB         1.9910   -0.1700    1.4880 c3        1 I76     -0.109100
      4 NBF         1.8970   -1.2930   -0.7330 na        1 I76      0.001200
      5 NAS         1.6850   -2.5950   -0.4670 nc        1 I76     -0.500100
      6 C4          2.7860   -1.1320   -1.8130 ca        1 I76      0.472800
      7 N3          3.2690    0.0030   -2.4080 nb        1 I76     -0.740000
      8 C2          4.0770   -0.2610   -3.4590 ca        1 I76      0.693900
      9 N1          4.4580   -1.4540   -3.9930 nb        1 I76     -0.799000
     10 C6          3.9830   -2.5950   -3.3890 ca        1 I76      0.755200
     11 NAC         4.3720   -3.8350   -3.8430 nh        1 I76     -0.954500
     12 C5          3.1190   -2.4770   -2.2570 ca        1 I76     -0.494500
     13 CAZ         2.3880   -3.3470   -1.3540 cd        1 I76      0.416500
     14 CAY         2.3790   -4.8040   -1.3680 ca        1 I76     -0.107900
     15 CAO         3.5520   -5.5190   -1.2580 ca        1 I76     -0.101000
     16 CAI         1.1360   -5.4890   -1.4810 ca        1 I76     -0.095000
     17 CAK         1.0990   -6.8590   -1.5040 ca        1 I76     -0.129000
     18 CBA         2.2980   -7.6210   -1.4060 ca        1 I76     -0.002000
     19 CAN         2.2760   -9.0370   -1.4240 ca        1 I76     -0.157000
     20 CBB         3.5360   -6.9400   -1.2790 ca        1 I76     -0.072000
     21 CAJ         4.7340   -7.6960   -1.1690 ca        1 I76     -0.083000
     22 CAH         4.7080   -9.0690   -1.1900 ca        1 I76     -0.183000
     23 CAW         3.4640   -9.7430   -1.3210 ca        1 I76      0.127100
     24 OAT         3.3440  -11.1190   -1.3960 os        1 I76     -0.329900
     25 CAP         4.4870  -11.8650   -0.9510 c3        1 I76      0.174700
     26 CAV         4.0860  -13.3000   -0.8540 ca        1 I76     -0.085300
     27 CAM         4.7680  -14.1260    0.0470 ca        1 I76     -0.120000
     28 CAU         4.4340  -15.4800    0.1250 ca        1 I76      0.016400
     29 CLD         5.2660  -16.4870    1.2140 cl        1 I76     -0.093400
     30 CAF         3.4230  -16.0150   -0.6800 ca        1 I76     -0.119000
     31 CAE         2.7460  -15.1820   -1.5690 ca        1 I76     -0.123000
     32 CAG         3.0750  -13.8310   -1.6610 ca        1 I76     -0.101000
     33 H1         -0.4900    0.6580    0.7700 hc        1 I76      0.050200
     34 H2         -0.6370   -0.2590   -0.7870 hc        1 I76      0.050200
     35 H3         -0.4780   -1.1570    0.7810 hc        1 I76      0.050200
     36 H4          1.6540    0.7530   -0.4500 h1        1 I76      0.086700
     37 H5          1.7220   -1.0860    2.0660 hc        1 I76      0.050200
     38 H6          1.6000    0.7250    2.0300 hc        1 I76      0.050200
     39 H7          3.1030   -0.0950    1.4310 hc        1 I76      0.050200
     40 H8          4.4940    0.6310   -3.9750 h5        1 I76      0.052100
     41 H9          3.8580   -4.6200   -3.5210 hn        1 I76      0.438800
     42 H10         4.8490   -3.9080   -4.7090 hn        1 I76      0.438800
     43 H11         4.5180   -5.0020   -1.1410 ha        1 I76      0.146000
     44 H12         0.2090   -4.8980   -1.5460 ha        1 I76      0.147000
     45 H13         0.1410   -7.3950   -1.5920 ha        1 I76      0.139000
     46 H14         1.3190   -9.5710   -1.5220 ha        1 I76      0.153000
     47 H15         5.6890   -7.1590   -1.0660 ha        1 I76      0.138000
     48 H16         5.6420   -9.6420   -1.1110 ha        1 I76      0.140000
     49 H17         5.3100  -11.7490   -1.7090 h1        1 I76      0.051700
     50 H18         4.8310  -11.4760    0.0440 h1        1 I76      0.051700
     51 H19         5.5590  -13.7110    0.6890 ha        1 I76      0.146000
     52 H20         3.1630  -17.0830   -0.6110 ha        1 I76      0.148000
     53 H21         1.9470  -15.5960   -2.2020 ha        1 I76      0.140000
     54 H22         2.5360  -13.1720   -2.3600 ha        1 I76      0.153000
@<TRIPOS>BOND
     1    1    2 1   
     2    1   33 1   
     3    1   34 1   
     4    1   35 1   
     5    2    3 1   
     6    2    4 1   
     7    2   36 1   
     8    3   37 1   
     9    3   38 1   
    10    3   39 1   
    11    4    5 1   
    12    4    6 1   
    13    5   13 2   
    14    6    7 ar  
    15    6   12 ar  
    16    7    8 ar  
    17    8    9 ar  
    18    8   40 1   
    19    9   10 ar  
    20   10   11 1   
    21   10   12 ar  
    22   11   41 1   
    23   11   42 1   
    24   12   13 1   
    25   13   14 1   
    26   14   15 ar  
    27   14   16 ar  
    28   15   20 ar  
    29   15   43 1   
    30   16   17 ar  
    31   16   44 1   
    32   17   18 ar  
    33   17   45 1   
    34   18   19 ar  
    35   18   20 ar  
    36   19   23 ar  
    37   19   46 1   
    38   20   21 ar  
    39   21   22 ar  
    40   21   47 1   
    41   22   23 ar  
    42   22   48 1   
    43   23   24 1   
    44   24   25 1   
    45   25   26 1   
    46   25   49 1   
    47   25   50 1   
    48   26   27 ar  
    49   26   32 ar  
    50   27   28 ar  
    51   27   51 1   
    52   28   29 1   
    53   28   30 ar  
    54   30   31 ar  
    55   30   52 1   
    56   31   32 ar  
    57   31   53 1   
    58   32   54 1   
@<TRIPOS>SUBSTRUCTURE
     1 I76         1 TEMP              0 ****  ****    0 ROOT
