@<TRIPOS>MOLECULE
I76
   54    58     1     0     0
SMALL
bcc


@<TRIPOS>ATOM
      1 CAA        -0.1510   -0.2530    0.2300 c3        1 I76     -0.109100
      2 CBE         1.3700   -0.2010    0.1030 c3        1 I76      0.078000
      3 CAB         1.9920   -0.1700    1.4980 c3        1 I76     -0.109100
      4 NBF         1.8970   -1.2930   -0.7230 na        1 I76      0.001200
      5 NAS         1.6860   -2.5960   -0.4580 nc        1 I76     -0.500100
      6 C4          2.7840   -1.1310   -1.8040 ca        1 I76      0.472800
      7 N3          3.2670    0.0040   -2.3990 nb        1 I76     -0.740000
      8 C2          4.0740   -0.2590   -3.4500 ca        1 I76      0.693900
      9 N1          4.4540   -1.4510   -3.9860 nb        1 I76     -0.799000
     10 C6          3.9810   -2.5930   -3.3820 ca        1 I76      0.755200
     11 NAC         4.3700   -3.8320   -3.8370 nv        1 I76     -0.954500
     12 C5          3.1170   -2.4760   -2.2490 ca        1 I76     -0.494500
     13 CAZ         2.3880   -3.3460   -1.3460 cd        1 I76      0.416500
     14 CAY         2.3790   -4.8030   -1.3610 ca        1 I76     -0.107900
     15 CAO         3.5530   -5.5190   -1.2530 ca        1 I76     -0.101000
     16 CAI         1.1370   -5.4890   -1.4720 ca        1 I76     -0.095000
     17 CAK         1.1000   -6.8590   -1.4960 ca        1 I76     -0.129000
     18 CBA         2.2990   -7.6210   -1.4010 ca        1 I76     -0.002000
     19 CAN         2.2770   -9.0370   -1.4190 ca        1 I76     -0.157000
     20 CBB         3.5370   -6.9390   -1.2750 ca        1 I76     -0.072000
     21 CAJ         4.7350   -7.6960   -1.1680 ca        1 I76     -0.083000
     22 CAH         4.7090   -9.0680   -1.1900 ca        1 I76     -0.183000
     23 CAW         3.4660   -9.7430   -1.3190 ca        1 I76      0.127100
     24 OAT         3.3450  -11.1180   -1.3940 os        1 I76     -0.329900
     25 CAP         4.4900  -11.8640   -0.9530 c3        1 I76      0.174700
     26 CAV         4.0900  -13.3000   -0.8570 ca        1 I76     -0.085300
     27 CAM         4.7740  -14.1270    0.0420 ca        1 I76     -0.121000
     28 CAU         4.4410  -15.4810    0.1190 ca        1 I76      0.016400
     29 ClD         5.2760  -16.4890    1.2050 cl        1 I76     -0.093400
     30 CAF         3.4270  -16.0160   -0.6830 ca        1 I76     -0.119000
     31 CAE         2.7480  -15.1820   -1.5690 ca        1 I76     -0.123000
     32 CAG         3.0760  -13.8300   -1.6610 ca        1 I76     -0.101000
     33 H1         -0.4770   -1.1600    0.7930 hc        1 I76      0.050200
     34 H2         -0.4900    0.6550    0.7840 hc        1 I76      0.050200
     35 H3         -0.6380   -0.2620   -0.7750 hc        1 I76      0.050200
     36 H4          1.6520    0.7520   -0.4390 h1        1 I76      0.086700
     37 H5          1.7250   -1.0870    2.0760 hc        1 I76      0.050200
     38 H6          3.1040   -0.0940    1.4400 hc        1 I76      0.050200
     39 H7          1.6010    0.7240    2.0410 hc        1 I76      0.050200
     40 H8          4.4900    0.6330   -3.9670 h5        1 I76      0.052100
     41 H9          3.8560   -4.6180   -3.5150 hn        1 I76      0.438800
     42 H10         4.8460   -3.9050   -4.7040 hn        1 I76      0.438800
     43 H11         4.5190   -5.0020   -1.1380 ha        1 I76      0.146000
     44 H12         0.2090   -4.8980   -1.5350 ha        1 I76      0.147000
     45 H13         0.1420   -7.3940   -1.5820 ha        1 I76      0.139000
     46 H14         1.3210   -9.5700   -1.5160 ha        1 I76      0.153000
     47 H15         5.6910   -7.1580   -1.0660 ha        1 I76      0.138000
     48 H16         5.6440   -9.6410   -1.1130 ha        1 I76      0.140000
     49 H17         4.8360  -11.4760    0.0420 h1        1 I76      0.051700
     50 H18         5.3110  -11.7480   -1.7130 h1        1 I76      0.051700
     51 H19         5.5670  -13.7120    0.6820 ha        1 I76      0.146000
     52 H20         3.1680  -17.0830   -0.6150 ha        1 I76      0.148000
     53 H21         1.9470  -15.5950   -2.2010 ha        1 I76      0.140000
     54 H22         2.5350  -13.1700   -2.3570 ha        1 I76      0.153000
@<TRIPOS>BOND
     1    1    2 1   
     2    1   33 1   
     3    1   34 1   
     4    1   35 1   
     5    2    3 1   
     6    2    4 1   
     7    2   36 1   
     8    3   37 1   
     9    3   38 1   
    10    3   39 1   
    11    4    5 1   
    12    4    6 1   
    13    5   13 2   
    14    6    7 ar  
    15    6   12 ar  
    16    7    8 ar  
    17    8    9 ar  
    18    8   40 1   
    19    9   10 ar  
    20   10   11 1   
    21   10   12 ar  
    22   11   41 1   
    23   11   42 1   
    24   12   13 1   
    25   13   14 1   
    26   14   15 ar  
    27   14   16 ar  
    28   15   20 ar  
    29   15   43 1   
    30   16   17 ar  
    31   16   44 1   
    32   17   18 ar  
    33   17   45 1   
    34   18   19 ar  
    35   18   20 ar  
    36   19   23 ar  
    37   19   46 1   
    38   20   21 ar  
    39   21   22 ar  
    40   21   47 1   
    41   22   23 ar  
    42   22   48 1   
    43   23   24 1   
    44   24   25 1   
    45   25   26 1   
    46   25   49 1   
    47   25   50 1   
    48   26   27 ar  
    49   26   32 ar  
    50   27   28 ar  
    51   27   51 1   
    52   28   29 1   
    53   28   30 ar  
    54   30   31 ar  
    55   30   52 1   
    56   31   32 ar  
    57   31   53 1   
    58   32   54 1   
@<TRIPOS>SUBSTRUCTURE
     1 I76         1 TEMP              0 ****  ****    0 ROOT
