@<TRIPOS>MOLECULE
I76
   55    59     1     0     0
SMALL
bcc


@<TRIPOS>ATOM
      1 CAA        -0.0360   -0.1590    0.2780 c3        1 I76     -0.116600
      2 CBE         1.4850   -0.1500    0.1680 c3        1 I76      0.073000
      3 CAB         2.1050   -0.1500    1.5620 c3        1 I76     -0.116600
      4 NBF         1.9850   -1.2740   -0.6580 na        1 I76      0.035200
      5 NAS         1.7860   -2.5650   -0.3550 nc        1 I76     -0.416100
      6 C4          2.7390   -1.1370   -1.8330 ca        1 I76      0.459800
      7 N3          3.1790   -0.0380   -2.5150 nb        1 I76     -0.624000
      8 C2          3.8780   -0.3240   -3.6330 ca        1 I76      0.680900
      9 N1          4.1910   -1.5540   -4.1610 nb        1 I76     -0.698000
     10 C6          3.7470   -2.6290   -3.4740 ca        1 I76      0.557200
     11 NAC         4.0360   -3.9810   -4.0000 n4        1 I76     -0.833300
     12 C5          3.0150   -2.5120   -2.2840 ca        1 I76     -0.433500
     13 CAZ         2.3790   -3.3520   -1.2890 cd        1 I76      0.402500
     14 CAY         2.3790   -4.8080   -1.3120 ca        1 I76     -0.156900
     15 CAO         3.5490   -5.5110   -1.1030 ca        1 I76     -0.126000
     16 CAI         1.1580   -5.5000   -1.5450 ca        1 I76     -0.113000
     17 CAK         1.1430   -6.8700   -1.5970 ca        1 I76     -0.102000
     18 CBA         2.3390   -7.6220   -1.4120 ca        1 I76      0.006000
     19 CAN         2.3340   -9.0340   -1.4590 ca        1 I76     -0.166000
     20 CBB         3.5540   -6.9290   -1.1550 ca        1 I76     -0.089000
     21 CAJ         4.7410   -7.6770   -0.9300 ca        1 I76     -0.092000
     22 CAH         4.7300   -9.0490   -0.9710 ca        1 I76     -0.168000
     23 CAW         3.5140   -9.7360   -1.2420 ca        1 I76      0.158100
     24 OAT         3.4100  -11.1030   -1.3400 os        1 I76     -0.315900
     25 CAP         4.5370  -11.8620   -0.8610 c3        1 I76      0.176700
     26 CAV         4.1300  -13.2970   -0.8530 ca        1 I76     -0.099300
     27 CAM         4.5550  -14.1160    0.1980 ca        1 I76     -0.113000
     28 CAU         4.2160  -15.4720    0.1920 ca        1 I76      0.017400
     29 CLD         4.7390  -16.4710    1.4620 cl        1 I76     -0.077400
     30 CAF         3.4480  -16.0120   -0.8460 ca        1 I76     -0.108000
     31 CAE         3.0220  -15.1840   -1.8830 ca        1 I76     -0.120000
     32 CAG         3.3620  -13.8320   -1.8920 ca        1 I76     -0.102000
     33 H1         -0.3480    0.7600    0.8330 hc        1 I76      0.063867
     34 H2         -0.5170   -0.1440   -0.7290 hc        1 I76      0.063867
     35 H3         -0.3970   -1.0540    0.8390 hc        1 I76      0.063867
     36 H4          1.8100    0.7860   -0.3800 h1        1 I76      0.093700
     37 H5          1.7520    0.7650    2.0980 hc        1 I76      0.063867
     38 H6          3.2200   -0.1230    1.5130 hc        1 I76      0.063867
     39 H7          1.7900   -1.0490    2.1450 hc        1 I76      0.063867
     40 H8          4.2570    0.5470   -4.2190 h5        1 I76      0.098100
     41 H9          3.7970   -4.6760   -3.2690 hn        1 I76      0.477800
     42 H10         5.0290   -4.0630   -4.2510 hn        1 I76      0.477800
     43 H11         4.4830   -4.9900   -0.8420 ha        1 I76      0.138000
     44 H12         0.2300   -4.9200   -1.6630 ha        1 I76      0.155000
     45 H13         0.2000   -7.4150   -1.7670 ha        1 I76      0.158000
     46 H14         1.3970   -9.5770   -1.6570 ha        1 I76      0.167000
     47 H15         5.6740   -7.1380   -0.7050 ha        1 I76      0.140000
     48 H16         5.6560   -9.6160   -0.7900 ha        1 I76      0.155000
     49 H17         5.3980  -11.7050   -1.5680 h1        1 I76      0.053700
     50 H18         4.8160  -11.5110    0.1680 h1        1 I76      0.053700
     51 H19         5.1520  -13.6990    1.0230 ha        1 I76      0.147000
     52 H20         3.1820  -17.0800   -0.8430 ha        1 I76      0.156000
     53 H21         2.4150  -15.6020   -2.7000 ha        1 I76      0.145000
     54 H22         3.0200  -13.1770   -2.7080 ha        1 I76      0.144000
     55 HAC3        3.4660   -4.1500   -4.8370 hn        1 I76      0.477800
@<TRIPOS>BOND
     1    1    2 1   
     2    1   33 1   
     3    1   34 1   
     4    1   35 1   
     5    2    3 1   
     6    2    4 1   
     7    2   36 1   
     8    3   37 1   
     9    3   38 1   
    10    3   39 1   
    11    4    5 1   
    12    4    6 1   
    13    5   13 2   
    14    6    7 ar  
    15    6   12 ar  
    16    7    8 ar  
    17    8    9 ar  
    18    8   40 1   
    19    9   10 ar  
    20   10   11 1   
    21   10   12 ar  
    22   11   41 1   
    23   11   42 1   
    24   11   55 1   
    25   12   13 1   
    26   13   14 1   
    27   14   15 ar  
    28   14   16 ar  
    29   15   20 ar  
    30   15   43 1   
    31   16   17 ar  
    32   16   44 1   
    33   17   18 ar  
    34   17   45 1   
    35   18   19 ar  
    36   18   20 ar  
    37   19   23 ar  
    38   19   46 1   
    39   20   21 ar  
    40   21   22 ar  
    41   21   47 1   
    42   22   23 ar  
    43   22   48 1   
    44   23   24 1   
    45   24   25 1   
    46   25   26 1   
    47   25   49 1   
    48   25   50 1   
    49   26   27 ar  
    50   26   32 ar  
    51   27   28 ar  
    52   27   51 1   
    53   28   29 1   
    54   28   30 ar  
    55   30   31 ar  
    56   30   52 1   
    57   31   32 ar  
    58   31   53 1   
    59   32   54 1   
@<TRIPOS>SUBSTRUCTURE
     1 I76         1 TEMP              0 ****  ****    0 ROOT
