@<TRIPOS>MOLECULE
I76
   54    58     1     0     0
SMALL
bcc


@<TRIPOS>ATOM
      1 CAA         7.1670    2.9910   -1.0470 c3        1 I76     -0.109100
      2 CBE         7.0630    2.0630    0.1620 c3        1 I76      0.078000
      3 CAB         6.8970    2.9020    1.4290 c3        1 I76     -0.109100
      4 NBF         5.9990    1.0650    0.0070 na        1 I76      0.001200
      5 NAS         4.7080    1.3800   -0.2120 nc        1 I76     -0.500100
      6 C4          6.1590   -0.3210    0.1930 ca        1 I76      0.472800
      7 N3          7.2850   -1.0630    0.4390 nb        1 I76     -0.740000
      8 C2          7.0310   -2.3880    0.5140 ca        1 I76      0.693900
      9 N1          5.8570   -3.0640    0.3780 nb        1 I76     -0.799000
     10 C6          4.7250   -2.3200    0.1430 ca        1 I76      0.755200
     11 NAC         3.4970   -2.9340    0.0490 nh        1 I76     -0.954500
     12 C5          4.8320   -0.8990    0.0430 ca        1 I76     -0.494500
     13 CAZ         3.9690    0.2400   -0.2060 cd        1 I76      0.416500
     14 CAY         2.5290    0.2080   -0.4280 ca        1 I76     -0.107900
     15 CAO         1.6820   -0.3480    0.5080 ca        1 I76     -0.101000
     16 CAI         1.9970    0.7740   -1.6210 ca        1 I76     -0.095000
     17 CAK         0.6470    0.7510   -1.8580 ca        1 I76     -0.129000
     18 CBA        -0.2470    0.1700   -0.9150 ca        1 I76     -0.002000
     19 CAN        -1.6450    0.1410   -1.1430 ca        1 I76     -0.157000
     20 CBB         0.2800   -0.3820    0.2820 ca        1 I76     -0.072000
     21 CAJ        -0.6100   -0.9530    1.2310 ca        1 I76     -0.083000
     22 CAH        -1.9640   -0.9820    1.0040 ca        1 I76     -0.183000
     23 CAW        -2.4830   -0.4290   -0.1980 ca        1 I76      0.127100
     24 OAT        -3.8250   -0.4510   -0.5330 os        1 I76     -0.329900
     25 CAP        -4.7290   -0.7130    0.5500 c3        1 I76      0.174700
     26 CAV        -6.1150   -0.4420    0.0650 ca        1 I76     -0.085300
     27 CAM        -7.0900   -0.0730    0.9980 ca        1 I76     -0.121000
     28 CAU        -8.4020    0.1470    0.5700 ca        1 I76      0.016400
     29 CLD        -9.5900    0.5880    1.7030 cl        1 I76     -0.093400
     30 CAF        -8.7460    0.0130   -0.7790 ca        1 I76     -0.119000
     31 CAE        -7.7650   -0.3480   -1.7010 ca        1 I76     -0.123000
     32 CAG        -6.4540   -0.5770   -1.2840 ca        1 I76     -0.101000
     33 H1          6.2540    3.6260   -1.1470 hc        1 I76      0.050200
     34 H2          8.0530    3.6560   -0.9060 hc        1 I76      0.050200
     35 H3          7.3040    2.4090   -1.9900 hc        1 I76      0.050200
     36 H4          8.0240    1.4720    0.2440 h1        1 I76      0.086700
     37 H5          5.9670    3.5170    1.3840 hc        1 I76      0.050200
     38 H6          6.8560    2.2540    2.3360 hc        1 I76      0.050200
     39 H7          7.7760    3.5850    1.5180 hc        1 I76      0.050200
     40 H8          7.9150   -3.0320    0.7120 h5        1 I76      0.052100
     41 H9          3.4510   -3.9220   -0.0260 hn        1 I76      0.438800
     42 H10         2.7460   -2.3990   -0.3190 hn        1 I76      0.438800
     43 H11         2.0780   -0.7640    1.4480 ha        1 I76      0.146000
     44 H12         2.6890    1.2330   -2.3440 ha        1 I76      0.147000
     45 H13         0.2300    1.1860   -2.7790 ha        1 I76      0.139000
     46 H14        -2.0590    0.5680   -2.0680 ha        1 I76      0.153000
     47 H15        -0.1920   -1.3750    2.1590 ha        1 I76      0.138000
     48 H16        -2.6400   -1.4320    1.7440 ha        1 I76      0.140000
     49 H17        -4.6330   -1.7940    0.8460 h1        1 I76      0.051700
     50 H18        -4.4740   -0.0570    1.4250 h1        1 I76      0.051700
     51 H19        -6.8260    0.0420    2.0600 ha        1 I76      0.146000
     52 H20        -9.7800    0.1910   -1.1100 ha        1 I76      0.148000
     53 H21        -8.0280   -0.4520   -2.7640 ha        1 I76      0.140000
     54 H22        -5.6780   -0.8580   -2.0140 ha        1 I76      0.153000
@<TRIPOS>BOND
     1    1    2 1   
     2    1   33 1   
     3    1   34 1   
     4    1   35 1   
     5    2    3 1   
     6    2    4 1   
     7    2   36 1   
     8    3   37 1   
     9    3   38 1   
    10    3   39 1   
    11    4    5 1   
    12    4    6 1   
    13    5   13 2   
    14    6    7 ar  
    15    6   12 ar  
    16    7    8 ar  
    17    8    9 ar  
    18    8   40 1   
    19    9   10 ar  
    20   10   11 1   
    21   10   12 ar  
    22   11   41 1   
    23   11   42 1   
    24   12   13 1   
    25   13   14 1   
    26   14   15 ar  
    27   14   16 ar  
    28   15   20 ar  
    29   15   43 1   
    30   16   17 ar  
    31   16   44 1   
    32   17   18 ar  
    33   17   45 1   
    34   18   19 ar  
    35   18   20 ar  
    36   19   23 ar  
    37   19   46 1   
    38   20   21 ar  
    39   21   22 ar  
    40   21   47 1   
    41   22   23 ar  
    42   22   48 1   
    43   23   24 1   
    44   24   25 1   
    45   25   26 1   
    46   25   49 1   
    47   25   50 1   
    48   26   27 ar  
    49   26   32 ar  
    50   27   28 ar  
    51   27   51 1   
    52   28   29 1   
    53   28   30 ar  
    54   30   31 ar  
    55   30   52 1   
    56   31   32 ar  
    57   31   53 1   
    58   32   54 1   
@<TRIPOS>SUBSTRUCTURE
     1 I76         1 TEMP              0 ****  ****    0 ROOT
