@<TRIPOS>MOLECULE
I79
   54    58     1     0     0
SMALL
bcc


@<TRIPOS>ATOM
      1 C1          1.2760   -1.1620    0.2950 ca        1 I79     -0.213000
      2 C2          2.0170   -0.0410   -0.0900 cp        1 I79      0.054000
      3 C3          2.3450    0.9400    0.8500 ca        1 I79     -0.213000
      4 C4          1.9340    0.8080    2.1920 ca        1 I79      0.150100
      5 C5          1.1750   -0.3160    2.5760 ca        1 I79     -0.251000
      6 C6          0.8570   -1.3140    1.6330 ca        1 I79      0.150100
      7 N7          0.1830   -2.4800    2.0390 nv        1 I79     -0.812200
      8 N8          2.3280    1.7560    3.1530 nv        1 I79     -0.812200
      9 C9          2.4310    0.1150   -1.4870 cp        1 I79     -0.048000
     10 C10         1.5230   -0.2020   -2.5200 ca        1 I79     -0.170000
     11 C11         1.8670   -0.0670   -3.8580 ca        1 I79     -0.057000
     12 C12         3.1490    0.3740   -4.1810 ca        1 I79     -0.077800
     13 C13         4.0740    0.7230   -3.1250 ca        1 I79     -0.050200
     14 C14         3.7120    0.5880   -1.7790 ca        1 I79     -0.155000
     15 C15         3.8300    0.6180   -5.4420 cc        1 I79     -0.031400
     16 C16         5.0920    1.1090   -5.1230 cd        1 I79     -0.165100
     17 N17         5.2440    1.2210   -3.7210 na        1 I79     -0.094400
     18 C18         3.3130    0.3510   -6.7870 c3        1 I79     -0.157200
     19 C19         1.9460    1.0180   -7.0840 c         1 I79      0.922600
     20 O20         1.9500    2.1020   -7.7270 o         1 I79     -0.839300
     21 O21         0.9000    0.4110   -6.7100 o         1 I79     -0.839300
     22 C22         6.4670    1.5160   -3.0560 c3        1 I79      0.119500
     23 C23         7.4850    0.4310   -2.9020 cc        1 I79     -0.122400
     24 C24         8.7930    0.7810   -2.3810 ca        1 I79     -0.060800
     25 C25         9.6430   -0.3550   -2.2850 ca        1 I79     -0.081100
     26 S26         8.8420   -1.7390   -2.8100 ss        1 I79     -0.009500
     27 C27         7.3940   -0.9100   -3.1680 cd        1 I79     -0.021600
     28 C28         6.2610   -1.6760   -3.6930 c3        1 I79     -0.053900
     29 C29        10.9490   -0.2170   -1.8030 ca        1 I79     -0.087000
     30 C30        11.4080    1.0310   -1.4190 ca        1 I79     -0.129000
     31 C31        10.5620    2.1540   -1.5150 ca        1 I79      0.012400
     32 C32         9.2610    2.0430   -1.9900 ca        1 I79     -0.091000
     33 Cl33       11.1580    3.6760   -1.0330 cl        1 I79     -0.110400
     34 H1          1.0340   -1.9280   -0.4570 ha        1 I79      0.138500
     35 H3          2.9240    1.8190    0.5270 ha        1 I79      0.138500
     36 H5          0.8490   -0.4250    3.6200 ha        1 I79      0.122000
     37 HN7        -0.4110   -2.3390    2.8260 hn        1 I79      0.376550
     38 HN7A       -0.2850   -2.9440    1.2900 hn        1 I79      0.376550
     39 HN8         1.7000    1.8220    3.9240 hn        1 I79      0.376550
     40 HN8A        2.5370    2.6490    2.7600 hn        1 I79      0.376550
     41 H10         0.5130   -0.5430   -2.2530 ha        1 I79      0.123000
     42 H11         1.1500   -0.2640   -4.6820 ha        1 I79      0.210000
     43 H14         4.4150    0.8380   -0.9730 ha        1 I79      0.124000
     44 H16         5.8930    1.4370   -5.7860 h4        1 I79      0.158000
     45 H18         3.1790   -0.7560   -6.9110 hc        1 I79      0.036700
     46 H18A        4.0490    0.7070   -7.5540 hc        1 I79      0.036700
     47 H22         6.9640    2.3610   -3.6230 h1        1 I79      0.060700
     48 H22A        6.2170    1.8890   -2.0160 h1        1 I79      0.060700
     49 H28         5.9700   -1.3050   -4.7120 hc        1 I79      0.067367
     50 H28A        6.5130   -2.7630   -3.7690 hc        1 I79      0.067367
     51 H28B        5.3660   -1.5630   -3.0250 hc        1 I79      0.067367
     52 H29        11.6050   -1.0970   -1.7300 ha        1 I79      0.136000
     53 H30        12.4330    1.1510   -1.0390 ha        1 I79      0.140000
     54 H32         8.6020    2.9220   -2.0630 ha        1 I79      0.152000
@<TRIPOS>BOND
     1    1    2 ar  
     2    1    6 ar  
     3    1   34 1   
     4    2    3 ar  
     5    2    9 1   
     6    3    4 ar  
     7    3   35 1   
     8    4    5 ar  
     9    4    8 1   
    10    5    6 ar  
    11    5   36 1   
    12    6    7 1   
    13    7   37 1   
    14    7   38 1   
    15    8   39 1   
    16    8   40 1   
    17    9   10 ar  
    18    9   14 ar  
    19   10   11 ar  
    20   10   41 1   
    21   11   12 ar  
    22   11   42 1   
    23   12   13 ar  
    24   12   15 1   
    25   13   14 ar  
    26   13   17 1   
    27   14   43 1   
    28   15   16 2   
    29   15   18 1   
    30   16   17 1   
    31   16   44 1   
    32   17   22 1   
    33   18   19 1   
    34   18   45 1   
    35   18   46 1   
    36   19   20 1   
    37   19   21 1   
    38   22   23 1   
    39   22   47 1   
    40   22   48 1   
    41   23   24 1   
    42   23   27 2   
    43   24   25 ar  
    44   24   32 ar  
    45   25   26 1   
    46   25   29 ar  
    47   26   27 1   
    48   27   28 1   
    49   28   49 1   
    50   28   50 1   
    51   28   51 1   
    52   29   30 ar  
    53   29   52 1   
    54   30   31 ar  
    55   30   53 1   
    56   31   32 ar  
    57   31   33 1   
    58   32   54 1   
@<TRIPOS>SUBSTRUCTURE
     1 I79         1 TEMP              0 ****  ****    0 ROOT
