@<TRIPOS>MOLECULE
I79
   54    58     1     0     0
SMALL
bcc


@<TRIPOS>ATOM
      1 C1          1.2970   -1.1940    0.3030 ca        1 I79     -0.213000
      2 C2          2.0260   -0.0660   -0.0850 cp        1 I79      0.054000
      3 C3          2.3480    0.9190    0.8540 ca        1 I79     -0.213000
      4 C4          1.9410    0.7830    2.1980 ca        1 I79      0.150100
      5 C5          1.1940   -0.3470    2.5840 ca        1 I79     -0.251000
      6 C6          0.8830   -1.3490    1.6420 ca        1 I79      0.150100
      7 N7          0.2220   -2.5210    2.0500 nh        1 I79     -0.812200
      8 N8          2.3290    1.7360    3.1570 nh        1 I79     -0.812200
      9 C9          2.4350    0.0940   -1.4830 cp        1 I79     -0.048000
     10 C10         1.5270   -0.2320   -2.5130 ca        1 I79     -0.170000
     11 C11         1.8660   -0.0950   -3.8520 ca        1 I79     -0.057000
     12 C12         3.1420    0.3580   -4.1780 ca        1 I79     -0.077800
     13 C13         4.0670    0.7170   -3.1250 ca        1 I79     -0.050200
     14 C14         3.7110    0.5790   -1.7780 ca        1 I79     -0.155000
     15 C15         3.8180    0.6090   -5.4420 cc        1 I79     -0.031400
     16 C16         5.0760    1.1120   -5.1270 cd        1 I79     -0.165100
     17 N17         5.2300    1.2260   -3.7250 na        1 I79     -0.094400
     18 C18         3.3000    0.3370   -6.7850 c3        1 I79     -0.157200
     19 C19         1.9260    0.9900   -7.0790 c         1 I79      0.922600
     20 O20         1.9170    2.0740   -7.7220 o         1 I79     -0.839300
     21 O21         0.8870    0.3730   -6.7020 o         1 I79     -0.839300
     22 C22         6.4520    1.5340   -3.0630 c3        1 I79      0.119500
     23 C23         7.4810    0.4590   -2.9090 cc        1 I79     -0.122400
     24 C24         8.7860    0.8210   -2.3890 ca        1 I79     -0.060800
     25 C25         9.6460   -0.3070   -2.2930 ca        1 I79     -0.081100
     26 S26         8.8590   -1.6980   -2.8180 ss        1 I79     -0.009500
     27 C27         7.4030   -0.8830   -3.1760 cd        1 I79     -0.021600
     28 C28         6.2770   -1.6600   -3.7010 c3        1 I79     -0.053900
     29 C29        10.9510   -0.1570   -1.8110 ca        1 I79     -0.087000
     30 C30        11.3980    1.0960   -1.4270 ca        1 I79     -0.129000
     31 C31        10.5410    2.2110   -1.5220 ca        1 I79      0.012400
     32 C32         9.2420    2.0880   -1.9980 ca        1 I79     -0.091000
     33 CL33       11.1220    3.7390   -1.0400 cl        1 I79     -0.110400
     34 H1          1.0600   -1.9620   -0.4480 ha        1 I79      0.138500
     35 H3          2.9170    1.8030    0.5300 ha        1 I79      0.138500
     36 H5          0.8720   -0.4600    3.6290 ha        1 I79      0.122000
     37 HN7        -0.3720   -2.3860    2.8390 hn        1 I79      0.376550
     38 HN7A       -0.2440   -2.9900    1.3030 hn        1 I79      0.376550
     39 HN8         1.7030    1.7950    3.9300 hn        1 I79      0.376550
     40 HN8A        2.5280    2.6300    2.7640 hn        1 I79      0.376550
     41 H10         0.5210   -0.5830   -2.2430 ha        1 I79      0.123000
     42 H11         1.1490   -0.2990   -4.6740 ha        1 I79      0.210000
     43 H14         4.4130    0.8360   -0.9740 ha        1 I79      0.124000
     44 H16         5.8720    1.4480   -5.7920 h4        1 I79      0.158000
     45 H18         3.1760   -0.7720   -6.9080 hc        1 I79      0.036700
     46 H18A        4.0300    0.6990   -7.5550 hc        1 I79      0.036700
     47 H22         6.9400    2.3820   -3.6330 h1        1 I79      0.060700
     48 H22A        6.2010    1.9060   -2.0240 h1        1 I79      0.060700
     49 H28         5.9830   -1.2920   -4.7200 hc        1 I79      0.067367
     50 H28A        6.5400   -2.7450   -3.7780 hc        1 I79      0.067367
     51 H28B        5.3820   -1.5570   -3.0330 hc        1 I79      0.067367
     52 H29        11.6160   -1.0300   -1.7380 ha        1 I79      0.136000
     53 H30        12.4220    1.2260   -1.0470 ha        1 I79      0.140000
     54 H32         8.5740    2.9590   -2.0700 ha        1 I79      0.152000
@<TRIPOS>BOND
     1    1    2 ar  
     2    1    6 ar  
     3    1   34 1   
     4    2    3 ar  
     5    2    9 1   
     6    3    4 ar  
     7    3   35 1   
     8    4    5 ar  
     9    4    8 1   
    10    5    6 ar  
    11    5   36 1   
    12    6    7 1   
    13    7   37 1   
    14    7   38 1   
    15    8   39 1   
    16    8   40 1   
    17    9   10 ar  
    18    9   14 ar  
    19   10   11 ar  
    20   10   41 1   
    21   11   12 ar  
    22   11   42 1   
    23   12   13 ar  
    24   12   15 1   
    25   13   14 ar  
    26   13   17 1   
    27   14   43 1   
    28   15   16 2   
    29   15   18 1   
    30   16   17 1   
    31   16   44 1   
    32   17   22 1   
    33   18   19 1   
    34   18   45 1   
    35   18   46 1   
    36   19   20 1   
    37   19   21 1   
    38   22   23 1   
    39   22   47 1   
    40   22   48 1   
    41   23   24 1   
    42   23   27 2   
    43   24   25 ar  
    44   24   32 ar  
    45   25   26 1   
    46   25   29 ar  
    47   26   27 1   
    48   27   28 1   
    49   28   49 1   
    50   28   50 1   
    51   28   51 1   
    52   29   30 ar  
    53   29   52 1   
    54   30   31 ar  
    55   30   53 1   
    56   31   32 ar  
    57   31   33 1   
    58   32   54 1   
@<TRIPOS>SUBSTRUCTURE
     1 I79         1 TEMP              0 ****  ****    0 ROOT
