@<TRIPOS>MOLECULE
I79
   54    58     1     0     0
SMALL
bcc


@<TRIPOS>ATOM
      1 C1          1.4820   -1.1990    0.5310 ca        1 I79     -0.216500
      2 C2          2.0750   -0.0200    0.0710 cp        1 I79      0.057000
      3 C3          2.3480    1.0220    0.9610 ca        1 I79     -0.216500
      4 C4          2.0280    0.8950    2.3290 ca        1 I79      0.154600
      5 C5          1.4140   -0.2880    2.7880 ca        1 I79     -0.254000
      6 C6          1.1560   -1.3480    1.8960 ca        1 I79      0.154600
      7 N7          0.6390   -2.5630    2.3750 nh        1 I79     -0.814200
      8 N8          2.3730    1.9100    3.2370 nh        1 I79     -0.814200
      9 C9          2.3930    0.1320   -1.3510 cp        1 I79     -0.064000
     10 C10         1.4700   -0.3140   -2.3200 ca        1 I79     -0.154000
     11 C11         1.7230   -0.1790   -3.6780 ca        1 I79     -0.093000
     12 C12         2.9170    0.4010   -4.0950 ca        1 I79     -0.070800
     13 C13         3.8700    0.8550   -3.0990 ca        1 I79     -0.059200
     14 C14         3.6000    0.7210   -1.7340 ca        1 I79     -0.125000
     15 C15         3.4980    0.6920   -5.3930 cc        1 I79     -0.095400
     16 C16         4.7250    1.3050   -5.1580 cd        1 I79     -0.085100
     17 N17         4.9500    1.4560   -3.7720 na        1 I79     -0.090400
     18 C18         2.9600    0.3580   -6.7140 c3        1 I79     -0.143200
     19 C19         4.0140   -0.2570   -7.6650 c         1 I79      0.915600
     20 O20         5.2270    0.0930   -7.5530 o         1 I79     -0.846800
     21 O21         3.5950   -1.0700   -8.5330 o         1 I79     -0.846800
     22 C22         6.2270    1.7380   -3.1970 c3        1 I79      0.120500
     23 C23         7.2630    0.6620   -3.1610 cc        1 I79     -0.148400
     24 C24         8.4420    0.8780   -2.3450 ca        1 I79     -0.052800
     25 C25         9.3520   -0.2130   -2.4330 ca        1 I79     -0.089100
     26 S26         8.7540   -1.3970   -3.4660 ss        1 I79     -0.005500
     27 C27         7.3200   -0.5390   -3.8220 cd        1 I79      0.018400
     28 C28         6.3750   -1.1660   -4.7470 c3        1 I79     -0.087900
     29 C29        10.5510   -0.1880   -1.7140 ca        1 I79     -0.084000
     30 C30        10.8510    0.9040   -0.9170 ca        1 I79     -0.136000
     31 C31         9.9480    1.9830   -0.8370 ca        1 I79      0.012400
     32 C32         8.7510    1.9830   -1.5400 ca        1 I79     -0.097000
     33 CL33       10.3470    3.3170    0.1500 cl        1 I79     -0.120400
     34 H1          1.2900   -2.0160   -0.1800 ha        1 I79      0.137500
     35 H3          2.8160    1.9430    0.5820 ha        1 I79      0.137500
     36 H5          1.1600   -0.3950    3.8530 ha        1 I79      0.123000
     37 HN7         0.0810   -2.4650    3.1950 hn        1 I79      0.378050
     38 HN7A        0.1910   -3.1090    1.6710 hn        1 I79      0.378050
     39 HN8         2.4730    2.8060    2.8110 hn        1 I79      0.378050
     40 HN8A        1.7920    1.9360    4.0460 hn        1 I79      0.378050
     41 H10         0.5270   -0.7710   -1.9850 ha        1 I79      0.117000
     42 H11         0.9950   -0.5290   -4.4250 ha        1 I79      0.136000
     43 H14         4.3230    1.0540   -0.9760 ha        1 I79      0.129000
     44 H16         5.4660    1.6170   -5.9040 h4        1 I79      0.210000
     45 H18         2.5740    1.2850   -7.2150 hc        1 I79      0.038700
     46 H18A        2.1050   -0.3580   -6.6140 hc        1 I79      0.038700
     47 H22         6.0490    2.0800   -2.1330 h1        1 I79      0.057200
     48 H22A        6.6690    2.6040   -3.7790 h1        1 I79      0.057200
     49 H28         6.2530   -0.5680   -5.7000 hc        1 I79      0.088033
     50 H28A        6.7230   -2.1910   -5.0330 hc        1 I79      0.088033
     51 H28B        5.3590   -1.2560   -4.2830 hc        1 I79      0.088033
     52 H29        11.2520   -1.0320   -1.7830 ha        1 I79      0.134000
     53 H30        11.7910    0.9340   -0.3470 ha        1 I79      0.137000
     54 H32         8.0530    2.8310   -1.4740 ha        1 I79      0.146000
@<TRIPOS>BOND
     1    1    2 ar  
     2    1    6 ar  
     3    1   34 1   
     4    2    3 ar  
     5    2    9 1   
     6    3    4 ar  
     7    3   35 1   
     8    4    5 ar  
     9    4    8 1   
    10    5    6 ar  
    11    5   36 1   
    12    6    7 1   
    13    7   37 1   
    14    7   38 1   
    15    8   39 1   
    16    8   40 1   
    17    9   10 ar  
    18    9   14 ar  
    19   10   11 ar  
    20   10   41 1   
    21   11   12 ar  
    22   11   42 1   
    23   12   13 ar  
    24   12   15 1   
    25   13   14 ar  
    26   13   17 1   
    27   14   43 1   
    28   15   16 2   
    29   15   18 1   
    30   16   17 1   
    31   16   44 1   
    32   17   22 1   
    33   18   19 1   
    34   18   45 1   
    35   18   46 1   
    36   19   20 1   
    37   19   21 1   
    38   22   23 1   
    39   22   47 1   
    40   22   48 1   
    41   23   24 1   
    42   23   27 2   
    43   24   25 ar  
    44   24   32 ar  
    45   25   26 1   
    46   25   29 ar  
    47   26   27 1   
    48   27   28 1   
    49   28   49 1   
    50   28   50 1   
    51   28   51 1   
    52   29   30 ar  
    53   29   52 1   
    54   30   31 ar  
    55   30   53 1   
    56   31   32 ar  
    57   31   33 1   
    58   32   54 1   
@<TRIPOS>SUBSTRUCTURE
     1 I79         1 TEMP              0 ****  ****    0 ROOT
