@<TRIPOS>MOLECULE
I7A
   22    15     1     0     0
SMALL
bcc


@<TRIPOS>ATOM
      1 S1          0.4430   -2.2590    1.6890 ss        1 I7A      2.864000
      2 O1         -0.5930   -3.2220    1.9400 o         1 I7A     -0.927750
      3 O2          1.3020   -2.9970    0.8050 o         1 I7A     -0.927750
      4 N1          1.2240   -1.8490    3.0750 n2        1 I7A     -0.954000
      5 S2          0.8700    1.6530   -2.1130 ss        1 I7A      2.864000
      6 O3          2.2860    1.5720   -1.8850 o         1 I7A     -0.927750
      7 O4          0.6700    3.0750   -2.1180 o         1 I7A     -0.927750
      8 N2          0.4600    0.9880   -3.5580 n2        1 I7A     -0.954000
      9 C1         -0.2030   -0.8100    0.8970 c1        1 I7A     -0.828000
     10 C2          0.4800   -0.2380   -0.1660 c1        1 I7A      0.080000
     11 C3         -0.0380    0.8790   -0.8020 c1        1 I7A     -0.814000
     12 C4         -1.2390    1.4240   -0.3760 c1        1 I7A      0.092000
     13 C5         -1.9220    0.8530    0.6860 c1        1 I7A     -0.115000
     14 C6         -1.4040   -0.2640    1.3220 c2        1 I7A      0.040000
     15 CL1        -1.8970    2.8230   -1.1840 cl        1 I7A      0.036000
     16 CL2        -3.4460    1.5220    1.2040 cl        1 I7A      0.031000
     17 HN11        0.7450   -1.6700    3.8330 hn        1 I7A      0.250750
     18 HN12        2.1360   -1.7960    3.0870 hn        1 I7A      0.250750
     19 HN21       -0.3920    1.0760   -3.8760 hn        1 I7A      0.250750
     20 HN22        1.0890    0.5430   -4.0510 hn        1 I7A      0.250750
     21 H2          1.3140   -0.6360   -0.4800 ha        1 I7A      0.182000
     22 H6         -1.8850   -0.6670    2.0700 ha        1 I7A      0.184000
@<TRIPOS>BOND
     1    1    2 1   
     2    1    3 1   
     3    4   17 1   
     4    4   18 1   
     5    5    6 1   
     6    5    7 1   
     7    8   19 1   
     8    8   20 1   
     9    9   10 1   
    10    9   14 1   
    11   10   21 1   
    12   11   12 1   
    13   12   15 1   
    14   13   14 1   
    15   14   22 1   
@<TRIPOS>SUBSTRUCTURE
     1 I7A         1 TEMP              0 ****  ****    0 ROOT
