@<TRIPOS>MOLECULE
I7A
   24    24     1     0     0
SMALL
bcc


@<TRIPOS>ATOM
      1 S1         -0.0520   -0.1810    0.1690 sy        1 I7A      1.463200
      2 O1          1.3150   -0.1210    0.2660 o         1 I7A     -0.526800
      3 O2         -0.9420   -0.0140    1.2030 o         1 I7A     -0.526800
      4 N1         -0.3920    1.3660   -0.8480 n4        1 I7A     -0.804500
      5 S2         -3.6030   -3.8370   -1.0310 sy        1 I7A      1.453200
      6 O3         -4.3550   -3.0000   -0.2360 o         1 I7A     -0.522300
      7 O4         -3.4790   -5.1860   -0.8320 o         1 I7A     -0.522300
      8 N2         -4.5690   -3.7870   -2.6330 n4        1 I7A     -0.805500
      9 C1         -0.5590   -1.3420   -0.8860 ca        1 I7A     -0.498500
     10 C2         -1.8120   -1.9540   -0.7490 ca        1 I7A      0.126000
     11 C3         -2.1960   -3.0820   -1.4930 ca        1 I7A     -0.482500
     12 C4         -1.2870   -3.5670   -2.4660 ca        1 I7A      0.189400
     13 C5         -0.0280   -2.9570   -2.6450 ca        1 I7A     -0.021600
     14 C6          0.3320   -1.8720   -1.8430 ca        1 I7A      0.082000
     15 CL1        -1.7100   -4.8870   -3.4140 cl        1 I7A      0.053600
     16 CL2         1.0610   -3.5290   -3.7870 cl        1 I7A      0.077600
     17 HN11        0.4710    1.9070   -0.9700 hn        1 I7A      0.473467
     18 HN12       -0.7680    1.1900   -1.7750 hn        1 I7A      0.473467
     19 HN21       -4.7990   -4.7380   -2.9430 hn        1 I7A      0.475800
     20 HN22       -4.0910   -3.3280   -3.4060 hn        1 I7A      0.475800
     21 H2         -2.5200   -1.5490    0.0160 ha        1 I7A      0.209000
     22 H6          1.3520   -1.4400   -1.9470 ha        1 I7A      0.210000
     23 H13        -1.0560    1.9770   -0.3610 hn        1 I7A      0.473467
     24 H23        -5.4610   -3.2980   -2.4970 hn        1 I7A      0.475800
@<TRIPOS>BOND
     1    1    2 2   
     2    1    3 2   
     3    1    4 1   
     4    1    9 1   
     5    4   17 1   
     6    4   18 1   
     7    4   23 1   
     8    5    6 2   
     9    5    7 2   
    10    5    8 1   
    11    5   11 1   
    12    8   19 1   
    13    8   20 1   
    14    8   24 1   
    15    9   10 ar  
    16    9   14 ar  
    17   10   11 ar  
    18   10   21 1   
    19   11   12 ar  
    20   12   13 ar  
    21   12   15 1   
    22   13   14 ar  
    23   13   16 1   
    24   14   22 1   
@<TRIPOS>SUBSTRUCTURE
     1 I7A         1 TEMP              0 ****  ****    0 ROOT
