@<TRIPOS>MOLECULE
I7A
   24    24     1     0     0
SMALL
bcc


@<TRIPOS>ATOM
      1 S1         -0.0490   -0.1720    0.1550 sy        1 I7A      1.463200
      2 O1          1.3190   -0.1160    0.2550 o         1 I7A     -0.526800
      3 O2         -0.9410    0.0110    1.1840 o         1 I7A     -0.526800
      4 N1         -0.3780    1.3670   -0.8790 nz        1 I7A     -0.804500
      5 S2         -3.6130   -3.8230   -1.0180 sy        1 I7A      1.453200
      6 O3         -4.3640   -2.9740   -0.2340 o         1 I7A     -0.522300
      7 O4         -3.4970   -5.1700   -0.8040 o         1 I7A     -0.522300
      8 N2         -4.5740   -3.7850   -2.6230 nz        1 I7A     -0.805500
      9 C1         -0.5580   -1.3410   -0.8900 ca        1 I7A     -0.498500
     10 C2         -1.8140   -1.9450   -0.7490 ca        1 I7A      0.126000
     11 C3         -2.2010   -3.0800   -1.4830 ca        1 I7A     -0.482500
     12 C4         -1.2920   -3.5800   -2.4480 ca        1 I7A      0.189400
     13 C5         -0.0290   -2.9770   -2.6290 ca        1 I7A     -0.021600
     14 C6          0.3330   -1.8850   -1.8380 ca        1 I7A      0.082000
     15 Cl1        -1.7180   -4.9070   -3.3830 cl        1 I7A      0.053600
     16 Cl2         1.0610   -3.5660   -3.7620 cl        1 I7A      0.077600
     17 HN11        0.4880    1.9020   -1.0050 hn        1 I7A      0.473467
     18 HN12       -0.7530    1.1820   -1.8060 hn        1 I7A      0.473467
     19 HN21       -4.8070   -4.7380   -2.9240 hn        1 I7A      0.475800
     20 HN22       -4.0920   -3.3360   -3.3990 hn        1 I7A      0.475800
     21 H2         -2.5220   -1.5300    0.0080 ha        1 I7A      0.209000
     22 H6          1.3560   -1.4600   -1.9440 ha        1 I7A      0.210000
     23 H13        -1.0400    1.9860   -0.4000 hn        1 I7A      0.473467
     24 H23        -5.4640   -3.2900   -2.4950 hn        1 I7A      0.475800
@<TRIPOS>BOND
     1    1    2 2   
     2    1    3 2   
     3    1    4 1   
     4    1    9 1   
     5    4   17 1   
     6    4   18 1   
     7    4   23 1   
     8    5    6 2   
     9    5    7 2   
    10    5    8 1   
    11    5   11 1   
    12    8   19 1   
    13    8   20 1   
    14    8   24 1   
    15    9   10 ar  
    16    9   14 ar  
    17   10   11 ar  
    18   10   21 1   
    19   11   12 ar  
    20   12   13 ar  
    21   12   15 1   
    22   13   14 ar  
    23   13   16 1   
    24   14   22 1   
@<TRIPOS>SUBSTRUCTURE
     1 I7A         1 TEMP              0 ****  ****    0 ROOT
