@<TRIPOS>MOLECULE
I7A
   22    22     1     0     0
SMALL
bcc


@<TRIPOS>ATOM
      1 S1         -3.2220    0.3360   -0.1130 sy        1 I7A      1.527200
      2 O1         -3.9590   -0.8510   -0.2990 o         1 I7A     -0.647800
      3 O2         -3.3650    1.3630   -1.0630 o         1 I7A     -0.647800
      4 N1         -3.4940    0.9210    1.3480 n3        1 I7A     -1.029700
      5 S2          1.9070    1.8540    0.0330 sy        1 I7A      1.522200
      6 O3          1.1450    3.0250    0.2360 o         1 I7A     -0.644800
      7 O4          2.6990    1.7880   -1.1230 o         1 I7A     -0.644800
      8 N2          2.7890    1.5680    1.3290 n3        1 I7A     -1.027700
      9 C1         -1.5730   -0.1000   -0.0460 ca        1 I7A     -0.382500
     10 C2         -0.5720    0.8710   -0.0160 ca        1 I7A      0.080000
     11 C3          0.7880    0.5450    0.0180 ca        1 I7A     -0.368500
     12 C4          1.1390   -0.8140    0.0000 ca        1 I7A      0.170400
     13 C5          0.1490   -1.8090   -0.0380 ca        1 I7A     -0.036600
     14 C6         -1.2000   -1.4460   -0.0610 ca        1 I7A      0.040000
     15 CL1         2.7730   -1.2640    0.0220 cl        1 I7A     -0.044400
     16 CL2         0.5550   -3.4540   -0.0600 cl        1 I7A     -0.047400
     17 HN11       -3.4320    1.8830    1.5720 hn        1 I7A      0.452800
     18 HN12       -3.7800    0.3690    2.1170 hn        1 I7A      0.452800
     19 HN21        2.5670    1.9150    2.2290 hn        1 I7A      0.453800
     20 HN22        3.6350    1.0530    1.3180 hn        1 I7A      0.453800
     21 H2         -0.8620    1.9440   -0.0310 ha        1 I7A      0.182000
     22 H6         -1.9830   -2.2300   -0.1020 ha        1 I7A      0.185000
@<TRIPOS>BOND
     1    1    2 2   
     2    1    3 2   
     3    1    4 1   
     4    1    9 1   
     5    4   17 1   
     6    4   18 1   
     7    5    6 2   
     8    5    7 2   
     9    5    8 1   
    10    5   11 1   
    11    8   19 1   
    12    8   20 1   
    13    9   10 ar  
    14    9   14 ar  
    15   10   11 ar  
    16   10   21 1   
    17   11   12 ar  
    18   12   13 ar  
    19   12   15 1   
    20   13   14 ar  
    21   13   16 1   
    22   14   22 1   
@<TRIPOS>SUBSTRUCTURE
     1 I7A         1 TEMP              0 ****  ****    0 ROOT
