@<TRIPOS>MOLECULE
I7A
   24    24     1     0     0
SMALL
bcc


@<TRIPOS>ATOM
      1 S1         -0.0650   -0.1670    0.1660 sy        1 I7A      1.463200
      2 O1          1.3020   -0.1070    0.2740 o         1 I7A     -0.526800
      3 O2         -0.9640    0.0110    1.1900 o         1 I7A     -0.526800
      4 N1         -0.3940    1.3700   -0.8690 n4        1 I7A     -0.804500
      5 S2         -3.6080   -3.8320   -1.0300 sy        1 I7A      1.453200
      6 O3         -4.3660   -2.9870   -0.2500 o         1 I7A     -0.522300
      7 O4         -3.4870   -5.1790   -0.8170 o         1 I7A     -0.522300
      8 N2         -4.5600   -3.7960   -2.6400 n4        1 I7A     -0.805500
      9 C1         -0.5630   -1.3380   -0.8830 ca        1 I7A     -0.498500
     10 C2         -1.8180   -1.9470   -0.7500 ca        1 I7A      0.126000
     11 C3         -2.1960   -3.0820   -1.4870 ca        1 I7A     -0.482500
     12 C4         -1.2800   -3.5780   -2.4470 ca        1 I7A      0.189400
     13 C5         -0.0190   -2.9700   -2.6210 ca        1 I7A     -0.021600
     14 C6          0.3350   -1.8770   -1.8260 ca        1 I7A      0.082000
     15 CL1        -1.6960   -4.9060   -3.3860 cl        1 I7A      0.053600
     16 CL2         1.0800   -3.5540   -3.7480 cl        1 I7A      0.077600
     17 HN11       -0.7620    1.1850   -1.7980 hn        1 I7A      0.473467
     18 HN12        0.4710    1.9090   -0.9890 hn        1 I7A      0.473467
     19 HN21       -4.7880   -4.7500   -2.9430 hn        1 I7A      0.475800
     20 HN22       -5.4530   -3.3050   -2.5160 hn        1 I7A      0.475800
     21 H2         -2.5320   -1.5350    0.0040 ha        1 I7A      0.209000
     22 H6          1.3570   -1.4480   -1.9260 ha        1 I7A      0.210000
     23 H13        -1.0610    1.9870   -0.3940 hn        1 I7A      0.473467
     24 H23        -4.0760   -3.3450   -3.4130 hn        1 I7A      0.475800
@<TRIPOS>BOND
     1    1    2 2   
     2    1    3 2   
     3    1    4 1   
     4    1    9 1   
     5    4   17 1   
     6    4   18 1   
     7    4   23 1   
     8    5    6 2   
     9    5    7 2   
    10    5    8 1   
    11    5   11 1   
    12    8   19 1   
    13    8   20 1   
    14    8   24 1   
    15    9   10 ar  
    16    9   14 ar  
    17   10   11 ar  
    18   10   21 1   
    19   11   12 ar  
    20   12   13 ar  
    21   12   15 1   
    22   13   14 ar  
    23   13   16 1   
    24   14   22 1   
@<TRIPOS>SUBSTRUCTURE
     1 I7A         1 TEMP              0 ****  ****    0 ROOT
