@<TRIPOS>MOLECULE
I7B
   26    26     1     0     0
SMALL
bcc


@<TRIPOS>ATOM
      1 C2          0.1790    0.0010    0.0740 ca        1 I7B      0.180000
      2 C1          1.5850   -0.1170    0.0420 ca        1 I7B     -0.636500
      3 C6          2.2600   -0.2390    1.3190 ca        1 I7B      0.403600
      4 C5          1.4540   -0.1890    2.5190 ca        1 I7B     -0.214000
      5 C4          0.0960   -0.0640    2.4700 ca        1 I7B      0.180400
      6 C3         -0.6050    0.0580    1.2200 ca        1 I7B     -0.554500
      7 S1          2.2830   -0.2230   -1.4160 sy        1 I7B      1.488200
      8 N1          2.5120    1.6120   -1.8120 n4        1 I7B     -0.801500
      9 O2          3.6000   -0.6270   -1.3610 o         1 I7B     -0.552800
     10 O1          1.4000   -0.5800   -2.4090 o         1 I7B     -0.552800
     11 S2         -2.2070    0.3660    1.0730 sy        1 I7B      1.468200
     12 N2         -2.9180   -1.2240    1.7520 n4        1 I7B     -0.800500
     13 O3         -2.7150    1.2930    1.9470 o         1 I7B     -0.540300
     14 O4         -2.5910    0.3090   -0.2530 o         1 I7B     -0.540300
     15 N3          3.5840   -0.3990    1.4410 nh        1 I7B     -0.770200
     16 CL1        -0.7840   -0.0830    3.9090 cl        1 I7B      0.019600
     17 H2         -0.3480    0.0470   -0.9140 ha        1 I7B      0.197000
     18 H5          1.9620   -0.2690    3.5020 ha        1 I7B      0.206000
     19 HN11        2.2020    2.2410   -1.0750 hn        1 I7B      0.470467
     20 HN12        3.4990    1.8190   -1.9930 hn        1 I7B      0.470467
     21 HN21       -2.2170   -1.8840    2.0840 hn        1 I7B      0.474467
     22 HN22       -3.5460   -1.0290    2.5390 hn        1 I7B      0.474467
     23 HN31        3.9930   -0.4850    2.3530 hn        1 I7B      0.493300
     24 HN32        4.2010   -0.5400    0.6630 hn        1 I7B      0.493300
     25 H13         1.9990    1.8610   -2.6630 hn        1 I7B      0.470467
     26 H23        -3.4750   -1.7050    1.0390 hn        1 I7B      0.474467
@<TRIPOS>BOND
     1    1    2 ar  
     2    1    6 ar  
     3    1   17 1   
     4    2    3 ar  
     5    2    7 1   
     6    3    4 ar  
     7    3   15 1   
     8    4    5 ar  
     9    4   18 1   
    10    5    6 ar  
    11    5   16 1   
    12    6   11 1   
    13    7    8 1   
    14    7    9 2   
    15    7   10 2   
    16    8   19 1   
    17    8   20 1   
    18    8   25 1   
    19   11   12 1   
    20   11   13 2   
    21   11   14 2   
    22   12   21 1   
    23   12   22 1   
    24   12   26 1   
    25   15   23 1   
    26   15   24 1   
@<TRIPOS>SUBSTRUCTURE
     1 I7B         1 TEMP              0 ****  ****    0 ROOT
