@<TRIPOS>MOLECULE
I7B
   27    27     1     0     0
SMALL
bcc


@<TRIPOS>ATOM
      1 C2          0.2270    0.0430    0.1940 ca        1 I7B      0.124000
      2 C1          1.6250   -0.0470    0.1650 ca        1 I7B     -0.476500
      3 C6          2.2700   -0.1720    1.4400 ca        1 I7B      0.180600
      4 C5          1.5280   -0.2010    2.6110 ca        1 I7B     -0.131000
      5 C4          0.1090   -0.1010    2.5880 ca        1 I7B      0.228400
      6 C3         -0.5640    0.0470    1.3600 ca        1 I7B     -0.439500
      7 S1          2.3380   -0.1890   -1.3510 sy        1 I7B      1.458200
      8 N1          2.3010    1.5360   -2.0010 n4        1 I7B     -0.824500
      9 O2          3.6870   -0.4010   -1.1430 o         1 I7B     -0.527300
     10 O1          1.5000   -0.8370   -2.2170 o         1 I7B     -0.527300
     11 S2         -2.2180    0.4100    1.1620 sy        1 I7B      1.433200
     12 N2         -3.0230   -1.2220    1.4450 n4        1 I7B     -0.820500
     13 O3         -2.6950    1.1690    2.1940 o         1 I7B     -0.503800
     14 O4         -2.4290    0.6290   -0.1800 o         1 I7B     -0.503800
     15 N3          3.7310   -0.3030    1.5630 n4        1 I7B     -0.745000
     16 CL1        -0.6890   -0.1770    4.0440 cl        1 I7B      0.151600
     17 H2         -0.3100    0.1060   -0.7880 ha        1 I7B      0.214000
     18 H5          2.0110   -0.3030    3.6110 ha        1 I7B      0.229000
     19 HN11        1.7620    1.5830   -2.8820 hn        1 I7B      0.495133
     20 HN12        3.2500    1.8630   -2.2430 hn        1 I7B      0.495133
     21 HN21       -3.5660   -1.5100    0.6170 hn        1 I7B      0.492467
     22 HN22       -2.3980   -1.9980    1.6630 hn        1 I7B      0.492467
     23 HN31        4.1910    0.6050    1.3860 hn        1 I7B      0.506133
     24 HN32        4.1110   -0.9930    0.8850 hn        1 I7B      0.506133
     25 H13         1.9030    2.2420   -1.3810 hn        1 I7B      0.495133
     26 H23        -3.7030   -1.1670    2.2200 hn        1 I7B      0.492467
     27 H33         3.9880   -0.6140    2.5180 hn        1 I7B      0.506133
@<TRIPOS>BOND
     1    1    2 ar  
     2    1    6 ar  
     3    1   17 1   
     4    2    3 ar  
     5    2    7 1   
     6    3    4 ar  
     7    3   15 1   
     8    4    5 ar  
     9    4   18 1   
    10    5    6 ar  
    11    5   16 1   
    12    6   11 1   
    13    7    8 1   
    14    7    9 2   
    15    7   10 2   
    16    8   19 1   
    17    8   20 1   
    18    8   25 1   
    19   11   12 1   
    20   11   13 2   
    21   11   14 2   
    22   12   21 1   
    23   12   22 1   
    24   12   26 1   
    25   15   23 1   
    26   15   24 1   
    27   15   27 1   
@<TRIPOS>SUBSTRUCTURE
     1 I7B         1 TEMP              0 ****  ****    0 ROOT
