@<TRIPOS>MOLECULE
I7B
   26    26     1     0     0
SMALL
bcc


@<TRIPOS>ATOM
      1 C2          0.1780   -0.0010    0.0740 ca        1 I7B      0.180000
      2 C1          1.5860   -0.1000    0.0400 ca        1 I7B     -0.636500
      3 C6          2.2640   -0.2120    1.3170 ca        1 I7B      0.403600
      4 C5          1.4590   -0.1720    2.5180 ca        1 I7B     -0.214000
      5 C4          0.0990   -0.0650    2.4710 ca        1 I7B      0.180400
      6 C3         -0.6050    0.0470    1.2220 ca        1 I7B     -0.554500
      7 S1          2.2830   -0.1970   -1.4180 sy        1 I7B      1.488200
      8 N1          2.4870    1.6410   -1.8150 nz        1 I7B     -0.801500
      9 O2          3.6060   -0.5840   -1.3660 o         1 I7B     -0.552800
     10 O1          1.4030   -0.5660   -2.4100 o         1 I7B     -0.552800
     11 S2         -2.2110    0.3340    1.0760 sy        1 I7B      1.468200
     12 N2         -2.9000   -1.2650    1.7580 nz        1 I7B     -0.800500
     13 O3         -2.7290    1.2540    1.9520 o         1 I7B     -0.540300
     14 O4         -2.5960    0.2710   -0.2480 o         1 I7B     -0.540300
     15 N3          3.5910   -0.3550    1.4370 nv        1 I7B     -0.770200
     16 Cl1        -0.7780   -0.0960    3.9110 cl        1 I7B      0.019600
     17 H2         -0.3510    0.0380   -0.9120 ha        1 I7B      0.197000
     18 H5          1.9700   -0.2450    3.5000 ha        1 I7B      0.206000
     19 HN11        3.4710    1.8600   -1.9980 hn        1 I7B      0.470467
     20 HN12        1.9700    1.8830   -2.6660 hn        1 I7B      0.470467
     21 HN21       -2.1900   -1.9160    2.0890 hn        1 I7B      0.474467
     22 HN22       -3.5290   -1.0790    2.5460 hn        1 I7B      0.474467
     23 HN31        4.0010   -0.4350    2.3480 hn        1 I7B      0.493300
     24 HN32        4.2080   -0.4880    0.6580 hn        1 I7B      0.493300
     25 H13         2.1700    2.2650   -1.0790 hn        1 I7B      0.470467
     26 H23        -3.4510   -1.7540    1.0460 hn        1 I7B      0.474467
@<TRIPOS>BOND
     1    1    2 ar  
     2    1    6 ar  
     3    1   17 1   
     4    2    3 ar  
     5    2    7 1   
     6    3    4 ar  
     7    3   15 1   
     8    4    5 ar  
     9    4   18 1   
    10    5    6 ar  
    11    5   16 1   
    12    6   11 1   
    13    7    8 1   
    14    7    9 2   
    15    7   10 2   
    16    8   19 1   
    17    8   20 1   
    18    8   25 1   
    19   11   12 1   
    20   11   13 2   
    21   11   14 2   
    22   12   21 1   
    23   12   22 1   
    24   12   26 1   
    25   15   23 1   
    26   15   24 1   
@<TRIPOS>SUBSTRUCTURE
     1 I7B         1 TEMP              0 ****  ****    0 ROOT
