@<TRIPOS>MOLECULE
I7B
   24    18     1     0     0
SMALL
bcc


@<TRIPOS>ATOM
      1 C2         -0.5760    0.0050   -0.5260 c1        1 I7B      0.128000
      2 C1          0.8090   -0.0100   -0.5590 c1        1 I7B     -0.949000
      3 C6          1.5310   -0.0320    0.6240 c1        1 I7B      0.290000
      4 C5          0.8670   -0.0400    1.8410 c2        1 I7B     -0.265000
      5 C4         -0.5190   -0.0260    1.8740 c1        1 I7B      0.136000
      6 C3         -1.2410   -0.0030    0.6910 c1        1 I7B     -0.900000
      7 S1          1.6580   -0.0370   -2.1160 ss        1 I7B      2.882000
      8 N1          2.0410    1.4910   -2.5810 n2        1 I7B     -0.754000
      9 O2          2.8260   -0.8720   -2.0580 o         1 I7B     -0.945500
     10 O1          0.8830   -0.7090   -3.1210 o         1 I7B     -0.945500
     11 S2         -3.0120    0.0640    0.7340 s4        1 I7B      2.089800
     12 N2         -3.6340   -1.4460    0.9050 n2        1 I7B     -0.754000
     13 O3         -3.4750    0.9400    1.7740 o         1 I7B     -0.544900
     14 O4         -3.5380    0.7150   -0.4340 o         1 I7B     -0.544900
     15 N3          2.9490   -0.0300    0.5900 n2        1 I7B     -0.754000
     16 CL1        -1.3540   -0.0120    3.4040 cl        1 I7B      0.005000
     17 H2         -1.0840    0.0210   -1.3590 ha        1 I7B      0.178000
     18 H5          1.3750   -0.0560    2.6740 ha        1 I7B      0.155000
     19 HN11        1.3810    2.0690   -2.8380 hn        1 I7B      0.248833
     20 HN12        2.9140    1.7590   -2.5970 hn        1 I7B      0.248833
     21 HN21       -4.2300   -1.6220    1.5760 hn        1 I7B      0.248833
     22 HN22       -3.3810   -2.1130    0.3330 hn        1 I7B      0.248833
     23 HN31        3.4020    0.7580    0.4900 hn        1 I7B      0.248833
     24 HN32        3.4100   -0.8140    0.6820 hn        1 I7B      0.248833
@<TRIPOS>BOND
     1    1    6 1   
     2    1   17 1   
     3    2    3 1   
     4    3    4 1   
     5    4    5 1   
     6    4   18 1   
     7    5   16 1   
     8    6   11 1   
     9    7    9 1   
    10    7   10 1   
    11    8   19 1   
    12    8   20 1   
    13   11   13 1   
    14   11   14 1   
    15   12   21 1   
    16   12   22 1   
    17   15   23 1   
    18   15   24 1   
@<TRIPOS>SUBSTRUCTURE
     1 I7B         1 TEMP              0 ****  ****    0 ROOT
