@<TRIPOS>MOLECULE
I7B
   24    24     1     0     0
SMALL
bcc


@<TRIPOS>ATOM
      1 C2          0.3820    0.5030    0.0120 ca        1 I7B      0.128000
      2 C1          1.5160   -0.3120   -0.1100 ca        1 I7B     -0.504500
      3 C6          1.3100   -1.7190   -0.2230 ca        1 I7B      0.371600
      4 C5         -0.0350   -2.2160   -0.2340 ca        1 I7B     -0.265000
      5 C4         -1.1030   -1.3560   -0.1080 ca        1 I7B      0.214400
      6 C3         -0.9280    0.0380    0.0430 ca        1 I7B     -0.455500
      7 S1          2.9930    0.5050   -0.1240 sy        1 I7B      1.543200
      8 N1          3.1940    0.9350    1.4020 n3        1 I7B     -1.026700
      9 O2          4.0160   -0.4020   -0.4950 o         1 I7B     -0.666300
     10 O1          2.8540    1.6600   -0.9190 o         1 I7B     -0.666300
     11 S2         -2.1810    1.1520    0.3070 sy        1 I7B      1.534200
     12 N2         -3.0630    1.0510   -1.0200 n3        1 I7B     -1.025700
     13 O3         -2.9400    0.7460    1.4210 o         1 I7B     -0.657300
     14 O4         -1.5850    2.4320    0.3900 o         1 I7B     -0.657300
     15 N3          2.3340   -2.6110   -0.2960 nh        1 I7B     -0.848200
     16 CL1        -2.6720   -2.0120   -0.1570 cl        1 I7B     -0.073400
     17 H2          0.5410    1.6050    0.0800 ha        1 I7B      0.178000
     18 H5         -0.2100   -3.2980   -0.3450 ha        1 I7B      0.155000
     19 HN11        2.9130    1.8130    1.7620 hn        1 I7B      0.452300
     20 HN12        3.6180    0.3610    2.0860 hn        1 I7B      0.452300
     21 HN21       -2.8950    1.5920   -1.8310 hn        1 I7B      0.451300
     22 HN22       -3.8400    0.4460   -1.1170 hn        1 I7B      0.451300
     23 HN31        3.2780   -2.3120   -0.4200 hn        1 I7B      0.457300
     24 HN32        2.1270   -3.5690   -0.4380 hn        1 I7B      0.457300
@<TRIPOS>BOND
     1    1    2 ar  
     2    1    6 ar  
     3    1   17 1   
     4    2    3 ar  
     5    2    7 1   
     6    3    4 ar  
     7    3   15 1   
     8    4    5 ar  
     9    4   18 1   
    10    5    6 ar  
    11    5   16 1   
    12    6   11 1   
    13    7    8 1   
    14    7    9 2   
    15    7   10 2   
    16    8   19 1   
    17    8   20 1   
    18   11   12 1   
    19   11   13 2   
    20   11   14 2   
    21   12   21 1   
    22   12   22 1   
    23   15   23 1   
    24   15   24 1   
@<TRIPOS>SUBSTRUCTURE
     1 I7B         1 TEMP              0 ****  ****    0 ROOT
