@<TRIPOS>MOLECULE
I7C
   29    29     1     0     0
SMALL
bcc


@<TRIPOS>ATOM
      1 C2          0.1840   -0.0340    0.1260 ca        1 I7C      0.163000
      2 C1          1.5940   -0.1070    0.0950 ca        1 I7C     -0.631500
      3 C6          2.2720   -0.1480    1.3720 ca        1 I7C      0.400600
      4 C5          1.4530   -0.0470    2.5690 ca        1 I7C     -0.171000
      5 C4          0.0960    0.0340    2.5190 ca        1 I7C      0.026700
      6 C3         -0.6070    0.0510    1.2660 ca        1 I7C     -0.518500
      7 S1          2.2910   -0.2590   -1.3610 sy        1 I7C      1.487200
      8 N1          2.4060    1.5540   -1.8740 nz        1 I7C     -0.802500
      9 O1          3.6300   -0.5820   -1.2860 o         1 I7C     -0.552800
     10 O2          1.4260   -0.7340   -2.3200 o         1 I7C     -0.552800
     11 S2         -2.2210    0.3100    1.0650 sy        1 I7C      1.460200
     12 N2         -2.8990   -1.3930    1.4090 nz        1 I7C     -0.802500
     13 O3         -2.7940    1.0460    2.0710 o         1 I7C     -0.537800
     14 O4         -2.5180    0.4690   -0.2740 o         1 I7C     -0.537800
     15 N3          3.5950   -0.2780    1.5090 nv        1 I7C     -0.759200
     16 C7         -0.6500    0.1090    3.8830 c3        1 I7C      0.680200
     17 F1         -1.7480   -0.7190    3.9180 f         1 I7C     -0.198633
     18 F2          0.1140   -0.2850    4.9450 f         1 I7C     -0.198633
     19 F3         -1.1020    1.3590    4.1860 f         1 I7C     -0.198633
     20 H2         -0.3380   -0.0440   -0.8650 ha        1 I7C      0.194000
     21 H5          1.9670   -0.0520    3.5550 ha        1 I7C      0.210000
     22 HN11        3.3770    1.8100   -2.0740 hn        1 I7C      0.472467
     23 HN12        2.0590    2.2090   -1.1770 hn        1 I7C      0.472467
     24 HN21       -2.1830   -2.0900    1.6080 hn        1 I7C      0.477133
     25 HN22       -3.5130   -1.3630    2.2330 hn        1 I7C      0.477133
     26 HN31        4.0030   -0.3080    2.4260 hn        1 I7C      0.496800
     27 HN32        4.2210   -0.4300    0.7390 hn        1 I7C      0.496800
     28 H13         1.8760    1.7170   -2.7360 hn        1 I7C      0.472467
     29 H23        -3.4580   -1.7400    0.6260 hn        1 I7C      0.477133
@<TRIPOS>BOND
     1    1    2 ar  
     2    1    6 ar  
     3    1   20 1   
     4    2    3 ar  
     5    2    7 1   
     6    3    4 ar  
     7    3   15 1   
     8    4    5 ar  
     9    4   21 1   
    10    5    6 ar  
    11    5   16 1   
    12    6   11 1   
    13    7    8 1   
    14    7    9 2   
    15    7   10 2   
    16    8   22 1   
    17    8   23 1   
    18    8   28 1   
    19   11   12 1   
    20   11   13 2   
    21   11   14 2   
    22   12   24 1   
    23   12   25 1   
    24   12   29 1   
    25   15   26 1   
    26   15   27 1   
    27   16   17 1   
    28   16   18 1   
    29   16   19 1   
@<TRIPOS>SUBSTRUCTURE
     1 I7C         1 TEMP              0 ****  ****    0 ROOT
