@<TRIPOS>MOLECULE
I7C
   29    29     1     0     0
SMALL
bcc


@<TRIPOS>ATOM
      1 C2          0.1830   -0.0460    0.1270 ca        1 I7C      0.163000
      2 C1          1.5930   -0.1250    0.0950 ca        1 I7C     -0.631500
      3 C6          2.2710   -0.1550    1.3720 ca        1 I7C      0.400600
      4 C5          1.4540   -0.0380    2.5690 ca        1 I7C     -0.171000
      5 C4          0.0980    0.0480    2.5190 ca        1 I7C      0.026700
      6 C3         -0.6060    0.0540    1.2670 ca        1 I7C     -0.518500
      7 S1          2.2880   -0.2950   -1.3600 sy        1 I7C      1.487200
      8 N1          2.4090    1.5120   -1.8920 n4        1 I7C     -0.802500
      9 O1          3.6260   -0.6220   -1.2820 o         1 I7C     -0.552800
     10 O2          1.4200   -0.7770   -2.3130 o         1 I7C     -0.552800
     11 S2         -2.2200    0.3170    1.0640 sy        1 I7C      1.460200
     12 N2         -2.9040   -1.3790    1.4270 n4        1 I7C     -0.802500
     13 O3         -2.7890    1.0670    2.0620 o         1 I7C     -0.537800
     14 O4         -2.5180    0.4620   -0.2770 o         1 I7C     -0.537800
     15 N3          3.5940   -0.2880    1.5090 nh        1 I7C     -0.759200
     16 C7         -0.6470    0.1410    3.8820 c3        1 I7C      0.680200
     17 F1         -1.7480   -0.6820    3.9280 f         1 I7C     -0.198633
     18 F2          0.1170   -0.2440    4.9480 f         1 I7C     -0.198633
     19 F3         -1.0940    1.3960    4.1720 f         1 I7C     -0.198633
     20 H2         -0.3400   -0.0650   -0.8640 ha        1 I7C      0.194000
     21 H5          1.9690   -0.0340    3.5540 ha        1 I7C      0.210000
     22 HN11        3.3820    1.7610   -2.0960 hn        1 I7C      0.472467
     23 HN12        1.8790    1.6680   -2.7550 hn        1 I7C      0.472467
     24 HN21       -3.5170   -1.3380    2.2520 hn        1 I7C      0.477133
     25 HN22       -3.4660   -1.7330    0.6480 hn        1 I7C      0.477133
     26 HN31        4.2190   -0.4520    0.7410 hn        1 I7C      0.496800
     27 HN32        4.0020   -0.3100    2.4260 hn        1 I7C      0.496800
     28 H13         2.0660    2.1750   -1.2020 hn        1 I7C      0.472467
     29 H23        -2.1910   -2.0770    1.6340 hn        1 I7C      0.477133
@<TRIPOS>BOND
     1    1    2 ar  
     2    1    6 ar  
     3    1   20 1   
     4    2    3 ar  
     5    2    7 1   
     6    3    4 ar  
     7    3   15 1   
     8    4    5 ar  
     9    4   21 1   
    10    5    6 ar  
    11    5   16 1   
    12    6   11 1   
    13    7    8 1   
    14    7    9 2   
    15    7   10 2   
    16    8   22 1   
    17    8   23 1   
    18    8   28 1   
    19   11   12 1   
    20   11   13 2   
    21   11   14 2   
    22   12   24 1   
    23   12   25 1   
    24   12   29 1   
    25   15   26 1   
    26   15   27 1   
    27   16   17 1   
    28   16   18 1   
    29   16   19 1   
@<TRIPOS>SUBSTRUCTURE
     1 I7C         1 TEMP              0 ****  ****    0 ROOT
