@<TRIPOS>MOLECULE
I7C
   27    27     1     0     0
SMALL
bcc


@<TRIPOS>ATOM
      1 C2         -0.7060    0.6250   -0.0180 ca        1 I7C      0.109000
      2 C1         -1.7690   -0.2770    0.1240 ca        1 I7C     -0.485500
      3 C6         -1.4510   -1.6610    0.2140 ca        1 I7C      0.362600
      4 C5         -0.0660   -2.0420    0.1670 ca        1 I7C     -0.224000
      5 C4          0.9310   -1.1060    0.0260 ca        1 I7C      0.048700
      6 C3          0.6380    0.2700   -0.0900 ca        1 I7C     -0.415500
      7 S1         -3.3090    0.4230    0.1870 sy        1 I7C      1.541200
      8 N1         -3.6000    0.8120   -1.3330 n3        1 I7C     -1.026700
      9 O1         -4.2390   -0.5600    0.6050 o         1 I7C     -0.664800
     10 O2         -3.2220    1.5920    0.9670 o         1 I7C     -0.664800
     11 S2          1.7450    1.5420   -0.3710 sy        1 I7C      1.527200
     12 N2          2.3060    1.8750    1.0820 n3        1 I7C     -1.026700
     13 O3          2.7710    1.0450   -1.1930 o         1 I7C     -0.653300
     14 O4          0.9980    2.6400   -0.8540 o         1 I7C     -0.653300
     15 N3         -2.3940   -2.6340    0.3160 nh        1 I7C     -0.846200
     16 C7          2.3770   -1.6470   -0.0040 c3        1 I7C      0.675200
     17 F1          3.2810   -0.9010    0.7110 f         1 I7C     -0.225633
     18 F2          2.5100   -2.9040    0.5400 f         1 I7C     -0.225633
     19 F3          2.9070   -1.7720   -1.2590 f         1 I7C     -0.225633
     20 H2         -0.9610    1.7080   -0.0810 ha        1 I7C      0.175000
     21 H5          0.1950   -3.1110    0.2500 ha        1 I7C      0.160000
     22 HN11       -4.0540    0.2160   -1.9790 hn        1 I7C      0.454300
     23 HN12       -3.3500    1.6840   -1.7320 hn        1 I7C      0.454300
     24 HN21        3.0560    1.3810    1.5020 hn        1 I7C      0.455800
     25 HN22        1.9440    2.5890    1.6630 hn        1 I7C      0.455800
     26 HN31       -3.3530   -2.4130    0.4790 hn        1 I7C      0.459300
     27 HN32       -2.1050   -3.5750    0.4380 hn        1 I7C      0.459300
@<TRIPOS>BOND
     1    1    2 ar  
     2    1    6 ar  
     3    1   20 1   
     4    2    3 ar  
     5    2    7 1   
     6    3    4 ar  
     7    3   15 1   
     8    4    5 ar  
     9    4   21 1   
    10    5    6 ar  
    11    5   16 1   
    12    6   11 1   
    13    7    8 1   
    14    7    9 2   
    15    7   10 2   
    16    8   22 1   
    17    8   23 1   
    18   11   12 1   
    19   11   13 2   
    20   11   14 2   
    21   12   24 1   
    22   12   25 1   
    23   15   26 1   
    24   15   27 1   
    25   16   17 1   
    26   16   18 1   
    27   16   19 1   
@<TRIPOS>SUBSTRUCTURE
     1 I7C         1 TEMP              0 ****  ****    0 ROOT
