@<TRIPOS>MOLECULE
I7C
   30    30     1     0     0
SMALL
bcc


@<TRIPOS>ATOM
      1 C2          0.2320    0.0120    0.1570 ca        1 I7C      0.086000
      2 C1          1.6340   -0.0400    0.1580 ca        1 I7C     -0.429500
      3 C6          2.2600   -0.1000    1.4390 ca        1 I7C      0.173600
      4 C5          1.4880   -0.0970    2.6030 ca        1 I7C     -0.103000
      5 C4          0.0830   -0.0330    2.5430 ca        1 I7C      0.063700
      6 C3         -0.5760    0.0380    1.3120 ca        1 I7C     -0.351500
      7 S1          2.3770   -0.2170   -1.3560 sy        1 I7C      1.451200
      8 N1          2.2970    1.4770   -2.0680 n4        1 I7C     -0.827500
      9 O1          3.7260   -0.3810   -1.1130 o         1 I7C     -0.521300
     10 O2          1.5660   -0.9260   -2.1980 o         1 I7C     -0.521300
     11 S2         -2.2570    0.3570    1.0600 sy        1 I7C      1.420200
     12 N2         -3.0430   -1.2680    1.3540 n4        1 I7C     -0.822500
     13 O3         -2.7300    1.1310    2.0830 o         1 I7C     -0.498300
     14 O4         -2.4210    0.5540   -0.2910 o         1 I7C     -0.498300
     15 N3          3.7190   -0.1930    1.6030 n4        1 I7C     -0.746000
     16 C7         -0.6580   -0.0460    3.9280 c3        1 I7C      0.690200
     17 F1         -1.8020   -0.7990    3.8690 f         1 I7C     -0.176300
     18 F2          0.0980   -0.5960    4.9200 f         1 I7C     -0.176300
     19 F3         -1.0160    1.2020    4.3360 f         1 I7C     -0.176300
     20 H2         -0.2880    0.0200   -0.8360 ha        1 I7C      0.215000
     21 H5          1.9580   -0.1500    3.6150 ha        1 I7C      0.234000
     22 HN11        3.2390    1.8270   -2.3070 hn        1 I7C      0.497800
     23 HN12        1.7720    1.4750   -2.9590 hn        1 I7C      0.497800
     24 HN21       -2.4060   -2.0380    1.5680 hn        1 I7C      0.498467
     25 HN22       -3.6930   -1.2140    2.1590 hn        1 I7C      0.498467
     26 HN31        4.1410   -0.8630    0.9290 hn        1 I7C      0.508133
     27 HN32        4.1590    0.7310    1.4550 hn        1 I7C      0.508133
     28 H13         1.8650    2.1940   -1.4830 hn        1 I7C      0.497800
     29 H23        -3.6110   -1.5710    0.5480 hn        1 I7C      0.498467
     30 H33         3.9540   -0.5110    2.5610 hn        1 I7C      0.508133
@<TRIPOS>BOND
     1    1    2 ar  
     2    1    6 ar  
     3    1   20 1   
     4    2    3 ar  
     5    2    7 1   
     6    3    4 ar  
     7    3   15 1   
     8    4    5 ar  
     9    4   21 1   
    10    5    6 ar  
    11    5   16 1   
    12    6   11 1   
    13    7    8 1   
    14    7    9 2   
    15    7   10 2   
    16    8   22 1   
    17    8   23 1   
    18    8   28 1   
    19   11   12 1   
    20   11   13 2   
    21   11   14 2   
    22   12   24 1   
    23   12   25 1   
    24   12   29 1   
    25   15   26 1   
    26   15   27 1   
    27   15   30 1   
    28   16   17 1   
    29   16   18 1   
    30   16   19 1   
@<TRIPOS>SUBSTRUCTURE
     1 I7C         1 TEMP              0 ****  ****    0 ROOT
