@<TRIPOS>MOLECULE
I7C
   27    21     1     0     0
SMALL
bcc


@<TRIPOS>ATOM
      1 C2         -0.4120   -0.2290   -0.7850 c1        1 I7C     -0.060000
      2 C1          0.9730   -0.1820   -0.7890 c1        1 I7C     -0.922000
      3 C6          1.6680   -0.1100    0.4090 c1        1 I7C      0.270000
      4 C5          0.9770   -0.0860    1.6100 c1        1 I7C     -0.060000
      5 C4         -0.4080   -0.1340    1.6140 c1        1 I7C     -0.399000
      6 C3         -1.1030   -0.2050    0.4170 c1        1 I7C     -0.399000
      7 S1          1.8590   -0.2990   -2.3200 s4        1 I7C      2.093800
      8 N1          2.3800    1.1860   -2.7910 n2        1 I7C     -0.954500
      9 O1          1.0580   -0.9170   -3.3400 o         1 I7C     -0.546900
     10 O2          2.9510   -1.2270   -2.2210 o         1 I7C     -0.546900
     11 S2         -2.8740   -0.2940    0.4230 ss        1 I7C      2.864000
     12 N2         -3.4860    0.4820   -0.8900 n2        1 I7C     -0.954500
     13 O3         -3.4180    0.2350    1.6420 o         1 I7C     -0.927500
     14 O4         -3.3270   -1.6550    0.4820 o         1 I7C     -0.927500
     15 N3          3.0850   -0.0620    0.4050 n3        1 I7C     -0.355000
     16 C7         -1.1600   -0.1640    2.9280 c2        1 I7C      0.453000
     17 F1         -1.7150    1.0340    3.1530 f         1 I7C     -0.154000
     18 F2         -0.3110   -0.4560    3.9220 f         1 I7C     -0.154000
     19 F3         -2.1190   -1.0970    2.8720 f         1 I7C     -0.154000
     20 H2         -0.9000   -0.2790   -1.6270 ha        1 I7C      0.175000
     21 H5          1.4660   -0.0360    2.4530 ha        1 I7C      0.175000
     22 HN11        1.7740    1.8340   -3.0130 hn        1 I7C      0.247000
     23 HN12        3.2760    1.3560   -2.8570 hn        1 I7C      0.247000
     24 HN21       -3.5880    1.3900   -0.8770 hn        1 I7C      0.247000
     25 HN22       -3.7310    0.0050   -1.6300 hn        1 I7C      0.247000
     26 HN31        3.5220    0.4930   -0.1750 hn        1 I7C      0.248500
     27 HN32        3.5620   -0.5840    0.9850 hn        1 I7C      0.248500
@<TRIPOS>BOND
     1    1    6 1   
     2    1   20 1   
     3    2    3 1   
     4    2    7 1   
     5    3   15 1   
     6    4    5 1   
     7    4   21 1   
     8    5    6 1   
     9    7    9 1   
    10    7   10 1   
    11    8   22 1   
    12    8   23 1   
    13   11   13 1   
    14   11   14 1   
    15   12   24 1   
    16   12   25 1   
    17   15   26 1   
    18   15   27 1   
    19   16   17 1   
    20   16   18 1   
    21   16   19 1   
@<TRIPOS>SUBSTRUCTURE
     1 I7C         1 TEMP              0 ****  ****    0 ROOT
