@<TRIPOS>MOLECULE
I7T
   52    52     1     0     0
SMALL
bcc


@<TRIPOS>ATOM
      1 O12        -3.6620   -0.3730    0.1150 oh        1 I7T     -0.245000
      2 C12        -2.2550   -0.3730    0.1150 c2        1 I7T      0.111000
      3 C1B        -1.3660   -0.3730    1.6560 c1        1 I7T     -0.285000
      4 C11        -1.1830   -1.6950    2.4460 c1        1 I7T      0.335000
      5 O11        -2.0990   -2.4900    2.5190 o         1 I7T     -0.298000
      6 C1A         0.1770   -2.0230    3.0990 c2        1 I7T     -0.173000
      7 C10         0.4120   -3.3190    3.5900 c1        1 I7T      0.158000
      8 O10        -0.5060   -4.3500    3.3220 o         1 I7T     -0.215000
      9 C9          1.5470   -3.5800    4.3420 c2        1 I7T     -0.238000
     10 C8          2.4500   -2.5640    4.6090 c1        1 I7T     -0.031000
     11 C7          2.2190   -1.2860    4.1250 c1        1 I7T     -0.320000
     12 C61         1.0670   -1.0210    3.3620 c2        1 I7T      0.051000
     13 C6          0.8360    0.3520    2.8000 c3        1 I7T     -0.138000
     14 C5          0.1430    0.9490    0.4820 c3        1 I7T     -0.165000
     15 C1C        -1.6890    0.0370   -0.7760 c3        1 I7T      0.100000
     16 C1         -1.3690   -0.6510   -1.1810 c2        1 I7T      0.287000
     17 O1         -2.0270   -1.6710   -1.2600 o         1 I7T     -0.240000
     18 O1C        -2.6660    0.5680   -1.6400 oh        1 I7T     -0.314000
     19 C41        -0.7300    1.1890   -0.4970 c3        1 I7T     -0.087000
     20 C4          0.1100    1.7660   -1.7740 c3        1 I7T     -0.005000
     21 N4         -0.8740    2.5960   -2.7720 n3        1 I7T     -0.250000
     22 C42        -0.3950    2.4890   -4.1080 c3        1 I7T     -0.132000
     23 C43        -0.8970    3.9670   -2.3830 c3        1 I7T     -0.132000
     24 C3          0.6760    0.9260   -2.3330 c2        1 I7T      0.105000
     25 O3          2.0260    1.1030   -2.6900 oh        1 I7T     -0.250000
     26 C2          0.1140   -0.4470   -2.2040 c2        1 I7T     -0.235000
     27 C21         0.9670   -1.6480   -2.5470 c2        1 I7T      0.369000
     28 C5A        -0.4540    0.5920    1.7500 c3        1 I7T     -0.028000
     29 O21         0.6570   -2.7500   -2.1370 o         1 I7T     -0.362000
     30 I7          3.5790    0.2650    4.5530 i         1 I7T      0.142000
     31 N21         2.1000   -1.4960   -3.3850 n         1 I7T     -0.419000
     32 H12        -3.9580   -0.4440    0.9480 ho        1 I7T      0.261000
     33 H5A        -0.9280    1.3840    2.0690 hc        1 I7T      0.100000
     34 H10        -0.4720   -4.9540    3.9720 ho        1 I7T      0.224000
     35 H9          1.7110   -4.4800    4.6830 ha        1 I7T      0.145000
     36 H8          3.2490   -2.7480    5.1380 ha        1 I7T      0.148000
     37 H61C        0.7180    0.9610    3.5530 hc        1 I7T      0.110000
     38 H62C        1.6500    0.6160    2.3290 hc        1 I7T      0.110000
     39 H51C        0.6870    1.7490    0.6130 hc        1 I7T      0.096500
     40 H52C        0.7280    0.2190    0.2020 hc        1 I7T      0.096500
     41 H41        -1.2870    1.9280   -0.1870 hc        1 I7T      0.131000
     42 H1C        -3.1390   -0.0940   -1.9950 ho        1 I7T      0.240000
     43 H4          0.7320    2.4660   -1.4980 h1        1 I7T      0.070000
     44 H431        0.0110    4.3250   -2.4010 h1        1 I7T      0.081500
     45 H432       -1.2600    4.0430   -1.4800 h1        1 I7T      0.081500
     46 H433       -1.4580    4.4710   -3.0030 h1        1 I7T      0.081500
     47 H421        0.5150    2.8380   -4.1570 h1        1 I7T      0.081500
     48 H422       -0.9730    3.0050   -4.7030 h1        1 I7T      0.081500
     49 H423       -0.4000    1.5520   -4.3820 h1        1 I7T      0.081500
     50 H3          2.0760    1.3880   -3.5290 ho        1 I7T      0.231000
     51 H211        2.2530   -0.7010   -3.8050 hn        1 I7T      0.226500
     52 H212        2.6350   -2.2130   -3.5610 hn        1 I7T      0.226500
@<TRIPOS>BOND
     1    1    2 1   
     2    1   32 1   
     3    2    3 1   
     4    2   15 1   
     5    3   28 1   
     6    4    5 1   
     7    4    6 1   
     8    6    7 1   
     9    6   12 1   
    10    7    9 1   
    11    8   34 1   
    12    9   10 1   
    13    9   35 1   
    14   10   36 1   
    15   11   12 1   
    16   11   30 1   
    17   12   13 1   
    18   13   28 1   
    19   13   37 1   
    20   13   38 1   
    21   14   19 1   
    22   14   28 1   
    23   14   39 1   
    24   14   40 1   
    25   15   16 1   
    26   15   18 1   
    27   15   19 1   
    28   16   17 1   
    29   16   26 1   
    30   18   42 1   
    31   19   20 1   
    32   19   41 1   
    33   20   21 1   
    34   20   24 1   
    35   20   43 1   
    36   21   22 1   
    37   21   23 1   
    38   22   47 1   
    39   22   48 1   
    40   22   49 1   
    41   23   44 1   
    42   23   45 1   
    43   23   46 1   
    44   24   25 1   
    45   24   26 1   
    46   25   50 1   
    47   26   27 1   
    48   27   29 1   
    49   27   31 1   
    50   28   33 1   
    51   31   51 1   
    52   31   52 1   
@<TRIPOS>SUBSTRUCTURE
     1 I7T         1 TEMP              0 ****  ****    0 ROOT
