@<TRIPOS>MOLECULE
I7T
   54    57     1     0     0
SMALL
bcc


@<TRIPOS>ATOM
      1 O12         0.0200    0.1910    0.3540 oh        1 I7T     -0.516100
      2 C12         1.3550    0.1500    0.0790 c2        1 I7T      0.097900
      3 C1B         1.9590    0.2250   -1.1290 ce        1 I7T     -0.246400
      4 C11         1.1830    0.4040   -2.3870 c         1 I7T      0.610900
      5 O11        -0.0520    0.5040   -2.3390 o         1 I7T     -0.524100
      6 C1A         1.9380    0.4680   -3.6410 ca        1 I7T     -0.224600
      7 C10         1.2780    0.2470   -4.8710 ca        1 I7T      0.225100
      8 O10        -0.0400   -0.0940   -4.8190 oh        1 I7T     -0.457100
      9 C9          1.9800    0.3630   -6.0870 ca        1 I7T     -0.221000
     10 C8          3.3230    0.6980   -6.0710 ca        1 I7T     -0.006000
     11 C7          3.9980    0.9100   -4.8580 ca        1 I7T     -0.030100
     12 C61         3.3120    0.7870   -3.6530 ca        1 I7T      0.020700
     13 C6          3.9870    1.0050   -2.3430 c3        1 I7T     -0.045100
     14 C5          4.1900    0.2640    0.0210 c3        1 I7T     -0.083400
     15 C1C         2.1010    0.0030    1.3980 c3        1 I7T      0.138000
     16 C1          2.0630    1.3450    2.1480 c         1 I7T      0.563300
     17 O1          1.0090    1.9770    2.2540 o         1 I7T     -0.485100
     18 O1C         1.4710   -0.9500    2.2470 oh        1 I7T     -0.640800
     19 C41         3.5240   -0.5140    1.1470 c3        1 I7T     -0.080700
     20 C4          4.3890   -0.4360    2.4210 c3        1 I7T      0.123700
     21 N4          3.9370   -1.3840    3.5090 n4        1 I7T     -0.679400
     22 C42         3.9370   -2.7980    3.0280 c3        1 I7T      0.072600
     23 C43         4.7820   -1.2550    4.7260 c3        1 I7T      0.072600
     24 C3          4.3970    1.0040    2.9100 c2        1 I7T      0.224900
     25 O3          5.5150    1.5060    3.4750 oh        1 I7T     -0.423100
     26 C2          3.3070    1.8310    2.7780 ce        1 I7T     -0.339400
     27 C21         3.4020    3.1910    3.3290 c         1 I7T      0.565300
     28 C5A         3.4320    0.0590   -1.2840 c3        1 I7T     -0.009500
     29 O21         4.2300    3.6010    4.1310 o         1 I7T     -0.381100
     30 I7          5.9580    1.3970   -4.9600 i         1 I7T     -0.105900
     31 N21         2.3880    4.2100    2.8880 n4        1 I7T     -0.744400
     32 H12        -0.5140    0.2080   -0.4670 ho        1 I7T      0.505000
     33 H5A         3.6100   -1.0020   -1.6370 hc        1 I7T      0.091700
     34 H10        -0.3750   -0.1900   -5.7270 ho        1 I7T      0.446000
     35 H9          1.4570    0.1930   -7.0420 ha        1 I7T      0.167000
     36 H8          3.8650    0.7950   -7.0290 ha        1 I7T      0.172000
     37 H61C        3.8330    2.0730   -2.0290 hc        1 I7T      0.073700
     38 H62C        5.0950    0.8350   -2.4360 hc        1 I7T      0.073700
     39 H51C        5.2460   -0.0920   -0.1170 hc        1 I7T      0.063200
     40 H52C        4.2260    1.3550    0.2740 hc        1 I7T      0.063200
     41 H41         3.4400   -1.5920    0.8170 hc        1 I7T      0.123700
     42 H1C         0.5050   -0.8940    2.1270 ho        1 I7T      0.493000
     43 H4          5.4470   -0.7420    2.1440 hx        1 I7T      0.131700
     44 H431        4.3820   -1.9420    5.5260 hx        1 I7T      0.117867
     45 H432        5.8390   -1.5510    4.4890 hx        1 I7T      0.117867
     46 H433        4.7500   -0.2000    5.1090 hx        1 I7T      0.117867
     47 H421        3.8210   -3.4830    3.9140 hx        1 I7T      0.117867
     48 H422        3.0620   -2.9510    2.3360 hx        1 I7T      0.117867
     49 H423        4.9000   -3.0280    2.5020 hx        1 I7T      0.117867
     50 H3          6.2510    0.8650    3.4370 ho        1 I7T      0.474000
     51 H211        1.4340    3.8780    3.1150 hn        1 I7T      0.486800
     52 H212        2.4420    4.3490    1.8730 hn        1 I7T      0.486800
     53 H411        2.9560   -1.1430    3.7520 hn        1 I7T      0.483800
     54 H213        2.5640    5.1060    3.3660 hn        1 I7T      0.486800
@<TRIPOS>BOND
     1    1    2 1   
     2    1   32 1   
     3    2    3 2   
     4    2   15 1   
     5    3    4 1   
     6    3   28 1   
     7    4    5 2   
     8    4    6 1   
     9    6    7 ar  
    10    6   12 ar  
    11    7    8 1   
    12    7    9 ar  
    13    8   34 1   
    14    9   10 ar  
    15    9   35 1   
    16   10   11 ar  
    17   10   36 1   
    18   11   12 ar  
    19   11   30 1   
    20   12   13 1   
    21   13   28 1   
    22   13   37 1   
    23   13   38 1   
    24   14   19 1   
    25   14   28 1   
    26   14   39 1   
    27   14   40 1   
    28   15   16 1   
    29   15   18 1   
    30   15   19 1   
    31   16   17 2   
    32   16   26 1   
    33   18   42 1   
    34   19   20 1   
    35   19   41 1   
    36   20   21 1   
    37   20   24 1   
    38   20   43 1   
    39   21   22 1   
    40   21   23 1   
    41   21   53 1   
    42   22   47 1   
    43   22   48 1   
    44   22   49 1   
    45   23   44 1   
    46   23   45 1   
    47   23   46 1   
    48   24   25 1   
    49   24   26 2   
    50   25   50 1   
    51   26   27 1   
    52   27   29 2   
    53   27   31 1   
    54   28   33 1   
    55   31   51 1   
    56   31   52 1   
    57   31   54 1   
@<TRIPOS>SUBSTRUCTURE
     1 I7T         1 TEMP              0 ****  ****    0 ROOT
