@<TRIPOS>MOLECULE
I7T
   52    55     1     0     0
SMALL
bcc


@<TRIPOS>ATOM
      1 O12        -1.8550    2.8610    0.9060 oh        1 I7T     -0.497100
      2 C12        -1.4190    1.7900    0.1920 c2        1 I7T      0.176900
      3 C1B        -0.1280    1.3830    0.0500 ce        1 I7T     -0.313400
      4 C11         1.0030    2.0960    0.6490 c         1 I7T      0.625900
      5 O11         0.8210    3.0890    1.3900 o         1 I7T     -0.629100
      6 C1A         2.3690    1.6370    0.3440 ca        1 I7T     -0.258600
      7 C10         3.4870    2.4770    0.5200 ca        1 I7T      0.227100
      8 O10         3.4530    3.7660    0.9620 oh        1 I7T     -0.496100
      9 C9          4.7870    2.0120    0.2140 ca        1 I7T     -0.189000
     10 C8          4.9610    0.7180   -0.2360 ca        1 I7T     -0.034000
     11 C7          3.8630   -0.1400   -0.3990 ca        1 I7T     -0.037100
     12 C61         2.5770    0.3170   -0.1200 ca        1 I7T      0.047700
     13 C6          1.3890   -0.5660   -0.2660 c3        1 I7T     -0.058100
     14 C5         -0.9990   -0.7450   -0.8910 c3        1 I7T     -0.085400
     15 C1C        -2.6260    1.1610   -0.5100 c3        1 I7T      0.122000
     16 C1         -3.6900    0.8260    0.5570 c         1 I7T      0.602300
     17 O1         -4.3760    1.7480    1.0120 o         1 I7T     -0.529100
     18 O1C        -3.1510    2.1530   -1.3870 oh        1 I7T     -0.581800
     19 C41        -2.2460   -0.0350   -1.3950 c3        1 I7T     -0.050700
     20 C4         -3.3830   -1.0790   -1.4880 c3        1 I7T      0.207700
     21 N4         -4.6070   -0.6150   -2.1490 n3        1 I7T     -0.723600
     22 C42        -4.3660    0.0770   -3.3980 c3        1 I7T      0.144100
     23 C43        -5.5770   -1.6840   -2.2960 c3        1 I7T      0.144100
     24 C3         -3.6970   -1.5120   -0.0560 c2        1 I7T      0.250900
     25 O3         -3.8020   -2.8500    0.0490 oh        1 I7T     -0.491100
     26 C2         -3.8350   -0.5810    0.9350 ce        1 I7T     -0.390400
     27 C21        -4.1510   -0.9720    2.3260 c         1 I7T      0.697300
     28 C5A         0.1870    0.2000   -0.8020 c3        1 I7T      0.007500
     29 O21        -4.1140   -2.1840    2.6740 o         1 I7T     -0.681100
     30 I7          4.2540   -2.0190   -1.0380 i         1 I7T     -0.137900
     31 N21        -4.4630   -0.0230    3.2570 n         1 I7T     -0.646000
     32 H12        -1.1200    3.3220    1.3480 ho        1 I7T      0.471000
     33 H5A         0.4340    0.5730   -1.8390 hc        1 I7T      0.066700
     34 H10         2.5500    4.0220    1.2130 ho        1 I7T      0.462000
     35 H9          5.6400    2.6940    0.3490 ha        1 I7T      0.162000
     36 H8          5.9790    0.3600   -0.4640 ha        1 I7T      0.151000
     37 H61C        1.6080   -1.4210   -0.9610 hc        1 I7T      0.074700
     38 H62C        1.1430   -1.0060    0.7400 hc        1 I7T      0.074700
     39 H51C       -1.1970   -1.1980    0.1170 hc        1 I7T      0.059700
     40 H52C       -0.7460   -1.5830   -1.5940 hc        1 I7T      0.059700
     41 H41        -2.0320    0.3670   -2.4280 hc        1 I7T      0.095700
     42 H1C        -3.5640    2.8370   -0.8340 ho        1 I7T      0.440000
     43 H4         -2.9610   -1.9830   -2.0320 h1        1 I7T      0.061700
     44 H431       -5.7430   -2.1820   -1.3050 h1        1 I7T      0.042867
     45 H432       -6.5450   -1.2320   -2.6370 h1        1 I7T      0.042867
     46 H433       -5.2620   -2.4670   -3.0380 h1        1 I7T      0.042867
     47 H421       -3.6980   -0.4940   -4.0980 h1        1 I7T      0.042867
     48 H422       -5.3490    0.2530   -3.9090 h1        1 I7T      0.042867
     49 H423       -3.9040    1.0760   -3.1770 h1        1 I7T      0.042867
     50 H3         -3.9800   -3.1240    0.9730 ho        1 I7T      0.485000
     51 H211       -4.6020    0.9240    3.0030 hn        1 I7T      0.327000
     52 H212       -4.7030   -0.3170    4.1730 hn        1 I7T      0.327000
@<TRIPOS>BOND
     1    1    2 1   
     2    1   32 1   
     3    2    3 2   
     4    2   15 1   
     5    3    4 1   
     6    3   28 1   
     7    4    5 2   
     8    4    6 1   
     9    6    7 ar  
    10    6   12 ar  
    11    7    8 1   
    12    7    9 ar  
    13    8   34 1   
    14    9   10 ar  
    15    9   35 1   
    16   10   11 ar  
    17   10   36 1   
    18   11   12 ar  
    19   11   30 1   
    20   12   13 1   
    21   13   28 1   
    22   13   37 1   
    23   13   38 1   
    24   14   19 1   
    25   14   28 1   
    26   14   39 1   
    27   14   40 1   
    28   15   16 1   
    29   15   18 1   
    30   15   19 1   
    31   16   17 2   
    32   16   26 1   
    33   18   42 1   
    34   19   20 1   
    35   19   41 1   
    36   20   21 1   
    37   20   24 1   
    38   20   43 1   
    39   21   22 1   
    40   21   23 1   
    41   22   47 1   
    42   22   48 1   
    43   22   49 1   
    44   23   44 1   
    45   23   45 1   
    46   23   46 1   
    47   24   25 1   
    48   24   26 2   
    49   25   50 1   
    50   26   27 1   
    51   27   29 2   
    52   27   31 1   
    53   28   33 1   
    54   31   51 1   
    55   31   52 1   
@<TRIPOS>SUBSTRUCTURE
     1 I7T         1 TEMP              0 ****  ****    0 ROOT
