@<TRIPOS>MOLECULE
I7T
   54    57     1     0     0
SMALL
bcc


@<TRIPOS>ATOM
      1 O12         0.0210    0.2310    0.3610 oh        1 I7T     -0.516100
      2 C12         1.3550    0.1670    0.0850 c2        1 I7T      0.097900
      3 C1B         1.9580    0.2230   -1.1250 ce        1 I7T     -0.246400
      4 C11         1.1840    0.4060   -2.3830 c         1 I7T      0.610900
      5 O11        -0.0500    0.5270   -2.3340 o         1 I7T     -0.524100
      6 C1A         1.9380    0.4510   -3.6390 ca        1 I7T     -0.224600
      7 C10         1.2730    0.2340   -4.8660 ca        1 I7T      0.225100
      8 O10        -0.0510   -0.0860   -4.8100 oh        1 I7T     -0.457100
      9 C9          1.9750    0.3310   -6.0840 ca        1 I7T     -0.221000
     10 C8          3.3230    0.6430   -6.0710 ca        1 I7T     -0.006000
     11 C7          4.0040    0.8510   -4.8610 ca        1 I7T     -0.030100
     12 C61         3.3170    0.7470   -3.6540 ca        1 I7T      0.020700
     13 C6          3.9980    0.9620   -2.3460 c3        1 I7T     -0.045100
     14 C5          4.1920    0.2320    0.0220 c3        1 I7T     -0.083400
     15 C1C         2.1000    0.0160    1.4030 c3        1 I7T      0.138000
     16 C1          2.0870    1.3650    2.1440 c         1 I7T      0.563300
     17 O1          1.0450    2.0160    2.2450 o         1 I7T     -0.485100
     18 O1C         1.4550   -0.9200    2.2600 oh        1 I7T     -0.640800
     19 C41         3.5140   -0.5270    1.1540 c3        1 I7T     -0.080700
     20 C4          4.3810   -0.4550    2.4260 c3        1 I7T      0.123700
     21 N4          3.9150   -1.3890    3.5220 n4        1 I7T     -0.679400
     22 C42         3.8900   -2.8060    3.0500 c3        1 I7T      0.072600
     23 C43         4.7640   -1.2670    4.7360 c3        1 I7T      0.072600
     24 C3          4.4150    0.9870    2.9060 c2        1 I7T      0.224900
     25 O3          5.5420    1.4730    3.4670 oh        1 I7T     -0.423100
     26 C2          3.3400    1.8320    2.7700 ce        1 I7T     -0.339400
     27 C21         3.4590    3.1930    3.3130 c         1 I7T      0.565300
     28 C5A         3.4280    0.0320   -1.2800 c3        1 I7T     -0.009500
     29 O21         4.2930    3.5930    4.1130 o         1 I7T     -0.381100
     30 I7          5.9710    1.3060   -4.9680 i         1 I7T     -0.105900
     31 N21         2.4640    4.2280    2.8640 n4        1 I7T     -0.744400
     32 H12        -0.5140    0.2530   -0.4600 ho        1 I7T      0.505000
     33 H5A         3.5880   -1.0340   -1.6280 hc        1 I7T      0.091700
     34 H10        -0.3890   -0.1810   -5.7170 ho        1 I7T      0.446000
     35 H9          1.4480    0.1630   -7.0360 ha        1 I7T      0.167000
     36 H8          3.8660    0.7270   -7.0300 ha        1 I7T      0.172000
     37 H61C        3.8620    2.0340   -2.0380 hc        1 I7T      0.073700
     38 H62C        5.1020    0.7720   -2.4390 hc        1 I7T      0.073700
     39 H51C        4.2470    1.3240    0.2680 hc        1 I7T      0.063200
     40 H52C        5.2410   -0.1430   -0.1150 hc        1 I7T      0.063200
     41 H41         3.4110   -1.6050    0.8310 hc        1 I7T      0.123700
     42 H1C         0.4900   -0.8480    2.1420 ho        1 I7T      0.493000
     43 H4          5.4350   -0.7810    2.1500 hx        1 I7T      0.131700
     44 H431        4.7510   -0.2080    5.1120 hx        1 I7T      0.117867
     45 H432        5.8160   -1.5820    4.5000 hx        1 I7T      0.117867
     46 H433        4.3540   -1.9410    5.5410 hx        1 I7T      0.117867
     47 H421        3.0120   -2.9480    2.3600 hx        1 I7T      0.117867
     48 H422        4.8490   -3.0550    2.5230 hx        1 I7T      0.117867
     49 H423        3.7640   -3.4830    3.9400 hx        1 I7T      0.117867
     50 H3          6.2670    0.8190    3.4330 ho        1 I7T      0.474000
     51 H211        2.6550    5.1240    3.3360 hn        1 I7T      0.486800
     52 H212        2.5210    4.3600    1.8490 hn        1 I7T      0.486800
     53 H411        2.9390   -1.1300    3.7640 hn        1 I7T      0.483800
     54 H213        1.5040    3.9150    3.0920 hn        1 I7T      0.486800
@<TRIPOS>BOND
     1    1    2 1   
     2    1   32 1   
     3    2    3 2   
     4    2   15 1   
     5    3    4 1   
     6    3   28 1   
     7    4    5 2   
     8    4    6 1   
     9    6    7 ar  
    10    6   12 ar  
    11    7    8 1   
    12    7    9 ar  
    13    8   34 1   
    14    9   10 ar  
    15    9   35 1   
    16   10   11 ar  
    17   10   36 1   
    18   11   12 ar  
    19   11   30 1   
    20   12   13 1   
    21   13   28 1   
    22   13   37 1   
    23   13   38 1   
    24   14   19 1   
    25   14   28 1   
    26   14   39 1   
    27   14   40 1   
    28   15   16 1   
    29   15   18 1   
    30   15   19 1   
    31   16   17 2   
    32   16   26 1   
    33   18   42 1   
    34   19   20 1   
    35   19   41 1   
    36   20   21 1   
    37   20   24 1   
    38   20   43 1   
    39   21   22 1   
    40   21   23 1   
    41   21   53 1   
    42   22   47 1   
    43   22   48 1   
    44   22   49 1   
    45   23   44 1   
    46   23   45 1   
    47   23   46 1   
    48   24   25 1   
    49   24   26 2   
    50   25   50 1   
    51   26   27 1   
    52   27   29 2   
    53   27   31 1   
    54   28   33 1   
    55   31   51 1   
    56   31   52 1   
    57   31   54 1   
@<TRIPOS>SUBSTRUCTURE
     1 I7T         1 TEMP              0 ****  ****    0 ROOT
