@<TRIPOS>MOLECULE
I7T
   54    57     1     0     0
SMALL
bcc


@<TRIPOS>ATOM
      1 O12        -0.0120    0.2520    0.3430 oh        1 I7T     -0.516100
      2 C12         1.3220    0.1540    0.0770 c2        1 I7T      0.097900
      3 C1B         1.9350    0.1900   -1.1290 ce        1 I7T     -0.246400
      4 C11         1.1740    0.3860   -2.3930 c         1 I7T      0.610900
      5 O11        -0.0570    0.5370   -2.3540 o         1 I7T     -0.525100
      6 C1A         1.9380    0.4050   -3.6430 ca        1 I7T     -0.224600
      7 C10         1.2770    0.1960   -4.8740 ca        1 I7T      0.225100
      8 O10        -0.0540   -0.0900   -4.8270 oh        1 I7T     -0.457100
      9 C9          1.9910    0.2700   -6.0870 ca        1 I7T     -0.221000
     10 C8          3.3460    0.5500   -6.0660 ca        1 I7T     -0.007000
     11 C7          4.0220    0.7490   -4.8520 ca        1 I7T     -0.030100
     12 C61         3.3240    0.6670   -3.6500 ca        1 I7T      0.020700
     13 C6          4.0000    0.8730   -2.3380 c3        1 I7T     -0.045100
     14 C5          4.1590    0.1490    0.0350 c3        1 I7T     -0.081400
     15 C1C         2.0550   -0.0050    1.4020 c3        1 I7T      0.141000
     16 C1          2.0720    1.3480    2.1290 c         1 I7T      0.573300
     17 O1          1.0420    2.0220    2.2160 o         1 I7T     -0.500100
     18 O1C         1.3800   -0.9130    2.2640 oh        1 I7T     -0.638800
     19 C41         3.4540   -0.5860    1.1670 c3        1 I7T     -0.085700
     20 C4          4.3190   -0.5410    2.4380 c3        1 I7T      0.153700
     21 N4          3.8990   -1.5530    3.4800 nx        1 I7T     -0.681400
     22 C42         4.3420   -2.9220    3.0810 c3        1 I7T      0.080100
     23 C43         4.4370   -1.2260    4.8280 c3        1 I7T      0.080100
     24 C3          4.3480    0.8890    2.9810 c2        1 I7T      0.278900
     25 O3          5.5130    1.0950    3.6090 oh        1 I7T     -0.453100
     26 C2          3.3260    1.7900    2.7770 ce        1 I7T     -0.405400
     27 C21         3.4730    3.1670    3.2440 c         1 I7T      0.577300
     28 C5A         3.4010   -0.0370   -1.2720 c3        1 I7T     -0.010500
     29 O21         4.4260    3.6160    3.8820 o         1 I7T     -0.459100
     30 I7          6.0000    1.1560   -4.9470 i         1 I7T     -0.105900
     31 N21         2.4020    4.1690    2.9470 nz        1 I7T     -0.732400
     32 H12        -0.5400    0.2720   -0.4820 ho        1 I7T      0.504000
     33 H5A         3.5370   -1.1090   -1.6130 hc        1 I7T      0.091700
     34 H10        -0.3870   -0.1840   -5.7360 ho        1 I7T      0.445000
     35 H9          1.4670    0.1090   -7.0430 ha        1 I7T      0.167000
     36 H8          3.8970    0.6150   -7.0220 ha        1 I7T      0.172000
     37 H61C        3.8890    1.9490   -2.0360 hc        1 I7T      0.074200
     38 H62C        5.1010    0.6560   -2.4220 hc        1 I7T      0.074200
     39 H51C        4.2370    1.2410    0.2790 hc        1 I7T      0.063700
     40 H52C        5.2000   -0.2490   -0.0920 hc        1 I7T      0.063700
     41 H41         3.3160   -1.6610    0.8460 hc        1 I7T      0.122700
     42 H1C         0.4180   -0.8300    2.1300 ho        1 I7T      0.493000
     43 H4          5.3920   -0.8010    2.1520 hx        1 I7T      0.152700
     44 H431        4.2040   -2.0720    5.5320 hx        1 I7T      0.115200
     45 H432        3.9540   -0.2870    5.2080 hx        1 I7T      0.115200
     46 H433        5.5510   -1.0830    4.7710 hx        1 I7T      0.115200
     47 H421        3.9230   -3.1830    2.0730 hx        1 I7T      0.115200
     48 H422        3.9550   -3.6590    3.8400 hx        1 I7T      0.115200
     49 H423        5.4640   -2.9680    3.0550 hx        1 I7T      0.115200
     50 H3          5.6650    2.0240    3.8890 ho        1 I7T      0.508000
     51 H211        2.6360    5.0740    3.3830 hn        1 I7T      0.493133
     52 H212        1.4920    3.8280    3.3070 hn        1 I7T      0.493133
     53 H411        2.8630   -1.5570    3.5290 hn        1 I7T      0.487800
     54 H213        2.3050    4.2910    1.9300 hn        1 I7T      0.493133
@<TRIPOS>BOND
     1    1    2 1   
     2    1   32 1   
     3    2    3 2   
     4    2   15 1   
     5    3    4 1   
     6    3   28 1   
     7    4    5 2   
     8    4    6 1   
     9    6    7 ar  
    10    6   12 ar  
    11    7    8 1   
    12    7    9 ar  
    13    8   34 1   
    14    9   10 ar  
    15    9   35 1   
    16   10   11 ar  
    17   10   36 1   
    18   11   12 ar  
    19   11   30 1   
    20   12   13 1   
    21   13   28 1   
    22   13   37 1   
    23   13   38 1   
    24   14   19 1   
    25   14   28 1   
    26   14   39 1   
    27   14   40 1   
    28   15   16 1   
    29   15   18 1   
    30   15   19 1   
    31   16   17 2   
    32   16   26 1   
    33   18   42 1   
    34   19   20 1   
    35   19   41 1   
    36   20   21 1   
    37   20   24 1   
    38   20   43 1   
    39   21   22 1   
    40   21   23 1   
    41   21   53 1   
    42   22   47 1   
    43   22   48 1   
    44   22   49 1   
    45   23   44 1   
    46   23   45 1   
    47   23   46 1   
    48   24   25 1   
    49   24   26 2   
    50   25   50 1   
    51   26   27 1   
    52   27   29 2   
    53   27   31 1   
    54   28   33 1   
    55   31   51 1   
    56   31   52 1   
    57   31   54 1   
@<TRIPOS>SUBSTRUCTURE
     1 I7T         1 TEMP              0 ****  ****    0 ROOT
