@<TRIPOS>MOLECULE
I84
   49    50     1     0     0
SMALL
bcc


@<TRIPOS>ATOM
      1 C1          2.6080    0.5760   -0.8190 ca        1 I84     -0.129000
      2 C2          2.9930    0.3540    0.5100 ca        1 I84     -0.072300
      3 C3          2.1260   -0.3460    1.3670 ca        1 I84     -0.117300
      4 C4          0.8920   -0.8010    0.8820 ca        1 I84     -0.114000
      5 C5          0.5210   -0.5740   -0.4400 ca        1 I84     -0.131000
      6 C6          1.3830    0.1150   -1.2930 ca        1 I84     -0.115000
      7 C11         4.2940    0.8820    0.9860 c3        1 I84     -0.064800
      8 C15         2.4680   -0.5930    2.7920 c3        1 I84     -0.109100
      9 C16         3.0360   -1.9740    3.0800 c         1 I84      0.674100
     10 N19         3.8280   -2.5510    2.0810 ns        1 I84     -0.463100
     11 C20         4.5410   -3.7390    2.1420 ca        1 I84      0.201600
     12 O21         2.8130   -2.5360    4.1630 o         1 I84     -0.568100
     13 C22         4.6650   -4.5220    3.3140 ca        1 I84     -0.223000
     14 C23         5.4370   -5.6730    3.3270 ca        1 I84      0.118200
     15 C24         6.1130   -6.1410    2.1620 ca        1 I84     -0.541500
     16 C25         5.9750   -5.3510    0.9850 ca        1 I84      0.118200
     17 C26         5.2080   -4.1950    0.9760 ca        1 I84     -0.223000
     18 C29         6.6790   -5.6780   -0.2820 c3        1 I84     -0.126800
     19 C33         5.5270   -6.3990    4.6220 c3        1 I84     -0.126800
     20 S37         6.9730   -7.5050    2.1720 sy        1 I84      1.468200
     21 N38         8.6860   -6.9020    1.9860 ny        1 I84     -0.711900
     22 C39         9.0810   -5.7740    2.8610 c3        1 I84     -0.061200
     23 C40         9.4920   -4.5020    2.0140 c         1 I84      0.927600
     24 O43         9.7490   -3.4780    2.6700 o         1 I84     -0.774300
     25 O44         9.5070   -4.6680    0.7600 o         1 I84     -0.774300
     26 O45         7.0190   -8.1930    3.3860 o         1 I84     -0.616300
     27 O46         6.8290   -8.3120    1.0420 o         1 I84     -0.616300
     28 H1          3.2830    1.1250   -1.4930 ha        1 I84      0.140000
     29 H4          0.2080   -1.3390    1.5580 ha        1 I84      0.139000
     30 H5         -0.4500   -0.9360   -0.8090 ha        1 I84      0.139000
     31 H6          1.0940    0.2980   -2.3390 ha        1 I84      0.139000
     32 H111        4.8950    1.2980    0.1390 hc        1 I84      0.052033
     33 H112        4.1290    1.7030    1.7290 hc        1 I84      0.052033
     34 H113        4.8990    0.0810    1.4790 hc        1 I84      0.052033
     35 H151        3.2230    0.1550    3.1610 hc        1 I84      0.094200
     36 H152        1.5480   -0.4820    3.4310 hc        1 I84      0.094200
     37 H19         3.8880   -2.0470    1.2170 hn        1 I84      0.339500
     38 H22         4.1540   -4.2080    4.2420 ha        1 I84      0.170500
     39 H26         5.1440   -3.6110    0.0420 ha        1 I84      0.170500
     40 H291        7.7070   -5.2110   -0.2630 hc        1 I84      0.083700
     41 H292        6.7630   -6.7750   -0.4740 hc        1 I84      0.083700
     42 H293        6.1360   -5.2370   -1.1570 hc        1 I84      0.083700
     43 H331        5.1220   -7.4390    4.5270 hc        1 I84      0.083700
     44 H332        4.9450   -5.8740    5.4200 hc        1 I84      0.083700
     45 H333        6.5920   -6.4690    4.9630 hc        1 I84      0.083700
     46 H38         9.3410   -7.6680    2.1230 hn        1 I84      0.460300
     47 H391        9.9570   -6.0620    3.4960 hx        1 I84      0.083700
     48 H392        8.2170   -5.5000    3.5220 hx        1 I84      0.083700
     49 H382        8.8480   -6.5490    1.0120 hn        1 I84      0.460300
@<TRIPOS>BOND
     1    1    2 ar  
     2    1    6 ar  
     3    1   28 1   
     4    2    3 ar  
     5    2    7 1   
     6    3    4 ar  
     7    3    8 1   
     8    4    5 ar  
     9    4   29 1   
    10    5    6 ar  
    11    5   30 1   
    12    6   31 1   
    13    7   32 1   
    14    7   33 1   
    15    7   34 1   
    16    8    9 1   
    17    8   35 1   
    18    8   36 1   
    19    9   10 1   
    20    9   12 2   
    21   10   11 1   
    22   10   37 1   
    23   11   13 ar  
    24   11   17 ar  
    25   13   14 ar  
    26   13   38 1   
    27   14   15 ar  
    28   14   19 1   
    29   15   16 ar  
    30   15   20 1   
    31   16   17 ar  
    32   16   18 1   
    33   17   39 1   
    34   18   40 1   
    35   18   41 1   
    36   18   42 1   
    37   19   43 1   
    38   19   44 1   
    39   19   45 1   
    40   20   21 1   
    41   20   26 2   
    42   20   27 2   
    43   21   22 1   
    44   21   46 1   
    45   21   49 1   
    46   22   23 1   
    47   22   47 1   
    48   22   48 1   
    49   23   24 1   
    50   23   25 1   
@<TRIPOS>SUBSTRUCTURE
     1 I84         1 TEMP              0 ****  ****    0 ROOT
