@<TRIPOS>MOLECULE
I84
   49    50     1     0     0
SMALL
bcc


@<TRIPOS>ATOM
      1 C1          2.6910    0.6210   -0.8290 ca        1 I84     -0.129000
      2 C2          3.0210    0.3710    0.5100 ca        1 I84     -0.072300
      3 C3          2.1230   -0.3540    1.3120 ca        1 I84     -0.117300
      4 C4          0.9140   -0.8050    0.7650 ca        1 I84     -0.114000
      5 C5          0.5980   -0.5510   -0.5660 ca        1 I84     -0.131000
      6 C6          1.4910    0.1630   -1.3660 ca        1 I84     -0.115000
      7 C11         4.2970    0.8960    1.0520 c3        1 I84     -0.064800
      8 C15         2.4060   -0.6310    2.7450 c3        1 I84     -0.109100
      9 C16         2.9700   -2.0160    3.0250 c         1 I84      0.674100
     10 N19         3.8090   -2.5640    2.0480 n         1 I84     -0.463100
     11 C20         4.5260   -3.7490    2.1130 ca        1 I84      0.201600
     12 O21         2.7040   -2.6040    4.0850 o         1 I84     -0.568100
     13 C22         4.6040   -4.5590    3.2710 ca        1 I84     -0.223000
     14 C23         5.3810   -5.7070    3.2900 ca        1 I84      0.118200
     15 C24         6.1090   -6.1440    2.1450 ca        1 I84     -0.541500
     16 C25         6.0170   -5.3270    0.9820 ca        1 I84      0.118200
     17 C26         5.2450   -4.1750    0.9670 ca        1 I84     -0.223000
     18 C29         6.7780   -5.6210   -0.2610 c3        1 I84     -0.126800
     19 C33         5.4190   -6.4630    4.5710 c3        1 I84     -0.126800
     20 S37         6.9730   -7.5050    2.1600 sy        1 I84      1.468200
     21 N38         8.6910   -6.8910    2.0630 n4        1 I84     -0.711900
     22 C39         9.0410   -5.7830    2.9800 c3        1 I84     -0.061200
     23 C40         9.4850   -4.4910    2.1820 c         1 I84      0.927600
     24 O43         9.7100   -3.4820    2.8720 o         1 I84     -0.774300
     25 O44         9.5540   -4.6270    0.9260 o         1 I84     -0.774300
     26 O45         6.9700   -8.2220    3.3570 o         1 I84     -0.616300
     27 O46         6.8830   -8.2860    1.0060 o         1 I84     -0.616300
     28 H1          3.3900    1.1900   -1.4620 ha        1 I84      0.140000
     29 H4          0.2060   -1.3630    1.3990 ha        1 I84      0.139000
     30 H5         -0.3540   -0.9100   -0.9850 ha        1 I84      0.139000
     31 H6          1.2460    0.3680   -2.4190 ha        1 I84      0.139000
     32 H111        4.8860    0.0880    1.5520 hc        1 I84      0.052033
     33 H112        4.9300    1.3350    0.2410 hc        1 I84      0.052033
     34 H113        4.0940    1.6990    1.8060 hc        1 I84      0.052033
     35 H151        3.1400    0.1130    3.1630 hc        1 I84      0.094200
     36 H152        1.4580   -0.5410    3.3460 hc        1 I84      0.094200
     37 H19         3.9020   -2.0400    1.2000 hn        1 I84      0.339500
     38 H22         4.0520   -4.2700    4.1830 ha        1 I84      0.170500
     39 H26         5.2180   -3.5700    0.0440 ha        1 I84      0.170500
     40 H291        6.2710   -5.1610   -1.1470 hc        1 I84      0.083700
     41 H292        7.8010   -5.1510   -0.1850 hc        1 I84      0.083700
     42 H293        6.8760   -6.7130   -0.4750 hc        1 I84      0.083700
     43 H331        4.8010   -5.9590    5.3550 hc        1 I84      0.083700
     44 H332        5.0240   -7.5020    4.4350 hc        1 I84      0.083700
     45 H333        6.4690   -6.5370    4.9550 hc        1 I84      0.083700
     46 H38         8.8930   -6.5150    1.1050 hn        1 I84      0.460300
     47 H391        8.1490   -5.5270    3.6090 hx        1 I84      0.083700
     48 H392        9.8900   -6.0830    3.6470 hx        1 I84      0.083700
     49 H382        9.3430   -7.6580    2.2100 hn        1 I84      0.460300
@<TRIPOS>BOND
     1    1    2 ar  
     2    1    6 ar  
     3    1   28 1   
     4    2    3 ar  
     5    2    7 1   
     6    3    4 ar  
     7    3    8 1   
     8    4    5 ar  
     9    4   29 1   
    10    5    6 ar  
    11    5   30 1   
    12    6   31 1   
    13    7   32 1   
    14    7   33 1   
    15    7   34 1   
    16    8    9 1   
    17    8   35 1   
    18    8   36 1   
    19    9   10 1   
    20    9   12 2   
    21   10   11 1   
    22   10   37 1   
    23   11   13 ar  
    24   11   17 ar  
    25   13   14 ar  
    26   13   38 1   
    27   14   15 ar  
    28   14   19 1   
    29   15   16 ar  
    30   15   20 1   
    31   16   17 ar  
    32   16   18 1   
    33   17   39 1   
    34   18   40 1   
    35   18   41 1   
    36   18   42 1   
    37   19   43 1   
    38   19   44 1   
    39   19   45 1   
    40   20   21 1   
    41   20   26 2   
    42   20   27 2   
    43   21   22 1   
    44   21   46 1   
    45   21   49 1   
    46   22   23 1   
    47   22   47 1   
    48   22   48 1   
    49   23   24 1   
    50   23   25 1   
@<TRIPOS>SUBSTRUCTURE
     1 I84         1 TEMP              0 ****  ****    0 ROOT
