@<TRIPOS>MOLECULE
I84
   50    51     1     0     0
SMALL
bcc


@<TRIPOS>ATOM
      1 C1          0.8950   -0.4150    1.1010 ca        1 I84     -0.124000
      2 C2          2.1680   -0.2380    0.5410 ca        1 I84     -0.046300
      3 C3          3.2850   -0.1830    1.3910 ca        1 I84     -0.170300
      4 C4          3.1160   -0.3000    2.7790 ca        1 I84     -0.130000
      5 C5          1.8470   -0.4750    3.3210 ca        1 I84     -0.120000
      6 C6          0.7340   -0.5320    2.4790 ca        1 I84     -0.093000
      7 C11         2.3080   -0.0910   -0.9270 c3        1 I84     -0.071800
      8 C15         4.6470    0.0540    0.8440 c3        1 I84     -0.097100
      9 C16         5.3080   -1.2280    0.3990 c         1 I84      0.557100
     10 N19         5.3450   -2.3060    1.4460 n4        1 I84     -0.581200
     11 C20         5.5270   -3.6850    1.0030 ca        1 I84      0.142600
     12 O21         5.8170   -1.4570   -0.6880 o         1 I84     -0.431100
     13 C22         4.6300   -4.6720    1.4500 ca        1 I84     -0.136500
     14 C23         5.1080   -5.9740    1.6220 ca        1 I84      0.103700
     15 C24         6.4820   -6.2440    1.3810 ca        1 I84     -0.515500
     16 C25         7.1740   -5.3640    0.5030 ca        1 I84      0.103700
     17 C26         6.7010   -4.0640    0.3260 ca        1 I84     -0.136500
     18 C29         8.4440   -5.7610   -0.1480 c3        1 I84     -0.102300
     19 C33         4.1910   -7.0050    2.1580 c3        1 I84     -0.102300
     20 S37         7.2950   -7.3160    2.2820 sy        1 I84      1.479200
     21 N38         8.0090   -6.0640    3.5240 n4        1 I84     -0.692900
     22 C39         7.0280   -5.3330    4.3610 c3        1 I84     -0.005200
     23 C40         6.6470   -3.9620    3.7570 c         1 I84      0.897600
     24 O43         5.5020   -3.4930    3.9780 o         1 I84     -0.822300
     25 O44         7.4820   -3.3800    2.9940 o         1 I84     -0.822300
     26 O45         6.5220   -8.1320    3.0830 o         1 I84     -0.577800
     27 O46         8.4640   -7.8030    1.7300 o         1 I84     -0.577800
     28 H1          0.0130   -0.4520    0.4400 ha        1 I84      0.154000
     29 H4          3.9870   -0.2300    3.4500 ha        1 I84      0.143000
     30 H5          1.7210   -0.5600    4.4120 ha        1 I84      0.157000
     31 H6         -0.2740   -0.6620    2.9060 ha        1 I84      0.155000
     32 H111        2.4930    0.9830   -1.1880 hc        1 I84      0.057367
     33 H112        3.1660   -0.6980   -1.3110 hc        1 I84      0.057367
     34 H113        1.3810   -0.4210   -1.4570 hc        1 I84      0.057367
     35 H151        5.3080    0.5450    1.6120 hc        1 I84      0.118200
     36 H152        4.6040    0.7350   -0.0540 hc        1 I84      0.118200
     37 H19         4.4950   -2.2470    2.0370 hn        1 I84      0.514800
     38 H22         3.6070   -4.4190    1.7780 ha        1 I84      0.188000
     39 H26         7.2890   -3.3300   -0.2530 ha        1 I84      0.188000
     40 H291        9.2920   -5.7450    0.5840 hc        1 I84      0.087700
     41 H292        8.3700   -6.7990   -0.5660 hc        1 I84      0.087700
     42 H293        8.6970   -5.0620   -0.9850 hc        1 I84      0.087700
     43 H331        3.1240   -6.7280    1.9590 hc        1 I84      0.087700
     44 H332        4.3890   -8.0040    1.6920 hc        1 I84      0.087700
     45 H333        4.3200   -7.1120    3.2690 hc        1 I84      0.087700
     46 H38         8.5420   -5.3440    3.0140 hn        1 I84      0.455300
     47 H391        6.1070   -5.9700    4.4790 hx        1 I84      0.106200
     48 H392        7.4600   -5.1390    5.3820 hx        1 I84      0.106200
     49 H192        6.1670   -2.1490    2.1040 hn        1 I84      0.514800
     50 H382        8.6670   -6.5440    4.1340 hn        1 I84      0.455300
@<TRIPOS>BOND
     1    1    2 ar  
     2    1    6 ar  
     3    1   28 1   
     4    2    3 ar  
     5    2    7 1   
     6    3    4 ar  
     7    3    8 1   
     8    4    5 ar  
     9    4   29 1   
    10    5    6 ar  
    11    5   30 1   
    12    6   31 1   
    13    7   32 1   
    14    7   33 1   
    15    7   34 1   
    16    8    9 1   
    17    8   35 1   
    18    8   36 1   
    19    9   10 1   
    20    9   12 2   
    21   10   11 1   
    22   10   37 1   
    23   10   49 1   
    24   11   13 ar  
    25   11   17 ar  
    26   13   14 ar  
    27   13   38 1   
    28   14   15 ar  
    29   14   19 1   
    30   15   16 ar  
    31   15   20 1   
    32   16   17 ar  
    33   16   18 1   
    34   17   39 1   
    35   18   40 1   
    36   18   41 1   
    37   18   42 1   
    38   19   43 1   
    39   19   44 1   
    40   19   45 1   
    41   20   21 1   
    42   20   26 2   
    43   20   27 2   
    44   21   22 1   
    45   21   46 1   
    46   21   50 1   
    47   22   23 1   
    48   22   47 1   
    49   22   48 1   
    50   23   24 1   
    51   23   25 1   
@<TRIPOS>SUBSTRUCTURE
     1 I84         1 TEMP              0 ****  ****    0 ROOT
