@<TRIPOS>MOLECULE
I84
   48    43     1     0     0
SMALL
bcc


@<TRIPOS>ATOM
      1 C1         -3.8370    4.7350   -2.9690 c1        1 I84     -0.129000
      2 C2         -2.7330    4.6250   -2.1220 c1        1 I84     -0.049000
      3 C3         -2.7850    3.7790   -1.0140 c1        1 I84     -0.088000
      4 C4         -3.9410    3.0430   -0.7520 c1        1 I84     -0.129000
      5 C5         -5.0460    3.1520   -1.5990 c1        1 I84     -0.129000
      6 C6         -4.9940    3.9970   -2.7070 c1        1 I84     -0.129000
      7 C11        -1.4910    5.4820   -2.3700 c3        1 I84     -0.191000
      8 C15        -1.5320    3.6300   -0.0830 c3        1 I84     -0.154000
      9 C16        -0.9970    2.1880   -0.1670 c2        1 I84      0.313000
     10 N19        -0.0760    1.6960    0.8400 n         1 I84     -0.317000
     11 C20         0.3940    0.3640    0.7790 c2        1 I84      0.121000
     12 O21        -1.3660    1.4520   -1.0690 o         1 I84     -0.356000
     13 C22        -0.3300   -0.6000    1.4820 c2        1 I84     -0.225000
     14 C23         0.0840   -1.9190    1.4740 c1        1 I84      0.083000
     15 C24         1.2290   -2.2870    0.7590 c1        1 I84     -0.806000
     16 C25         1.9520   -1.3270    0.0580 c1        1 I84      0.074000
     17 C26         1.5370   -0.0040    0.0660 c1        1 I84     -0.197000
     18 C29         3.1100   -1.7610   -0.8620 c3        1 I84     -0.208000
     19 C33        -0.7590   -2.9900    2.1730 c3        1 I84     -0.213000
     20 S37         1.7680   -4.0020    0.7450 s4        1 I84      2.056800
     21 N38         3.1130   -4.1920    1.7110 n2        1 I84     -0.889000
     22 C39         3.7670   -5.4780    1.7970 c3        1 I84     -0.103000
     23 C40         5.2750   -5.2750    1.9520 c2        1 I84      0.331000
     24 O43         5.9790   -4.9770    0.9490 o         1 I84     -0.564500
     25 O44         5.8170   -5.4180    3.0850 o         1 I84     -0.564500
     26 O45         0.7110   -4.8830    1.1440 o         1 I84     -0.572400
     27 O46         2.0200   -4.4580   -0.5950 o         1 I84     -0.572400
     28 H1         -3.7690    5.2630   -3.7970 ha        1 I84      0.132000
     29 H4         -3.9770    2.4500    0.0260 ha        1 I84      0.132000
     30 H5         -5.8650    2.6300   -1.4130 ha        1 I84      0.132000
     31 H6         -5.7710    4.0740   -3.3030 ha        1 I84      0.132000
     32 H111       -1.3430    6.0760   -1.6000 hc        1 I84      0.091667
     33 H112       -0.7120    4.9000   -2.4890 hc        1 I84      0.091667
     34 H113       -1.6220    6.0220   -3.1800 hc        1 I84      0.091667
     35 H151       -1.7870    3.8290    0.8430 hc        1 I84      0.120000
     36 H152       -0.8310    4.2590   -0.3730 hc        1 I84      0.120000
     37 H19         0.1960    2.2460    1.5190 hn        1 I84      0.234000
     38 H22        -1.1320   -0.3420    1.9810 ha        1 I84      0.126000
     39 H26         2.0350    0.6660   -0.4360 ha        1 I84      0.164000
     40 H291        3.4900   -0.9660   -1.3090 hc        1 I84      0.101667
     41 H292        2.7740   -2.3890   -1.5400 hc        1 I84      0.101667
     42 H293        3.8080   -2.2000   -0.3270 hc        1 I84      0.101667
     43 H331       -1.1580   -3.5810    1.5010 hc        1 I84      0.104667
     44 H332       -0.1890   -3.5140    2.7700 hc        1 I84      0.104667
     45 H333       -1.4760   -2.5550    2.6990 hc        1 I84      0.104667
     46 H38         3.4480   -3.4790    2.1710 hn        1 I84      0.275000
     47 H391        3.5880   -5.9920    0.9800 h1        1 I84      0.073500
     48 H392        3.4210   -5.9690    2.5740 h1        1 I84      0.073500
@<TRIPOS>BOND
     1    1    6 1   
     2    1   28 1   
     3    2    3 1   
     4    2    7 1   
     5    3    8 1   
     6    4    5 1   
     7    4   29 1   
     8    5   30 1   
     9    6   31 1   
    10    7   32 1   
    11    7   33 1   
    12    7   34 1   
    13    8    9 1   
    14    8   35 1   
    15    8   36 1   
    16    9   10 1   
    17    9   12 1   
    18   10   11 1   
    19   10   37 1   
    20   11   13 1   
    21   11   17 1   
    22   13   14 1   
    23   13   38 1   
    24   14   19 1   
    25   15   16 1   
    26   15   20 1   
    27   16   18 1   
    28   17   39 1   
    29   18   40 1   
    30   18   41 1   
    31   18   42 1   
    32   19   43 1   
    33   19   44 1   
    34   19   45 1   
    35   20   26 1   
    36   20   27 1   
    37   21   22 1   
    38   21   46 1   
    39   22   23 1   
    40   22   47 1   
    41   22   48 1   
    42   23   24 1   
    43   23   25 1   
@<TRIPOS>SUBSTRUCTURE
     1 I84         1 TEMP              0 ****  ****    0 ROOT
