@<TRIPOS>MOLECULE
I84
   48    49     1     0     0
SMALL
bcc


@<TRIPOS>ATOM
      1 C1         -1.6750    0.6510    6.6150 ca        1 I84     -0.132000
      2 C2         -0.6610    1.2820    5.8820 ca        1 I84     -0.071300
      3 C3          0.1820    0.5060    5.0670 ca        1 I84     -0.093300
      4 C4          0.0020   -0.8820    5.0130 ca        1 I84     -0.121000
      5 C5         -1.0090   -1.4980    5.7460 ca        1 I84     -0.130000
      6 C6         -1.8520   -0.7280    6.5480 ca        1 I84     -0.126000
      7 C11        -0.4980    2.7520    5.9830 c3        1 I84     -0.056800
      8 C15         1.2910    1.1290    4.2980 c3        1 I84     -0.119100
      9 C16         1.5150    0.5210    2.9170 c         1 I84      0.665100
     10 N19         0.3900    0.3750    2.1260 n         1 I84     -0.466100
     11 C20         0.3250   -0.0840    0.7990 ca        1 I84      0.112600
     12 O21         2.6670    0.2230    2.5520 o         1 I84     -0.591100
     13 C22         1.4560   -0.2600   -0.0140 ca        1 I84     -0.212500
     14 C23         1.3190   -0.6960   -1.3370 ca        1 I84      0.071700
     15 C24         0.0600   -0.9980   -1.8840 ca        1 I84     -0.360500
     16 C25        -1.0730   -0.7930   -1.0710 ca        1 I84      0.071700
     17 C26        -0.9470   -0.3530    0.2450 ca        1 I84     -0.212500
     18 C29        -2.4500   -1.0330   -1.5770 c3        1 I84     -0.087300
     19 C33         2.5690   -0.8130   -2.1340 c3        1 I84     -0.087300
     20 S37        -0.1220   -1.5960   -3.4910 sy        1 I84      1.499200
     21 N38        -0.5060   -0.3210   -4.3340 n3        1 I84     -0.917100
     22 C39         0.3460    0.8020   -4.6100 c3        1 I84      0.079800
     23 C40        -0.4000    2.0180   -5.2490 c         1 I84      0.918600
     24 O43         0.3250    3.0000   -5.5550 o         1 I84     -0.828300
     25 O44        -1.6500    1.9460   -5.4060 o         1 I84     -0.828300
     26 O45         1.1080   -2.1810   -3.8890 o         1 I84     -0.685300
     27 O46        -1.1980   -2.5330   -3.4980 o         1 I84     -0.685300
     28 H1         -2.3400    1.2560    7.2500 ha        1 I84      0.130000
     29 H4          0.6700   -1.4900    4.3820 ha        1 I84      0.146000
     30 H5         -1.1420   -2.5880    5.6890 ha        1 I84      0.135000
     31 H6         -2.6540   -1.2090    7.1260 ha        1 I84      0.130000
     32 H111        0.5510    3.0110    6.2720 hc        1 I84      0.046033
     33 H112       -0.7230    3.2380    5.0000 hc        1 I84      0.046033
     34 H113       -1.1880    3.1830    6.7500 hc        1 I84      0.046033
     35 H151        1.1190    2.2300    4.1530 hc        1 I84      0.083700
     36 H152        2.2510    1.0090    4.8740 hc        1 I84      0.083700
     37 H19        -0.4890    0.5680    2.5570 hn        1 I84      0.321500
     38 H22         2.4640   -0.0490    0.3800 ha        1 I84      0.145000
     39 H26        -1.8570   -0.2070    0.8480 ha        1 I84      0.145000
     40 H291       -2.6050   -2.1260   -1.7750 hc        1 I84      0.064367
     41 H292       -3.2170   -0.6950   -0.8380 hc        1 I84      0.064367
     42 H293       -2.6250   -0.4780   -2.5320 hc        1 I84      0.064367
     43 H331        2.7960   -1.8910   -2.3390 hc        1 I84      0.064367
     44 H332        2.4560   -0.2940   -3.1210 hc        1 I84      0.064367
     45 H333        3.4370   -0.3600   -1.5950 hc        1 I84      0.064367
     46 H38        -1.4420   -0.1360   -4.6460 hn        1 I84      0.484800
     47 H391        0.8160    1.1690   -3.6540 h1        1 I84      0.030200
     48 H392        1.1680    0.4890   -5.3120 h1        1 I84      0.030200
@<TRIPOS>BOND
     1    1    2 ar  
     2    1    6 ar  
     3    1   28 1   
     4    2    3 ar  
     5    2    7 1   
     6    3    4 ar  
     7    3    8 1   
     8    4    5 ar  
     9    4   29 1   
    10    5    6 ar  
    11    5   30 1   
    12    6   31 1   
    13    7   32 1   
    14    7   33 1   
    15    7   34 1   
    16    8    9 1   
    17    8   35 1   
    18    8   36 1   
    19    9   10 1   
    20    9   12 2   
    21   10   11 1   
    22   10   37 1   
    23   11   13 ar  
    24   11   17 ar  
    25   13   14 ar  
    26   13   38 1   
    27   14   15 ar  
    28   14   19 1   
    29   15   16 ar  
    30   15   20 1   
    31   16   17 ar  
    32   16   18 1   
    33   17   39 1   
    34   18   40 1   
    35   18   41 1   
    36   18   42 1   
    37   19   43 1   
    38   19   44 1   
    39   19   45 1   
    40   20   21 1   
    41   20   26 2   
    42   20   27 2   
    43   21   22 1   
    44   21   46 1   
    45   22   23 1   
    46   22   47 1   
    47   22   48 1   
    48   23   24 1   
    49   23   25 1   
@<TRIPOS>SUBSTRUCTURE
     1 I84         1 TEMP              0 ****  ****    0 ROOT
