@<TRIPOS>MOLECULE
I85
   56    60     1     0     0
SMALL
bcc


@<TRIPOS>ATOM
      1 N1         -0.0620    0.1830    0.1660 ns        1 I85     -0.560400
      2 N2         10.2200   -1.6490   -0.2720 n7        1 I85     -0.821200
      3 C3         10.9350   -0.4440    0.1000 c3        1 I85      0.158800
      4 C4          2.3380    0.2070   -0.1740 ca        1 I85     -0.289300
      5 N5          1.3930    0.5550    2.0550 nb        1 I85     -0.668000
      6 N6          6.0730   -0.0620   -0.1510 na        1 I85     -0.144100
      7 C7          8.3700   -0.3490   -1.3120 c3        1 I85      0.011300
      8 N8          8.0570   -0.0860   -3.8100 ns        1 I85     -0.575900
      9 C9          6.7020    0.2300   -3.7420 c         1 I85      0.737100
     10 C10         9.1040    0.9430   -0.9420 c3        1 I85     -0.071400
     11 C11        10.5980    0.7460   -0.7960 c3        1 I85     -0.079400
     12 C12         8.7850   -1.4700   -0.3330 c3        1 I85      0.169800
     13 O13         6.0890    0.5830   -4.7680 o         1 I85     -0.641500
     14 C14         6.8970   -0.1100   -1.2570 cc        1 I85     -0.057600
     15 C15         6.1150    0.1700   -2.4050 cd        1 I85     -0.215600
     16 C16         4.7720    0.3810   -1.9760 cd        1 I85     -0.087000
     17 C17         4.7620    0.2300   -0.5730 cc        1 I85     -0.109300
     18 C18         3.6360    0.3420    0.3320 ca        1 I85      0.066000
     19 C19         3.8010    0.5930    1.7020 ca        1 I85     -0.292300
     20 C20         2.6510    0.6850    2.5020 ca        1 I85      0.435200
     21 C21         1.2270    0.3280    0.7140 ca        1 I85      0.547200
     22 C22         8.7200   -0.8040   -2.7560 c3        1 I85      0.112000
     23 C23        -1.2760    0.5390    0.7540 c         1 I85      0.681700
     24 C24        -2.4890    0.1410   -0.0300 ca        1 I85     -0.152600
     25 C25        -2.6080    0.4270   -1.3930 ca        1 I85     -0.081000
     26 C26        -3.7660    0.0640   -2.0810 ca        1 I85     -0.138000
     27 C27        -4.8030   -0.5860   -1.4150 ca        1 I85     -0.063000
     28 C28        -4.6810   -0.8640   -0.0510 ca        1 I85     -0.174300
     29 C29        -3.5310   -0.4980    0.6500 ca        1 I85     -0.034000
     30 O30        -1.3800    1.1430    1.8300 o         1 I85     -0.520100
     31 C31        -5.8260   -1.5540    0.6820 c3        1 I85      0.689200
     32 F32        -6.5430   -2.4360   -0.0920 f         1 I85     -0.233967
     33 F33        -5.4420   -2.2970    1.7710 f         1 I85     -0.233967
     34 F34        -6.7760   -0.6940    1.1760 f         1 I85     -0.233967
     35 HN1        -0.0920   -0.2480   -0.7310 hn        1 I85      0.324500
     36 H3         12.0360   -0.6680    0.0150 h1        1 I85      0.031700
     37 H3A        10.7300   -0.1480    1.1720 h1        1 I85      0.031700
     38 H4          2.1880    0.0100   -1.2450 ha        1 I85      0.148000
     39 HN6         6.3420   -0.2270    0.7840 hn        1 I85      0.301700
     40 HN8         8.4730   -0.1310   -4.7120 hn        1 I85      0.318500
     41 H10         8.6870    1.3240    0.0280 hc        1 I85      0.054200
     42 H10A        8.9030    1.7190   -1.7250 hc        1 I85      0.054200
     43 H11        11.0660    0.6010   -1.8050 hc        1 I85      0.052700
     44 H11A       11.0510    1.6670   -0.3470 hc        1 I85      0.052700
     45 H12         8.3290   -2.4440   -0.6690 h1        1 I85      0.030700
     46 H12A        8.3570   -1.2230    0.6840 h1        1 I85      0.030700
     47 H16         3.9270    0.6260   -2.6140 ha        1 I85      0.171000
     48 H19         4.7900    0.7340    2.1540 ha        1 I85      0.137000
     49 H20         2.7350    0.8770    3.5890 h4        1 I85      0.029100
     50 H22         9.8320   -0.6910   -2.9020 h1        1 I85      0.052700
     51 H22A        8.4730   -1.9050   -2.8330 h1        1 I85      0.052700
     52 H25        -1.8020    0.9560   -1.9260 ha        1 I85      0.145000
     53 H26        -3.8620    0.2930   -3.1530 ha        1 I85      0.149000
     54 H27        -5.7170   -0.8830   -1.9560 ha        1 I85      0.156000
     55 H29        -3.4420   -0.7040    1.7310 ha        1 I85      0.173000
     56 HN2        10.4450   -2.3960    0.3590 hn        1 I85      0.369800
@<TRIPOS>BOND
     1    1   21 1   
     2    1   23 1   
     3    1   35 1   
     4    2    3 1   
     5    2   12 1   
     6    2   56 1   
     7    3   11 1   
     8    3   36 1   
     9    3   37 1   
    10    4   18 ar  
    11    4   21 ar  
    12    4   38 1   
    13    5   20 ar  
    14    5   21 ar  
    15    6   14 1   
    16    6   17 1   
    17    6   39 1   
    18    7   10 1   
    19    7   12 1   
    20    7   14 1   
    21    7   22 1   
    22    8    9 1   
    23    8   22 1   
    24    8   40 1   
    25    9   13 2   
    26    9   15 1   
    27   10   11 1   
    28   10   41 1   
    29   10   42 1   
    30   11   43 1   
    31   11   44 1   
    32   12   45 1   
    33   12   46 1   
    34   14   15 2   
    35   15   16 1   
    36   16   17 2   
    37   16   47 1   
    38   17   18 1   
    39   18   19 ar  
    40   19   20 ar  
    41   19   48 1   
    42   20   49 1   
    43   22   50 1   
    44   22   51 1   
    45   23   24 1   
    46   23   30 2   
    47   24   25 ar  
    48   24   29 ar  
    49   25   26 ar  
    50   25   52 1   
    51   26   27 ar  
    52   26   53 1   
    53   27   28 ar  
    54   27   54 1   
    55   28   29 ar  
    56   28   31 1   
    57   29   55 1   
    58   31   32 1   
    59   31   33 1   
    60   31   34 1   
@<TRIPOS>SUBSTRUCTURE
     1 I85         1 TEMP              0 ****  ****    0 ROOT
