@<TRIPOS>MOLECULE
I85
   57    61     1     0     0
SMALL
bcc


@<TRIPOS>ATOM
      1 N1         -0.3730   -1.0150   -2.2350 n4        1 I85     -0.661500
      2 N2         10.1460   -1.4760   -0.7770 n3        1 I85     -0.823200
      3 C3         10.3810   -1.1550    0.6170 c3        1 I85      0.157800
      4 C4          2.0560   -0.7830   -1.7620 ca        1 I85     -0.212300
      5 N5          0.7840   -2.7170   -0.9530 nb        1 I85     -0.688000
      6 N6          5.7290   -1.0010   -0.8900 na        1 I85     -0.137100
      7 C7          8.1310   -0.0320   -0.8800 c3        1 I85     -0.002700
      8 N8          8.0930    2.2430   -1.9940 n         1 I85     -0.569900
      9 C9          6.7160    2.2870   -2.1680 c         1 I85      0.733100
     10 C10         8.3480    0.3390    0.5900 c3        1 I85     -0.070400
     11 C11         9.7930    0.1960    1.0180 c3        1 I85     -0.080400
     12 C12         8.7520   -1.4210   -1.1540 c3        1 I85      0.175800
     13 O13         6.1490    3.3190   -2.5740 o         1 I85     -0.625500
     14 C14         6.6650   -0.0340   -1.1720 cc        1 I85     -0.002600
     15 C15         6.0000    1.0680   -1.7790 cd        1 I85     -0.217600
     16 C16         4.6240    0.7490   -1.8720 cd        1 I85     -0.041000
     17 C17         4.4600   -0.5490   -1.3170 cc        1 I85     -0.178300
     18 C18         3.2440   -1.2980   -1.1860 ca        1 I85      0.105000
     19 C19         3.1620   -2.5240   -0.5070 ca        1 I85     -0.234300
     20 C20         1.9210   -3.1840   -0.4190 ca        1 I85      0.448200
     21 C21         0.8740   -1.5280   -1.6170 ca        1 I85      0.462200
     22 C22         8.7980    1.0010   -1.8310 c3        1 I85      0.110000
     23 C23        -0.8620    0.2460   -1.5340 c         1 I85      0.584700
     24 C24        -1.9190    0.1020   -0.5360 ca        1 I85     -0.203600
     25 C25        -2.2470   -1.1090    0.0970 ca        1 I85     -0.059000
     26 C26        -3.2680   -1.1410    1.0420 ca        1 I85     -0.131000
     27 C27        -3.9700    0.0230    1.3690 ca        1 I85     -0.007000
     28 C28        -3.6370    1.2280    0.7450 ca        1 I85     -0.174300
     29 C29        -2.6150    1.2790   -0.2010 ca        1 I85      0.000000
     30 O30        -0.3310    1.2750   -1.9310 o         1 I85     -0.426100
     31 C31        -4.3840    2.5120    1.1140 c3        1 I85      0.692200
     32 F32        -5.6720    2.3030    1.5350 f         1 I85     -0.217967
     33 F33        -3.7900    3.2160    2.1310 f         1 I85     -0.217967
     34 F34        -4.4900    3.4070    0.0800 f         1 I85     -0.217967
     35 HN1        -0.1550   -0.7870   -3.2140 hn        1 I85      0.471800
     36 H3A         9.9590   -1.9450    1.3070 h1        1 I85      0.039200
     37 H4          2.0740    0.1800   -2.2980 ha        1 I85      0.182000
     38 HN6         5.9090   -1.8780   -0.4730 hn        1 I85      0.306700
     39 HN8         8.6230    3.0310   -2.2900 hn        1 I85      0.332500
     40 H10         8.0100    1.3950    0.7600 hc        1 I85      0.053200
     41 H10A        7.7080   -0.3300    1.2250 hc        1 I85      0.053200
     42 H11        10.4080    1.0220    0.5750 hc        1 I85      0.059700
     43 H11A        9.8580    0.2950    2.1340 hc        1 I85      0.059700
     44 H12         8.6800   -1.6510   -2.2540 h1        1 I85      0.028200
     45 H12A        8.1380   -2.1920   -0.5980 h1        1 I85      0.028200
     46 H16         3.8500    1.3940   -2.2840 ha        1 I85      0.174000
     47 H19         4.0390   -2.9850   -0.0310 ha        1 I85      0.165000
     48 H20         1.8270   -4.1530    0.1120 h4        1 I85      0.058100
     49 H22         9.8260    1.2330   -1.4310 h1        1 I85      0.064200
     50 H22A        8.9240    0.5020   -2.8380 h1        1 I85      0.064200
     51 H25        -1.7020   -2.0430   -0.1140 ha        1 I85      0.158000
     52 H26        -3.5240   -2.0910    1.5400 ha        1 I85      0.174000
     53 H27        -4.7860   -0.0060    2.1140 ha        1 I85      0.184000
     54 H29        -2.3550    2.2390   -0.6860 ha        1 I85      0.186000
     55 HN2        10.5340   -2.3730   -1.0040 hn        1 I85      0.380800
     56 H121       -1.1080   -1.7340   -2.2110 hn        1 I85      0.471800
     57 H3         11.4970   -1.1300    0.7710 h1        1 I85      0.039200
@<TRIPOS>BOND
     1    1   21 1   
     2    1   23 1   
     3    1   35 1   
     4    1   56 1   
     5    2    3 1   
     6    2   12 1   
     7    2   55 1   
     8    3   11 1   
     9    3   36 1   
    10    3   57 1   
    11    4   18 ar  
    12    4   21 ar  
    13    4   37 1   
    14    5   20 ar  
    15    5   21 ar  
    16    6   14 1   
    17    6   17 1   
    18    6   38 1   
    19    7   10 1   
    20    7   12 1   
    21    7   14 1   
    22    7   22 1   
    23    8    9 1   
    24    8   22 1   
    25    8   39 1   
    26    9   13 2   
    27    9   15 1   
    28   10   11 1   
    29   10   40 1   
    30   10   41 1   
    31   11   42 1   
    32   11   43 1   
    33   12   44 1   
    34   12   45 1   
    35   14   15 2   
    36   15   16 1   
    37   16   17 2   
    38   16   46 1   
    39   17   18 1   
    40   18   19 ar  
    41   19   20 ar  
    42   19   47 1   
    43   20   48 1   
    44   22   49 1   
    45   22   50 1   
    46   23   24 1   
    47   23   30 2   
    48   24   25 ar  
    49   24   29 ar  
    50   25   26 ar  
    51   25   51 1   
    52   26   27 ar  
    53   26   52 1   
    54   27   28 ar  
    55   27   53 1   
    56   28   29 ar  
    57   28   31 1   
    58   29   54 1   
    59   31   32 1   
    60   31   33 1   
    61   31   34 1   
@<TRIPOS>SUBSTRUCTURE
     1 I85         1 TEMP              0 ****  ****    0 ROOT
