@<TRIPOS>MOLECULE
I85
   56    60     1     0     0
SMALL
bcc


@<TRIPOS>ATOM
      1 N1         -0.0440   -0.3930    0.1150 n         1 I85     -0.564400
      2 N2         10.3360   -1.4340   -0.4050 n3        1 I85     -0.821200
      3 C3         10.9670   -0.2290    0.0970 c3        1 I85      0.158800
      4 C4          2.3500   -0.1560   -0.2020 ca        1 I85     -0.281300
      5 N5          1.3710   -0.0520    2.0370 nb        1 I85     -0.668000
      6 N6          6.0920   -0.1440   -0.1670 na        1 I85     -0.143100
      7 C7          8.4080   -0.1590   -1.3260 c3        1 I85      0.011300
      8 N8          8.0880    0.3390   -3.7880 n         1 I85     -0.574900
      9 C9          6.7140    0.5540   -3.7020 c         1 I85      0.737100
     10 C10         9.0520    1.1340   -0.8180 c3        1 I85     -0.071400
     11 C11        10.5550    1.0220   -0.6770 c3        1 I85     -0.079400
     12 C12         8.8920   -1.3450   -0.4630 c3        1 I85      0.169800
     13 O13         6.0830    0.9700   -4.6940 o         1 I85     -0.641500
     14 C14         6.9220   -0.0250   -1.2630 cc        1 I85     -0.057600
     15 C15         6.1270    0.3180   -2.3850 cd        1 I85     -0.214600
     16 C16         4.7710    0.3920   -1.9520 cd        1 I85     -0.088000
     17 C17         4.7660    0.0990   -0.5710 cc        1 I85     -0.109300
     18 C18         3.6320    0.0430    0.3270 ca        1 I85      0.063000
     19 C19         3.7710    0.1860    1.7160 ca        1 I85     -0.287300
     20 C20         2.6130    0.1280    2.5080 ca        1 I85      0.433200
     21 C21         1.2320   -0.2040    0.6830 ca        1 I85      0.544200
     22 C22         8.7930   -0.4390   -2.8060 c3        1 I85      0.112000
     23 C23        -1.1720   -0.8970    0.7620 c         1 I85      0.683700
     24 C24        -2.4460   -0.7910   -0.0170 ca        1 I85     -0.151600
     25 C25        -2.5280   -1.1990   -1.3510 ca        1 I85     -0.081000
     26 C26        -3.7420   -1.1110   -2.0330 ca        1 I85     -0.138000
     27 C27        -4.8730   -0.6120   -1.3890 ca        1 I85     -0.063000
     28 C28        -4.7870   -0.2100   -0.0530 ca        1 I85     -0.173300
     29 C29        -3.5800   -0.3040    0.6420 ca        1 I85     -0.033000
     30 O30        -1.1470   -1.4170    1.8860 o         1 I85     -0.526100
     31 C31        -6.0210    0.3470    0.6460 c3        1 I85      0.689200
     32 F32        -7.2100   -0.1850    0.2080 f         1 I85     -0.233967
     33 F33        -6.0460    0.1590    2.0050 f         1 I85     -0.233967
     34 F34        -6.1860    1.7040    0.4910 f         1 I85     -0.233967
     35 HN1        -0.1460   -0.0670   -0.8190 hn        1 I85      0.325500
     36 H3         12.0810   -0.3700    0.0020 h1        1 I85      0.031700
     37 H3A        10.7380   -0.0590    1.1910 h1        1 I85      0.031700
     38 H4          2.2190   -0.2800   -1.2860 ha        1 I85      0.149000
     39 HN6         6.3670   -0.3910    0.7480 hn        1 I85      0.301700
     40 HN8         8.5090    0.4130   -4.6850 hn        1 I85      0.318500
     41 H10         8.6060    1.3850    0.1820 hc        1 I85      0.053700
     42 H10A        8.8030    1.9720   -1.5200 hc        1 I85      0.053700
     43 H11        11.0360    1.0130   -1.6900 hc        1 I85      0.052200
     44 H11A       10.9440    1.9210   -0.1310 hc        1 I85      0.052200
     45 H12         8.4450   -1.2320    0.5700 h1        1 I85      0.030700
     46 H12A        8.5040   -2.3070   -0.9020 h1        1 I85      0.030700
     47 H16         3.9140    0.6430   -2.5710 ha        1 I85      0.171000
     48 H19         4.7450    0.3580    2.1880 ha        1 I85      0.137000
     49 H20         2.6770    0.2410    3.6070 h4        1 I85      0.029100
     50 H22         9.8950   -0.2380   -2.9270 h1        1 I85      0.052700
     51 H22A        8.6210   -1.5400   -2.9970 h1        1 I85      0.052700
     52 H25        -1.6450   -1.6090   -1.8660 ha        1 I85      0.144000
     53 H26        -3.8080   -1.4380   -3.0810 ha        1 I85      0.149000
     54 H27        -5.8350   -0.5400   -1.9220 ha        1 I85      0.156000
     55 H29        -3.5180   -0.0110    1.7040 ha        1 I85      0.174000
     56 HN2        10.6080   -2.2250    0.1490 hn        1 I85      0.370800
@<TRIPOS>BOND
     1    1   21 1   
     2    1   23 1   
     3    1   35 1   
     4    2    3 1   
     5    2   12 1   
     6    2   56 1   
     7    3   11 1   
     8    3   36 1   
     9    3   37 1   
    10    4   18 ar  
    11    4   21 ar  
    12    4   38 1   
    13    5   20 ar  
    14    5   21 ar  
    15    6   14 1   
    16    6   17 1   
    17    6   39 1   
    18    7   10 1   
    19    7   12 1   
    20    7   14 1   
    21    7   22 1   
    22    8    9 1   
    23    8   22 1   
    24    8   40 1   
    25    9   13 2   
    26    9   15 1   
    27   10   11 1   
    28   10   41 1   
    29   10   42 1   
    30   11   43 1   
    31   11   44 1   
    32   12   45 1   
    33   12   46 1   
    34   14   15 2   
    35   15   16 1   
    36   16   17 2   
    37   16   47 1   
    38   17   18 1   
    39   18   19 ar  
    40   19   20 ar  
    41   19   48 1   
    42   20   49 1   
    43   22   50 1   
    44   22   51 1   
    45   23   24 1   
    46   23   30 2   
    47   24   25 ar  
    48   24   29 ar  
    49   25   26 ar  
    50   25   52 1   
    51   26   27 ar  
    52   26   53 1   
    53   27   28 ar  
    54   27   54 1   
    55   28   29 ar  
    56   28   31 1   
    57   29   55 1   
    58   31   32 1   
    59   31   33 1   
    60   31   34 1   
@<TRIPOS>SUBSTRUCTURE
     1 I85         1 TEMP              0 ****  ****    0 ROOT
