@<TRIPOS>MOLECULE
I92
   21    19     1     0     0
SMALL
bcc


@<TRIPOS>ATOM
      1 O01        -1.0760   -1.5530    3.9310 o         1 I92     -0.543000
      2 C02        -0.7430   -2.4680    3.1330 c2        1 I92      0.327000
      3 O03        -0.1440   -3.4900    3.5620 o         1 I92     -0.543000
      4 C04        -1.0790   -2.3500    1.6630 c2        1 I92      0.186000
      5 O05        -2.1260   -2.7990    1.2410 o         1 I92     -0.318000
      6 C06        -0.1270   -1.6420    0.7250 c3        1 I92     -0.272000
      7 C07        -0.8620   -0.5340    0.0030 c2        1 I92      0.295000
      8 O08        -2.0750   -0.5460   -0.0530 o         1 I92     -0.284000
      9 C09        -0.0850    0.5840   -0.6560 c2        1 I92     -0.106000
     10 C10         0.2520    1.7150    0.0710 c1        1 I92     -0.089000
     11 C11         0.9260    2.7590   -0.5440 c1        1 I92     -0.128000
     12 C12         1.2620    2.6720   -1.8850 c1        1 I92     -0.128000
     13 C13         0.9250    1.5410   -2.6120 c1        1 I92     -0.129000
     14 C14         0.2520    0.4970   -1.9970 c2        1 I92     -0.141000
     15 BR15       -0.2000   -1.0690   -2.9960 br        1 I92      0.027000
     16 H06         0.2220   -2.2810    0.0710 hc        1 I92      0.118500
     17 H06A        0.6140   -1.2620    1.2370 hc        1 I92      0.118500
     18 H10         0.0150    1.7770    1.0160 ha        1 I92      0.219000
     19 H11         1.1490    3.5620   -0.0360 ha        1 I92      0.130000
     20 H12         1.7370    3.4070   -2.3180 ha        1 I92      0.130000
     21 H13         1.1630    1.4790   -3.5570 ha        1 I92      0.131000
@<TRIPOS>BOND
     1    1    2 1   
     2    2    3 1   
     3    2    4 1   
     4    4    5 1   
     5    4    6 1   
     6    6    7 1   
     7    6   16 1   
     8    6   17 1   
     9    7    8 1   
    10    7    9 1   
    11    9   10 1   
    12    9   14 1   
    13   10   18 1   
    14   11   12 1   
    15   11   19 1   
    16   12   20 1   
    17   13   14 1   
    18   13   21 1   
    19   14   15 1   
@<TRIPOS>SUBSTRUCTURE
     1 I92         1 TEMP              0 ****  ****    0 ROOT
