@<TRIPOS>MOLECULE
I92
   21    21     1     0     0
SMALL
bcc


@<TRIPOS>ATOM
      1 O01        -4.2310    1.2110    1.2280 o         1 I92     -0.808300
      2 C02        -3.0990    1.4740    0.7550 c         1 I92      0.854600
      3 O03        -2.6890    2.6190    0.4090 o         1 I92     -0.808300
      4 C04        -2.1300    0.3020    0.5100 c         1 I92      0.461100
      5 O05        -1.6560   -0.4200    1.3910 o         1 I92     -0.558100
      6 C06        -1.8340    0.0730   -0.9550 c3        1 I92     -0.294400
      7 C07        -0.3940   -0.0060   -1.3660 c         1 I92      0.602700
      8 O08        -0.0790   -0.5880   -2.4140 o         1 I92     -0.554100
      9 C09         0.6100    0.7280   -0.5510 ca        1 I92     -0.124600
     10 C10         0.2890    2.0350   -0.1530 ca        1 I92     -0.090000
     11 C11         1.2100    2.8100    0.5480 ca        1 I92     -0.124000
     12 C12         2.4560    2.2810    0.8790 ca        1 I92     -0.127000
     13 C13         2.7720    0.9730    0.5230 ca        1 I92     -0.136000
     14 C14         1.8530    0.1900   -0.1870 ca        1 I92      0.026100
     15 BR15        2.3590   -1.5830   -0.5590 br        1 I92     -0.103100
     16 H06        -2.3530   -0.8710   -1.2730 hc        1 I92      0.090200
     17 H06A       -2.2860    0.9260   -1.5360 hc        1 I92      0.090200
     18 H10        -0.7290    2.4390   -0.3550 ha        1 I92      0.212000
     19 H11         0.9370    3.8300    0.8540 ha        1 I92      0.139000
     20 H12         3.1860    2.8870    1.4340 ha        1 I92      0.121000
     21 H13         3.7470    0.5540    0.8110 ha        1 I92      0.131000
@<TRIPOS>BOND
     1    1    2 1   
     2    2    3 1   
     3    2    4 1   
     4    4    5 2   
     5    4    6 1   
     6    6    7 1   
     7    6   16 1   
     8    6   17 1   
     9    7    8 2   
    10    7    9 1   
    11    9   10 ar  
    12    9   14 ar  
    13   10   11 ar  
    14   10   18 1   
    15   11   12 ar  
    16   11   19 1   
    17   12   13 ar  
    18   12   20 1   
    19   13   14 ar  
    20   13   21 1   
    21   14   15 1   
@<TRIPOS>SUBSTRUCTURE
     1 I92         1 TEMP              0 ****  ****    0 ROOT
