@<TRIPOS>MOLECULE
I92
   21    21     1     0     0
SMALL
bcc


@<TRIPOS>ATOM
      1 O01         2.0560   -1.1420    0.6890 o         1 I92     -0.808300
      2 C02         3.0610   -0.6880    0.0910 c         1 I92      0.854600
      3 O03         4.1490   -0.3390    0.6310 o         1 I92     -0.808300
      4 C04         2.9570   -0.4750   -1.4320 c         1 I92      0.461100
      5 O05         2.7970   -1.3730   -2.2630 o         1 I92     -0.558100
      6 C06         3.0240    0.9810   -1.8330 c3        1 I92     -0.294400
      7 C07         4.0160    1.3630   -2.8910 c         1 I92      0.602700
      8 O08         3.8510    2.3980   -3.5520 o         1 I92     -0.554100
      9 C09         5.2430    0.5360   -3.0330 ca        1 I92     -0.124600
     10 C10         5.9090    0.1590   -1.8550 ca        1 I92     -0.090000
     11 C11         7.1050   -0.5520   -1.9130 ca        1 I92     -0.124000
     12 C12         7.6420   -0.9130   -3.1480 ca        1 I92     -0.127000
     13 C13         6.9710   -0.5770   -4.3210 ca        1 I92     -0.136000
     14 C14         5.7720    0.1420   -4.2710 ca        1 I92      0.026100
     15 BR15        4.9190    0.4850   -5.9120 br        1 I92     -0.103100
     16 H06         3.2880    1.5800   -0.9150 hc        1 I92      0.090200
     17 H06A        1.9990    1.2990   -2.1660 hc        1 I92      0.090200
     18 H10         5.4510    0.3850   -0.8660 ha        1 I92      0.212000
     19 H11         7.6090   -0.8420   -0.9790 ha        1 I92      0.139000
     20 H12         8.5850   -1.4750   -3.1990 ha        1 I92      0.121000
     21 H13         7.3880   -0.8890   -5.2900 ha        1 I92      0.131000
@<TRIPOS>BOND
     1    1    2 1   
     2    2    3 1   
     3    2    4 1   
     4    4    5 2   
     5    4    6 1   
     6    6    7 1   
     7    6   16 1   
     8    6   17 1   
     9    7    8 2   
    10    7    9 1   
    11    9   10 ar  
    12    9   14 ar  
    13   10   11 ar  
    14   10   18 1   
    15   11   12 ar  
    16   11   19 1   
    17   12   13 ar  
    18   12   20 1   
    19   13   14 ar  
    20   13   21 1   
    21   14   15 1   
@<TRIPOS>SUBSTRUCTURE
     1 I92         1 TEMP              0 ****  ****    0 ROOT
