@<TRIPOS>MOLECULE
I93
   24    24     1     0     0
SMALL
bcc


@<TRIPOS>ATOM
      1 C01         0.4400   -0.8290   -0.5470 c3        1 I93     -0.048800
      2 C02         1.7880   -0.2610   -0.3130 ca        1 I93     -0.098300
      3 C03         2.3720   -0.3550    0.9540 ca        1 I93     -0.098000
      4 C04         3.6350    0.1670    1.2010 ca        1 I93     -0.174000
      5 C05         4.3470    0.7860    0.1580 ca        1 I93      0.157900
      6 F06         5.5700    1.3050    0.4220 f         1 I93     -0.134900
      7 C07         3.7900    0.8790   -1.1370 ca        1 I93     -0.164600
      8 C08         4.5790    1.5060   -2.2400 c         1 I93      0.608700
      9 O09         4.2350    2.5880   -2.7270 o         1 I93     -0.536100
     10 C10         5.8230    0.7860   -2.6490 c3        1 I93     -0.300400
     11 C11         5.6510   -0.4720   -3.4720 c         1 I93      0.477100
     12 O12         4.5930   -0.7640   -4.0320 o         1 I93     -0.572100
     13 C13         6.9450   -1.3110   -3.5250 c         1 I93      0.859600
     14 O14         7.6960   -1.1410   -4.5180 o         1 I93     -0.803800
     15 O15         7.1590   -2.0690   -2.5430 o         1 I93     -0.803800
     16 C16         2.5020    0.3690   -1.3480 ca        1 I93      0.081400
     17 Cl17        1.7820    0.5060   -2.8800 cl        1 I93     -0.055400
     18 H01         0.4860   -1.6140   -1.3440 hc        1 I93      0.046033
     19 H01A        0.0300   -1.2920    0.3830 hc        1 I93      0.046033
     20 H01B       -0.2660   -0.0300   -0.8860 hc        1 I93      0.046033
     21 H03         1.8240   -0.8520    1.7680 ha        1 I93      0.130000
     22 H04         4.0920    0.0940    2.1970 ha        1 I93      0.144000
     23 H10         6.3960    0.4940   -1.7250 hc        1 I93      0.097200
     24 H10A        6.4680    1.4770   -3.2590 hc        1 I93      0.097200
@<TRIPOS>BOND
     1    1    2 1   
     2    1   18 1   
     3    1   19 1   
     4    1   20 1   
     5    2    3 ar  
     6    2   16 ar  
     7    3    4 ar  
     8    3   21 1   
     9    4    5 ar  
    10    4   22 1   
    11    5    6 1   
    12    5    7 ar  
    13    7    8 1   
    14    7   16 ar  
    15    8    9 2   
    16    8   10 1   
    17   10   11 1   
    18   10   23 1   
    19   10   24 1   
    20   11   12 2   
    21   11   13 1   
    22   13   14 1   
    23   13   15 1   
    24   16   17 1   
@<TRIPOS>SUBSTRUCTURE
     1 I93         1 TEMP              0 ****  ****    0 ROOT
