@<TRIPOS>MOLECULE
I93
   24    24     1     0     0
SMALL
bcc


@<TRIPOS>ATOM
      1 C01         4.0230   -0.7330    0.8970 c3        1 I93     -0.048800
      2 C02         3.0080    0.1500    0.2790 ca        1 I93     -0.098300
      3 C03         3.1860    1.5370    0.2990 ca        1 I93     -0.098000
      4 C04         2.2490    2.3880   -0.2720 ca        1 I93     -0.174000
      5 C05         1.0940    1.8500   -0.8670 ca        1 I93      0.157900
      6 F06         0.1990    2.6950   -1.4340 f         1 I93     -0.134900
      7 C07         0.8770    0.4550   -0.8850 ca        1 I93     -0.164600
      8 C08        -0.3740   -0.0940   -1.4880 c         1 I93      0.608700
      9 O09        -0.3390   -0.7460   -2.5370 o         1 I93     -0.536100
     10 C10        -1.6490    0.2580   -0.7900 c3        1 I93     -0.300400
     11 C11        -1.9430   -0.4600    0.5090 c         1 I93      0.477100
     12 O12        -1.3430   -1.4780    0.8600 o         1 I93     -0.572100
     13 C13        -3.0720    0.2260    1.3070 c         1 I93      0.859600
     14 O14        -4.2340   -0.2280    1.1580 o         1 I93     -0.803800
     15 O15        -2.7360    1.2140    2.0110 o         1 I93     -0.803800
     16 C16         1.8550   -0.3810   -0.3270 ca        1 I93      0.081400
     17 CL17        1.6510   -2.0660   -0.3760 cl        1 I93     -0.055400
     18 H01         3.5590   -1.3410    1.7150 hc        1 I93      0.046033
     19 H01A        4.4440   -1.4370    0.1360 hc        1 I93      0.046033
     20 H01B        4.8630   -0.1390    1.3330 hc        1 I93      0.046033
     21 H03         4.0820    1.9610    0.7780 ha        1 I93      0.130000
     22 H04         2.3910    3.4770   -0.2560 ha        1 I93      0.144000
     23 H10        -1.6440    1.3600   -0.5590 hc        1 I93      0.097200
     24 H10A       -2.5170    0.0460   -1.4730 hc        1 I93      0.097200
@<TRIPOS>BOND
     1    1    2 1   
     2    1   18 1   
     3    1   19 1   
     4    1   20 1   
     5    2    3 ar  
     6    2   16 ar  
     7    3    4 ar  
     8    3   21 1   
     9    4    5 ar  
    10    4   22 1   
    11    5    6 1   
    12    5    7 ar  
    13    7    8 1   
    14    7   16 ar  
    15    8    9 2   
    16    8   10 1   
    17   10   11 1   
    18   10   23 1   
    19   10   24 1   
    20   11   12 2   
    21   11   13 1   
    22   13   14 1   
    23   13   15 1   
    24   16   17 1   
@<TRIPOS>SUBSTRUCTURE
     1 I93         1 TEMP              0 ****  ****    0 ROOT
