@<TRIPOS>MOLECULE
I93
   24    24     1     0     0
SMALL
bcc


@<TRIPOS>ATOM
      1 C01         0.4660   -0.8820   -0.4940 c3        1 I93     -0.048800
      2 C02         1.8050   -0.2830   -0.2850 ca        1 I93     -0.098300
      3 C03         2.4050   -0.3400    0.9760 ca        1 I93     -0.098000
      4 C04         3.6590    0.2120    1.1990 ca        1 I93     -0.174000
      5 C05         4.3470    0.8250    0.1370 ca        1 I93      0.157900
      6 F06         5.5620    1.3730    0.3770 f         1 I93     -0.134900
      7 C07         3.7740    0.8810   -1.1530 ca        1 I93     -0.164600
      8 C08         4.5370    1.5030   -2.2770 c         1 I93      0.608700
      9 O09         4.1660    2.5680   -2.7810 o         1 I93     -0.536100
     10 C10         5.7920    0.8000   -2.6870 c3        1 I93     -0.300400
     11 C11         5.6370   -0.4780   -3.4820 c         1 I93      0.477100
     12 O12         4.5780   -0.8040   -4.0210 o         1 I93     -0.572100
     13 C13         6.9490   -1.2900   -3.5340 c         1 I93      0.859600
     14 O14         7.6820   -1.1240   -4.5410 o         1 I93     -0.803800
     15 O15         7.1920   -2.0200   -2.5390 o         1 I93     -0.803800
     16 C16         2.4940    0.3410   -1.3410 ca        1 I93      0.081400
     17 CL17        1.7550    0.4350   -2.8660 cl        1 I93     -0.055400
     18 H01         0.5190   -1.6810   -1.2760 hc        1 I93      0.046033
     19 H01A        0.0760   -1.3360    0.4500 hc        1 I93      0.046033
     20 H01B       -0.2600   -0.1040   -0.8390 hc        1 I93      0.046033
     21 H03         1.8760   -0.8330    1.8060 ha        1 I93      0.130000
     22 H04         4.1290    0.1670    2.1910 ha        1 I93      0.144000
     23 H10         6.3810    0.5410   -1.7640 hc        1 I93      0.097200
     24 H10A        6.4150    1.4920   -3.3190 hc        1 I93      0.097200
@<TRIPOS>BOND
     1    1    2 1   
     2    1   18 1   
     3    1   19 1   
     4    1   20 1   
     5    2    3 ar  
     6    2   16 ar  
     7    3    4 ar  
     8    3   21 1   
     9    4    5 ar  
    10    4   22 1   
    11    5    6 1   
    12    5    7 ar  
    13    7    8 1   
    14    7   16 ar  
    15    8    9 2   
    16    8   10 1   
    17   10   11 1   
    18   10   23 1   
    19   10   24 1   
    20   11   12 2   
    21   11   13 1   
    22   13   14 1   
    23   13   15 1   
    24   16   17 1   
@<TRIPOS>SUBSTRUCTURE
     1 I93         1 TEMP              0 ****  ****    0 ROOT
