@<TRIPOS>MOLECULE
I96
   40    42     1     0     0
SMALL
bcc


@<TRIPOS>ATOM
      1 C1          0.2600   -0.1350    0.1440 ca        1 I96      0.105600
      2 C2          1.6780   -0.1780    0.0400 ca        1 I96     -0.081300
      3 N3         -0.4710    0.7340   -0.7100 nu        1 I96     -0.686300
      4 C4         -0.3900   -0.9890    1.0600 ca        1 I96     -0.170000
      5 C5          2.3760   -1.1040    0.8220 ca        1 I96     -0.110000
      6 C6          2.4230    0.7320   -0.8890 c3        1 I96     -0.016400
      7 C7         -1.8780    0.6150   -0.7360 cc        1 I96      0.605400
      8 C8          0.3350   -1.8970    1.8230 ca        1 I96     -0.109000
      9 C9          1.7200   -1.9620    1.7010 ca        1 I96     -0.143000
     10 C10         2.4300    0.1630   -2.2980 c3        1 I96     -0.091100
     11 C11         3.8460    1.0040   -0.4360 c3        1 I96     -0.091100
     12 N12        -2.8260    1.5480   -0.3950 nd        1 I96     -0.723000
     13 N13        -2.5460   -0.5090   -1.2940 na        1 I96     -0.145400
     14 C14        -4.0430    0.9410   -0.7590 cd        1 I96      0.583300
     15 N15        -3.8620   -0.3170   -1.2890 nc        1 I96     -0.509800
     16 S16        -5.5660    1.6500   -0.5670 ss        1 I96     -0.193400
     17 C17        -5.2030    3.2430    0.1380 c3        1 I96      0.054000
     18 C18        -6.4980    3.9040    0.2920 cc        1 I96     -0.128400
     19 C19        -7.2080    4.0200    1.4760 cd        1 I96     -0.134000
     20 S20        -7.3180    4.6520   -0.9730 ss        1 I96      0.050200
     21 C21        -8.4280    4.7370    1.2940 cd        1 I96     -0.159000
     22 C22        -8.5910    5.1330   -0.0170 cc        1 I96     -0.170100
     23 HN3        -0.1790    1.6930   -0.6340 hn        1 I96      0.431800
     24 H4         -1.4820   -0.9370    1.1940 ha        1 I96      0.144000
     25 H5          3.4730   -1.1640    0.7410 ha        1 I96      0.138000
     26 H6          1.9050    1.7350   -0.9160 hc        1 I96      0.046700
     27 H8         -0.1910   -2.5590    2.5270 ha        1 I96      0.137000
     28 H9          2.2970   -2.6820    2.2990 ha        1 I96      0.136000
     29 H101        2.9810    0.8530   -2.9820 hc        1 I96      0.039200
     30 H102        2.9360   -0.8320   -2.3140 hc        1 I96      0.039200
     31 H103        1.3880    0.0390   -2.6770 hc        1 I96      0.039200
     32 H111        3.8720    1.2630    0.6500 hc        1 I96      0.039200
     33 H112        4.2640    1.8620   -1.0160 hc        1 I96      0.039200
     34 H113        4.5020    0.1180   -0.6110 hc        1 I96      0.039200
     35 HN13       -2.1480   -1.3710   -1.5890 hn        1 I96      0.334700
     36 H171       -4.5190    3.8220   -0.5310 h1        1 I96      0.087700
     37 H172       -4.6880    3.1310    1.1250 h1        1 I96      0.087700
     38 H19        -6.8850    3.6160    2.4390 ha        1 I96      0.157000
     39 H21        -9.1320    4.9350    2.1050 ha        1 I96      0.155000
     40 H22        -9.4430    5.6910   -0.4040 h4        1 I96      0.172000
@<TRIPOS>BOND
     1    1    2 ar  
     2    1    3 1   
     3    1    4 ar  
     4    2    5 ar  
     5    2    6 1   
     6    3    7 1   
     7    3   23 1   
     8    4    8 ar  
     9    4   24 1   
    10    5    9 ar  
    11    5   25 1   
    12    6   10 1   
    13    6   11 1   
    14    6   26 1   
    15    7   12 2   
    16    7   13 1   
    17    8    9 ar  
    18    8   27 1   
    19    9   28 1   
    20   10   29 1   
    21   10   30 1   
    22   10   31 1   
    23   11   32 1   
    24   11   33 1   
    25   11   34 1   
    26   12   14 1   
    27   13   15 1   
    28   13   35 1   
    29   14   15 2   
    30   14   16 1   
    31   16   17 1   
    32   17   18 1   
    33   17   36 1   
    34   17   37 1   
    35   18   19 2   
    36   18   20 1   
    37   19   21 1   
    38   19   38 1   
    39   20   22 1   
    40   21   22 2   
    41   21   39 1   
    42   22   40 1   
@<TRIPOS>SUBSTRUCTURE
     1 I96         1 TEMP              0 ****  ****    0 ROOT
