@<TRIPOS>MOLECULE
I96
   41    43     1     0     0
SMALL
bcc


@<TRIPOS>ATOM
      1 C1          0.9140    0.2230    1.0280 ca        1 I96     -0.087400
      2 C2          1.6270    0.0960   -0.1860 ca        1 I96     -0.021300
      3 N3         -0.5390    0.0140    1.0650 n4        1 I96     -0.575100
      4 C4          1.5720    0.5090    2.2410 ca        1 I96     -0.107000
      5 C5          3.0200    0.2430   -0.1340 ca        1 I96     -0.113000
      6 C6          0.9400   -0.2010   -1.4850 c3        1 I96     -0.048400
      7 C7         -1.3130    1.2300    0.8260 cc        1 I96      0.410400
      8 C8          2.9540    0.6560    2.2500 ca        1 I96     -0.108000
      9 C9          3.6780    0.5180    1.0620 ca        1 I96     -0.063000
     10 C10         0.7260   -1.6970   -1.6440 c3        1 I96     -0.097100
     11 C11         1.7000    0.3370   -2.6850 c3        1 I96     -0.097100
     12 N12        -2.6820    1.2700    0.6800 nd        1 I96     -0.648000
     13 N13        -0.7920    2.5360    0.7230 na        1 I96     -0.075400
     14 C14        -2.9460    2.6350    0.4870 cd        1 I96      0.597300
     15 N15        -1.7760    3.3930    0.5160 nc        1 I96     -0.455800
     16 S16        -4.4600    3.3160    0.2430 ss        1 I96     -0.114400
     17 C17        -5.5960    1.9460    0.3140 c3        1 I96      0.061000
     18 C18        -6.8980    2.5730    0.1080 cc        1 I96     -0.180400
     19 C19        -7.5120    2.7650   -1.1230 cd        1 I96     -0.111000
     20 S20        -7.8750    3.1300    1.3580 ss        1 I96      0.075200
     21 C21        -8.7880    3.3820   -0.9850 cd        1 I96     -0.158000
     22 C22        -9.0900    3.6280    0.3410 cc        1 I96     -0.149100
     23 HN3        -0.8030   -0.6780    0.3420 hn        1 I96      0.482300
     24 H4          1.0120    0.6110    3.1860 ha        1 I96      0.160000
     25 H5          3.6100    0.1360   -1.0610 ha        1 I96      0.176000
     26 H6         -0.0660    0.3160   -1.4950 hc        1 I96      0.049700
     27 H8          3.4750    0.8750    3.1970 ha        1 I96      0.175000
     28 H9          4.7760    0.6270    1.0730 ha        1 I96      0.174000
     29 H101        0.1830   -1.8980   -2.6010 hc        1 I96      0.054033
     30 H102        0.1280   -2.1190   -0.8020 hc        1 I96      0.054033
     31 H103        1.7060   -2.2310   -1.6770 hc        1 I96      0.054033
     32 H111        2.0140    1.3950   -2.5140 hc        1 I96      0.054033
     33 H112        2.6060   -0.2800   -2.8990 hc        1 I96      0.054033
     34 H113        1.0400    0.3030   -3.5870 hc        1 I96      0.054033
     35 HN13        0.1610    2.8300    0.7740 hn        1 I96      0.357700
     36 H171       -5.3720    1.1980   -0.4870 h1        1 I96      0.086700
     37 H172       -5.5300    1.4220    1.2990 h1        1 I96      0.086700
     38 H19        -7.0830    2.4810   -2.0870 ha        1 I96      0.159000
     39 H21        -9.4350    3.6220   -1.8320 ha        1 I96      0.168000
     40 H22       -10.0090    4.0930    0.6990 h4        1 I96      0.185000
     41 H32        -0.8070   -0.3510    1.9930 hn        1 I96      0.482300
@<TRIPOS>BOND
     1    1    2 ar  
     2    1    3 1   
     3    1    4 ar  
     4    2    5 ar  
     5    2    6 1   
     6    3    7 1   
     7    3   23 1   
     8    3   41 1   
     9    4    8 ar  
    10    4   24 1   
    11    5    9 ar  
    12    5   25 1   
    13    6   10 1   
    14    6   11 1   
    15    6   26 1   
    16    7   12 2   
    17    7   13 1   
    18    8    9 ar  
    19    8   27 1   
    20    9   28 1   
    21   10   29 1   
    22   10   30 1   
    23   10   31 1   
    24   11   32 1   
    25   11   33 1   
    26   11   34 1   
    27   12   14 1   
    28   13   15 1   
    29   13   35 1   
    30   14   15 2   
    31   14   16 1   
    32   16   17 1   
    33   17   18 1   
    34   17   36 1   
    35   17   37 1   
    36   18   19 2   
    37   18   20 1   
    38   19   21 1   
    39   19   38 1   
    40   20   22 1   
    41   21   22 2   
    42   21   39 1   
    43   22   40 1   
@<TRIPOS>SUBSTRUCTURE
     1 I96         1 TEMP              0 ****  ****    0 ROOT
