@<TRIPOS>MOLECULE
I96
   40    42     1     0     0
SMALL
bcc


@<TRIPOS>ATOM
      1 C1          2.0060   -1.0440    2.4130 ca        1 I96      0.105600
      2 C2          3.1710   -1.6200    1.8370 ca        1 I96     -0.081300
      3 N3          1.3790   -1.6970    3.5080 nh        1 I96     -0.686300
      4 C4          1.5260    0.1850    1.9140 ca        1 I96     -0.170000
      5 C5          3.8300   -0.9190    0.8220 ca        1 I96     -0.110000
      6 C6          3.7050   -2.9410    2.3040 c3        1 I96     -0.016400
      7 C7          0.3540   -1.0100    4.1960 cc        1 I96      0.605400
      8 C8          2.2050    0.8550    0.9020 ca        1 I96     -0.109000
      9 C9          3.3630    0.3070    0.3570 ca        1 I96     -0.143000
     10 C10         4.5620   -2.7600    3.5450 c3        1 I96     -0.091100
     11 C11         4.4940   -3.6720    1.2330 c3        1 I96     -0.091100
     12 N12        -0.9670   -1.3610    4.3400 nd        1 I96     -0.723000
     13 N13         0.5990    0.1320    5.0040 na        1 I96     -0.145400
     14 C14        -1.4730   -0.4000    5.2370 cd        1 I96      0.583300
     15 N15        -0.5170    0.5130    5.6210 nc        1 I96     -0.509800
     16 S16        -3.0710   -0.3460    5.7850 ss        1 I96     -0.193400
     17 C17        -3.8380   -1.7420    4.9900 c3        1 I96      0.054000
     18 C18        -5.2200   -1.7490    5.4650 cc        1 I96     -0.128400
     19 C19        -6.3190   -1.2930    4.7550 cd        1 I96     -0.134000
     20 S20        -5.6840   -2.3460    6.9700 ss        1 I96      0.050200
     21 C21        -7.5300   -1.4560    5.4920 cd        1 I96     -0.159000
     22 C22        -7.2990   -2.0270    6.7260 cc        1 I96     -0.170100
     23 HN3         1.1190   -2.6460    3.3010 hn        1 I96      0.431800
     24 H4          0.5980    0.6250    2.3100 ha        1 I96      0.144000
     25 H5          4.7450   -1.3420    0.3770 ha        1 I96      0.139000
     26 H6          2.8380   -3.6150    2.5690 hc        1 I96      0.046700
     27 H8          1.8180    1.8160    0.5300 ha        1 I96      0.137000
     28 H9          3.9060    0.8360   -0.4400 ha        1 I96      0.136000
     29 H101        5.4330   -2.0990    3.3230 hc        1 I96      0.039200
     30 H102        4.9470   -3.7510    3.8870 hc        1 I96      0.039200
     31 H103        3.9680   -2.3020    4.3700 hc        1 I96      0.039200
     32 H111        3.9430   -3.6660    0.2630 hc        1 I96      0.039200
     33 H112        4.6530   -4.7330    1.5460 hc        1 I96      0.039200
     34 H113        5.4970   -3.2050    1.0810 hc        1 I96      0.039200
     35 HN13        1.4380    0.6580    5.0790 hn        1 I96      0.334700
     36 H171       -3.3020   -2.6880    5.2560 h1        1 I96      0.087700
     37 H172       -3.7940   -1.6360    3.8770 h1        1 I96      0.087700
     38 H19        -6.2770   -0.8600    3.7540 ha        1 I96      0.157000
     39 H21        -8.5080   -1.1580    5.1080 ha        1 I96      0.155000
     40 H22        -8.0630   -2.2490    7.4700 h4        1 I96      0.172000
@<TRIPOS>BOND
     1    1    2 ar  
     2    1    3 1   
     3    1    4 ar  
     4    2    5 ar  
     5    2    6 1   
     6    3    7 1   
     7    3   23 1   
     8    4    8 ar  
     9    4   24 1   
    10    5    9 ar  
    11    5   25 1   
    12    6   10 1   
    13    6   11 1   
    14    6   26 1   
    15    7   12 2   
    16    7   13 1   
    17    8    9 ar  
    18    8   27 1   
    19    9   28 1   
    20   10   29 1   
    21   10   30 1   
    22   10   31 1   
    23   11   32 1   
    24   11   33 1   
    25   11   34 1   
    26   12   14 1   
    27   13   15 1   
    28   13   35 1   
    29   14   15 2   
    30   14   16 1   
    31   16   17 1   
    32   17   18 1   
    33   17   36 1   
    34   17   37 1   
    35   18   19 2   
    36   18   20 1   
    37   19   21 1   
    38   19   38 1   
    39   20   22 1   
    40   21   22 2   
    41   21   39 1   
    42   22   40 1   
@<TRIPOS>SUBSTRUCTURE
     1 I96         1 TEMP              0 ****  ****    0 ROOT
