@<TRIPOS>MOLECULE
I96
   40    42     1     0     0
SMALL
bcc


@<TRIPOS>ATOM
      1 C1          0.2520   -0.1440    0.1420 ca        1 I96      0.105600
      2 C2          1.6700   -0.1870    0.0590 ca        1 I96     -0.081300
      3 N3         -0.4660    0.7350   -0.7150 nh        1 I96     -0.686300
      4 C4         -0.4130   -1.0050    1.0390 ca        1 I96     -0.170000
      5 C5          2.3550   -1.1220    0.8420 ca        1 I96     -0.110000
      6 C6          2.4310    0.7300   -0.8500 c3        1 I96     -0.016400
      7 C7         -1.8730    0.6220   -0.7580 cc        1 I96      0.605400
      8 C8          0.2990   -1.9220    1.8050 ca        1 I96     -0.109000
      9 C9          1.6860   -1.9870    1.7030 ca        1 I96     -0.143000
     10 C10         2.4590    0.1760   -2.2630 c3        1 I96     -0.091100
     11 C11         3.8470    0.9960   -0.3720 c3        1 I96     -0.091100
     12 N12        -2.8210    1.5550   -0.4120 nd        1 I96     -0.723000
     13 N13        -2.5390   -0.4910   -1.3380 na        1 I96     -0.145400
     14 C14        -4.0370    0.9580   -0.7970 cd        1 I96      0.583300
     15 N15        -3.8550   -0.2930   -1.3440 nc        1 I96     -0.509800
     16 S16        -5.5580    1.6710   -0.6110 ss        1 I96     -0.193400
     17 C17        -5.1970    3.2510    0.1240 c3        1 I96      0.054000
     18 C18        -6.4900    3.9140    0.2760 cc        1 I96     -0.128400
     19 C19        -7.2130    4.0100    1.4530 cd        1 I96     -0.134000
     20 S20        -7.2910    4.6900   -0.9850 ss        1 I96      0.050200
     21 C21        -8.4280    4.7360    1.2710 cd        1 I96     -0.159000
     22 C22        -8.5740    5.1590   -0.0340 cc        1 I96     -0.170100
     23 HN3        -0.1710    1.6920   -0.6290 hn        1 I96      0.431800
     24 H4         -1.5070   -0.9540    1.1570 ha        1 I96      0.144000
     25 H5          3.4530   -1.1830    0.7780 ha        1 I96      0.138000
     26 H6          1.9150    1.7350   -0.8740 hc        1 I96      0.046700
     27 H8         -0.2390   -2.5900    2.4940 ha        1 I96      0.137000
     28 H9          2.2520   -2.7150    2.3020 ha        1 I96      0.136000
     29 H101        3.0210    0.8710   -2.9320 hc        1 I96      0.039200
     30 H102        2.9630   -0.8200   -2.2820 hc        1 I96      0.039200
     31 H103        1.4230    0.0570   -2.6600 hc        1 I96      0.039200
     32 H111        3.8570    1.2440    0.7170 hc        1 I96      0.039200
     33 H112        4.2760    1.8590   -0.9370 hc        1 I96      0.039200
     34 H113        4.5050    0.1110   -0.5460 hc        1 I96      0.039200
     35 HN13       -2.1430   -1.3500   -1.6420 hn        1 I96      0.334700
     36 H171       -4.5030    3.8370   -0.5280 h1        1 I96      0.087700
     37 H172       -4.6910    3.1190    1.1140 h1        1 I96      0.087700
     38 H19        -6.9040    3.5870    2.4110 ha        1 I96      0.157000
     39 H21        -9.1400    4.9230    2.0770 ha        1 I96      0.155000
     40 H22        -9.4180    5.7280   -0.4210 h4        1 I96      0.172000
@<TRIPOS>BOND
     1    1    2 ar  
     2    1    3 1   
     3    1    4 ar  
     4    2    5 ar  
     5    2    6 1   
     6    3    7 1   
     7    3   23 1   
     8    4    8 ar  
     9    4   24 1   
    10    5    9 ar  
    11    5   25 1   
    12    6   10 1   
    13    6   11 1   
    14    6   26 1   
    15    7   12 2   
    16    7   13 1   
    17    8    9 ar  
    18    8   27 1   
    19    9   28 1   
    20   10   29 1   
    21   10   30 1   
    22   10   31 1   
    23   11   32 1   
    24   11   33 1   
    25   11   34 1   
    26   12   14 1   
    27   13   15 1   
    28   13   35 1   
    29   14   15 2   
    30   14   16 1   
    31   16   17 1   
    32   17   18 1   
    33   17   36 1   
    34   17   37 1   
    35   18   19 2   
    36   18   20 1   
    37   19   21 1   
    38   19   38 1   
    39   20   22 1   
    40   21   22 2   
    41   21   39 1   
    42   22   40 1   
@<TRIPOS>SUBSTRUCTURE
     1 I96         1 TEMP              0 ****  ****    0 ROOT
