@<TRIPOS>MOLECULE
I98
   38    39     1     0     0
SMALL
bcc


@<TRIPOS>ATOM
      1 F          -0.1690    0.3440   -1.2740 f         1 I98     -0.146900
      2 C15         1.1070    0.1770   -0.8450 ca        1 I98      0.168900
      3 C11         1.3850    0.3120    0.5220 ca        1 I98     -0.238000
      4 C18         2.7050    0.1320    0.9930 ca        1 I98      0.182600
      5 N2          2.9800    0.1740    2.3570 nh        1 I98     -0.828200
      6 C17         3.7250   -0.1680    0.0570 ca        1 I98     -0.211000
      7 C13         3.4270   -0.2980   -1.2920 ca        1 I98     -0.048000
      8 C22         2.1270   -0.1230   -1.7720 ca        1 I98     -0.201300
      9 C19         1.8330   -0.2210   -3.2390 c3        1 I98      0.140300
     10 N21         0.8930   -1.2520   -3.5930 n         1 I98     -0.553900
     11 C20         1.2980   -2.4500   -4.1510 c         1 I98      0.674700
     12 O7          2.4640   -2.6160   -4.5670 o         1 I98     -0.602100
     13 C14         0.2940   -3.5500   -4.2640 ca        1 I98     -0.159600
     14 C10         0.7580   -4.8530   -4.0360 ca        1 I98     -0.047000
     15 C16        -0.0940   -5.9490   -4.1270 ca        1 I98     -0.153000
     16 C8         -1.4390   -5.7490   -4.4540 ca        1 I98      0.063400
     17 CL4        -2.4890   -7.0780   -4.5620 cl        1 I98     -0.072400
     18 C9         -1.9320   -4.4650   -4.6960 ca        1 I98     -0.196000
     19 C12        -1.0600   -3.3710   -4.6010 ca        1 I98      0.153100
     20 O1         -1.5070   -2.0720   -4.7820 os        1 I98     -0.353900
     21 C3         -2.6080   -1.9160   -5.6840 c3        1 I98      0.031400
     22 C5         -2.5450   -0.5130   -6.2360 c         1 I98      0.630100
     23 O6         -3.4380    0.0030   -6.9080 o         1 I98     -0.488000
     24 O23        -1.4630    0.2780   -6.0240 oh        1 I98     -0.567100
     25 H1          0.5630    0.5470    1.2140 ha        1 I98      0.150000
     26 H2          3.9300    0.3470    2.5950 hn        1 I98      0.401800
     27 H3          2.3200    0.6690    2.9120 hn        1 I98      0.401800
     28 H4          4.7610   -0.3130    0.3980 ha        1 I98      0.139000
     29 H5          4.2330   -0.5430   -2.0030 ha        1 I98      0.145000
     30 H6          2.7920   -0.3920   -3.8100 h1        1 I98      0.074200
     31 H7          1.3890    0.7640   -3.5740 h1        1 I98      0.074200
     32 H8         -0.7950   -0.1850   -5.4930 ho        1 I98      0.452000
     33 H9          1.8260   -4.9980   -3.7970 ha        1 I98      0.168000
     34 H10         0.2910   -6.9640   -3.9450 ha        1 I98      0.159000
     35 H11        -2.9920   -4.3160   -4.9480 ha        1 I98      0.158000
     36 H12        -2.5530   -2.6500   -6.5310 h1        1 I98      0.088700
     37 H13        -3.5640   -2.0530   -5.1120 h1        1 I98      0.088700
     38 H212       -0.0000   -1.2120   -3.1570 hn        1 I98      0.321500
@<TRIPOS>BOND
     1    1    2 1   
     2    2    3 ar  
     3    2    8 ar  
     4    3    4 ar  
     5    3   25 1   
     6    4    5 1   
     7    4    6 ar  
     8    5   26 1   
     9    5   27 1   
    10    6    7 ar  
    11    6   28 1   
    12    7    8 ar  
    13    7   29 1   
    14    8    9 1   
    15    9   10 1   
    16    9   30 1   
    17    9   31 1   
    18   10   11 1   
    19   10   38 1   
    20   11   12 2   
    21   11   13 1   
    22   13   14 ar  
    23   13   19 ar  
    24   14   15 ar  
    25   14   33 1   
    26   15   16 ar  
    27   15   34 1   
    28   16   17 1   
    29   16   18 ar  
    30   18   19 ar  
    31   18   35 1   
    32   19   20 1   
    33   20   21 1   
    34   21   22 1   
    35   21   36 1   
    36   21   37 1   
    37   22   23 2   
    38   22   24 1   
    39   24   32 1   
@<TRIPOS>SUBSTRUCTURE
     1 I98         1 TEMP              0 ****  ****    0 ROOT
