@<TRIPOS>MOLECULE
I98
   38    39     1     0     0
SMALL
bcc


@<TRIPOS>ATOM
      1 F          -0.1580    0.3610   -1.2920 f         1 I98     -0.146900
      2 C15         1.1240    0.2030   -0.8760 ca        1 I98      0.168900
      3 C11         1.4160    0.3550    0.4870 ca        1 I98     -0.238000
      4 C18         2.7410    0.1870    0.9450 ca        1 I98      0.182600
      5 N2          3.0310    0.2460    2.3060 nv        1 I98     -0.828200
      6 C17         3.7520   -0.1210    0.0010 ca        1 I98     -0.211000
      7 C13         3.4400   -0.2670   -1.3430 ca        1 I98     -0.048000
      8 C22         2.1350   -0.1030   -1.8100 ca        1 I98     -0.201300
      9 C19         1.8250   -0.2190   -3.2730 c3        1 I98      0.140300
     10 N21         0.8860   -1.2590   -3.6050 ns        1 I98     -0.553900
     11 C20         1.2900   -2.4600   -4.1540 c         1 I98      0.674700
     12 O7          2.4520   -2.6260   -4.5810 o         1 I98     -0.602100
     13 C14         0.2900   -3.5670   -4.2430 ca        1 I98     -0.159600
     14 C10         0.7630   -4.8640   -4.0070 ca        1 I98     -0.047000
     15 C16        -0.0850   -5.9650   -4.0760 ca        1 I98     -0.153000
     16 C8         -1.4340   -5.7760   -4.3890 ca        1 I98      0.063400
     17 Cl4        -2.4790   -7.1100   -4.4700 cl        1 I98     -0.072400
     18 C9         -1.9370   -4.4970   -4.6380 ca        1 I98     -0.196000
     19 C12        -1.0690   -3.3980   -4.5660 ca        1 I98      0.153100
     20 O1         -1.5240   -2.1030   -4.7550 os        1 I98     -0.353900
     21 C3         -2.6370   -1.9620   -5.6440 c3        1 I98      0.031400
     22 C5         -2.5880   -0.5640   -6.2120 c         1 I98      0.630100
     23 O6         -3.4920   -0.0590   -6.8780 o         1 I98     -0.488000
     24 O23        -1.5070    0.2340   -6.0220 oh        1 I98     -0.567100
     25 H1          0.6000    0.5950    1.1850 ha        1 I98      0.150000
     26 H2          2.3750    0.7440    2.8620 hn        1 I98      0.401800
     27 H3          3.9830    0.4250    2.5310 hn        1 I98      0.401800
     28 H4          4.7930   -0.2570    0.3320 ha        1 I98      0.139000
     29 H5          4.2400   -0.5170   -2.0590 ha        1 I98      0.145000
     30 H6          2.7790   -0.3930   -3.8520 h1        1 I98      0.074200
     31 H7          1.3730    0.7600   -3.6140 h1        1 I98      0.074200
     32 H8         -0.0030   -1.2170   -3.1580 hn        1 I98      0.321500
     33 H9          1.8350   -5.0020   -3.7790 ha        1 I98      0.168000
     34 H10         0.3080   -6.9760   -3.8880 ha        1 I98      0.159000
     35 H11        -3.0000   -4.3550   -4.8790 ha        1 I98      0.158000
     36 H12        -2.5900   -2.7040   -6.4840 h1        1 I98      0.088700
     37 H13        -3.5860   -2.0960   -5.0590 h1        1 I98      0.088700
     38 H212       -0.8300   -0.2200   -5.4950 ho        1 I98      0.452000
@<TRIPOS>BOND
     1    1    2 1   
     2    2    3 ar  
     3    2    8 ar  
     4    3    4 ar  
     5    3   25 1   
     6    4    5 1   
     7    4    6 ar  
     8    5   26 1   
     9    5   27 1   
    10    6    7 ar  
    11    6   28 1   
    12    7    8 ar  
    13    7   29 1   
    14    8    9 1   
    15    9   10 1   
    16    9   30 1   
    17    9   31 1   
    18   10   11 1   
    19   10   32 1   
    20   11   12 2   
    21   11   13 1   
    22   13   14 ar  
    23   13   19 ar  
    24   14   15 ar  
    25   14   33 1   
    26   15   16 ar  
    27   15   34 1   
    28   16   17 1   
    29   16   18 ar  
    30   18   19 ar  
    31   18   35 1   
    32   19   20 1   
    33   20   21 1   
    34   21   22 1   
    35   21   36 1   
    36   21   37 1   
    37   22   23 2   
    38   22   24 1   
    39   24   38 1   
@<TRIPOS>SUBSTRUCTURE
     1 I98         1 TEMP              0 ****  ****    0 ROOT
