@<TRIPOS>MOLECULE
IA
   56    61     1     0     0
SMALL
bcc


@<TRIPOS>ATOM
      1 C           0.1050    0.3970   -0.1560 ca        1 IA      -0.074000
      2 C1          1.4390    0.2770    2.2950 ca        1 IA      -0.132900
      3 C2          1.4820    0.6120   -0.0980 ca        1 IA      -0.136000
      4 C3          2.1550    0.5540    1.1220 ca        1 IA      -0.063000
      5 C4         -0.6090    0.1300    1.0140 ca        1 IA       0.015900
      6 C5          0.0540    0.0730    2.2390 ca        1 IA      -0.082000
      7 C6          2.1500    0.2190    3.5750 cc        1 IA       0.492400
      8 C7          2.6360   -0.4500    5.6730 ca        1 IA      -0.085200
      9 C8          3.5760    0.5620    5.2120 ca        1 IA       0.094400
     10 C9          4.6000    0.9860    6.0720 ca        1 IA      -0.069000
     11 C10         4.6850    0.4170    7.3310 ca        1 IA      -0.139000
     12 C11         3.7740   -0.5740    7.7640 ca        1 IA      -0.130900
     13 C12         2.7340   -1.0170    6.9470 ca        1 IA      -0.071000
     14 N1          1.7440   -0.6480    4.6180 na        1 IA      -0.271300
     15 N2          3.2440    0.9500    3.9050 nd        1 IA      -0.558100
     16 C13         3.9070   -1.1500    9.1050 cc        1 IA       0.510400
     17 C14         4.9320   -1.8790   10.9790 ca        1 IA      -0.080200
     18 C15         3.4900   -2.0590   11.0630 ca        1 IA       0.093400
     19 C16         2.9390   -2.6220   12.2220 ca        1 IA      -0.056000
     20 C17         3.7900   -2.9880   13.2500 ca        1 IA      -0.177000
     21 C18         5.1970   -2.8100   13.1620 ca        1 IA       0.046600
     22 C19         5.7850   -2.2510   12.0200 ca        1 IA      -0.088000
     23 N3          5.1690   -1.3030    9.7300 na        1 IA      -0.273300
     24 N4          2.8880   -1.5960    9.8830 nd        1 IA      -0.562100
     25 N6          6.0700   -3.1930   14.2410 nh        1 IA      -0.617000
     26 N7          6.9130   -4.2350   16.8360 nx        1 IA      -0.683400
     27 C20         6.0590   -4.6270   14.4990 c3        1 IA       0.146300
     28 C21         7.1010   -5.0130   15.5660 c3        1 IA       0.105800
     29 C22         6.8840   -2.7630   16.5400 c3        1 IA       0.105800
     30 C23         5.8460   -2.4200   15.4550 c3        1 IA       0.146300
     31 C24         7.9670   -4.5620   17.8260 c3        1 IA       0.084100
     32 I          -2.6040   -0.1720    0.9370 i         1 IA      -0.123900
     33 H          -0.4110    0.4450   -1.1280 ha        1 IA       0.153000
     34 H2          2.0420    0.8300   -1.0210 ha        1 IA       0.149000
     35 H3          3.2420    0.7290    1.1630 ha        1 IA       0.161000
     36 H5         -0.5170   -0.1140    3.1620 ha        1 IA       0.142000
     37 H9          5.3110    1.7600    5.7470 ha        1 IA       0.159000
     38 H10         5.4730    0.7690    8.0140 ha        1 IA       0.129000
     39 H12         2.0170   -1.7770    7.2910 ha        1 IA       0.161000
     40 HN1         0.9830   -1.2730    4.5980 hn        1 IA       0.314700
     41 H16         1.8510   -2.7650   12.3060 ha        1 IA       0.163000
     42 H17         3.3560   -3.4290   14.1610 ha        1 IA       0.123000
     43 H19         6.8730   -2.1080   11.9410 ha        1 IA       0.150000
     44 HN3         6.0440   -1.0630    9.3450 hn        1 IA       0.316700
     45 HN7         5.9980   -4.4930   17.2290 hn        1 IA       0.445800
     46 H201        6.3430   -5.1550   13.5440 h1        1 IA       0.080700
     47 H202        5.0450   -5.0070   14.8170 h1        1 IA       0.080700
     48 H211        7.0030   -6.1090   15.8040 hx        1 IA       0.107700
     49 H212        8.1410   -4.8070   15.1850 hx        1 IA       0.107700
     50 H221        7.9150   -2.4580   16.2010 hx        1 IA       0.107700
     51 H222        6.6270   -2.2160   17.4890 hx        1 IA       0.107700
     52 H231        4.8080   -2.5580   15.8770 h1        1 IA       0.080700
     53 H232        5.9740   -1.3280   15.2010 h1        1 IA       0.080700
     54 H241        8.9730   -4.2850   17.4120 hx        1 IA       0.104700
     55 H242        7.7800   -3.9840   18.7710 hx        1 IA       0.104700
     56 H243        7.9420   -5.6630   18.0440 hx        1 IA       0.104700
@<TRIPOS>BOND
     1    1    3 ar  
     2    1    5 ar  
     3    1   33 1   
     4    2    4 ar  
     5    2    6 ar  
     6    2    7 1   
     7    3    4 ar  
     8    3   34 1   
     9    4   35 1   
    10    5    6 ar  
    11    5   32 1   
    12    6   36 1   
    13    7   14 1   
    14    7   15 2   
    15    8    9 ar  
    16    8   13 ar  
    17    8   14 1   
    18    9   10 ar  
    19    9   15 1   
    20   10   11 ar  
    21   10   37 1   
    22   11   12 ar  
    23   11   38 1   
    24   12   13 ar  
    25   12   16 1   
    26   13   39 1   
    27   14   40 1   
    28   16   23 1   
    29   16   24 2   
    30   17   18 ar  
    31   17   22 ar  
    32   17   23 1   
    33   18   19 ar  
    34   18   24 1   
    35   19   20 ar  
    36   19   41 1   
    37   20   21 ar  
    38   20   42 1   
    39   21   22 ar  
    40   21   25 1   
    41   22   43 1   
    42   23   44 1   
    43   25   27 1   
    44   25   30 1   
    45   26   28 1   
    46   26   29 1   
    47   26   31 1   
    48   26   45 1   
    49   27   28 1   
    50   27   46 1   
    51   27   47 1   
    52   28   48 1   
    53   28   49 1   
    54   29   30 1   
    55   29   50 1   
    56   29   51 1   
    57   30   52 1   
    58   30   53 1   
    59   31   54 1   
    60   31   55 1   
    61   31   56 1   
@<TRIPOS>SUBSTRUCTURE
     1 IA          1 TEMP              0 ****  ****    0 ROOT
