@<TRIPOS>MOLECULE
IA
   56    44     1     0     0
SMALL
bcc


@<TRIPOS>ATOM
      1 C          -3.0100    4.5370   -9.3490 c1        1 IA      -0.074000
      2 C1         -2.4160    3.0260   -7.0850 c1        1 IA      -0.043833
      3 C2         -3.9720    4.3660   -8.3510 c1        1 IA      -0.116500
      4 C3         -3.6760    3.6120   -7.2220 c1        1 IA      -0.116500
      5 C4         -1.7540    3.9520   -9.2130 c1        1 IA      -0.272000
      6 C5         -1.4560    3.1970   -8.0830 c1        1 IA      -0.078500
      7 C6         -2.0710    2.3670   -5.8790 c1        1 IA       0.090500
      8 C7         -1.3570    1.6100   -3.9300 c1        1 IA      -0.043833
      9 C8         -1.8320    0.5500   -4.6520 c1        1 IA      -0.043833
     10 C9         -1.9010   -0.7350   -4.0620 c1        1 IA      -0.078500
     11 C10        -1.4860   -0.9210   -2.7490 c1        1 IA      -0.078500
     12 C11        -1.0040    0.1540   -2.0140 c1        1 IA      -0.043833
     13 C12        -0.9360    1.4210   -2.5950 c1        1 IA      -0.078500
     14 N1         -1.5050    2.7330   -4.6870 n1        1 IA      -0.181000
     15 N2         -2.2720    1.0230   -5.8550 n1        1 IA      -0.181000
     16 C13        -0.6450   -0.2850   -0.7060 c1        1 IA       0.090500
     17 C14         0.4050   -0.7480    1.1840 c1        1 IA      -0.043833
     18 C15        -0.8980   -0.4530    1.4830 c1        1 IA      -0.043833
     19 C16        -1.3510   -0.5350    2.8110 c1        1 IA      -0.078500
     20 C17        -0.4750   -0.9150    3.8240 c1        1 IA      -0.177000
     21 C18         0.8470   -1.2140    3.5220 c1        1 IA      -0.035000
     22 C19         1.2940   -1.1330    2.2100 c1        1 IA      -0.078500
     23 N3          0.5600   -0.6440   -0.1690 n1        1 IA      -0.181000
     24 N4         -1.5440   -0.1680    0.3130 n1        1 IA      -0.181000
     25 N6          1.9060   -1.7200    4.4060 n3        1 IA      -0.219000
     26 N7          2.7860   -2.4930    7.0080 n4        1 IA      -0.004000
     27 C20         1.5000   -2.9600    4.9700 c3        1 IA      -0.090000
     28 C21         2.4820   -3.4740    6.0130 c3        1 IA      -0.131000
     29 C22         3.1930   -1.2540    6.4410 c3        1 IA      -0.131000
     30 C23         2.2070   -0.7410    5.3940 c3        1 IA      -0.090000
     31 C24         3.8460   -2.9940    7.8490 c3        1 IA      -0.192000
     32 I          -0.3040    4.2000  -10.7310 i         1 IA       0.167000
     33 H          -3.2200    5.0680  -10.1460 ha        1 IA       0.153000
     34 H2         -4.8650    4.7810   -8.4480 ha        1 IA       0.140500
     35 H3         -4.3500    3.4920   -6.5220 ha        1 IA       0.140500
     36 H5         -0.5670    2.7840   -7.9870 ha        1 IA       0.154833
     37 H9         -2.2420   -1.4940   -4.5810 ha        1 IA       0.154833
     38 H10        -1.5350   -1.8070   -2.3430 ha        1 IA       0.154833
     39 H12        -0.5970    2.1760   -2.0780 ha        1 IA       0.154833
     40 HN1        -1.3300    3.5880   -4.4170 DU        1 IA       0.265500
     41 H16        -2.2810   -0.3240    3.0240 ha        1 IA       0.154833
     42 H17        -0.7910   -0.9710    4.7480 ha        1 IA       0.123000
     43 H19         2.2230   -1.3430    1.9970 ha        1 IA       0.154833
     44 HN3         1.3230   -0.7800   -0.6250 DU        1 IA       0.265500
     45 HN7         2.0340   -2.3510    7.5260 hn        1 IA       0.240000
     46 H201        1.4250   -3.6290    4.2480 h1        1 IA       0.120000
     47 H202        0.6270   -2.8470    5.3870 h1        1 IA       0.120000
     48 H211        2.0930   -4.2630    6.4540 hx        1 IA       0.147000
     49 H212        3.3140   -3.7380    5.5640 hx        1 IA       0.147000
     50 H221        4.0660   -1.3710    6.0220 hx        1 IA       0.147000
     51 H222        3.2730   -0.5820    7.1630 hx        1 IA       0.147000
     52 H231        1.3840   -0.4820    5.8400 h1        1 IA       0.120000
     53 H232        2.5930    0.0490    4.9520 h1        1 IA       0.120000
     54 H241        4.0380   -2.3380    8.5610 hx        1 IA       0.144000
     55 H242        3.5690   -3.8470    8.2550 hx        1 IA       0.144000
     56 H243        4.6560   -3.1350    7.3080 hx        1 IA       0.144000
@<TRIPOS>BOND
     1    1    5 1   
     2    1   33 1   
     3    2    6 1   
     4    3    4 1   
     5    3   34 1   
     6    4   35 1   
     7    5   32 1   
     8    6   36 1   
     9    7   14 1   
    10    7   15 1   
    11    8   13 1   
    12    9   10 1   
    13   10   37 1   
    14   11   12 1   
    15   11   38 1   
    16   13   39 1   
    17   16   23 1   
    18   16   24 1   
    19   17   22 1   
    20   18   19 1   
    21   19   41 1   
    22   20   21 1   
    23   20   42 1   
    24   21   25 1   
    25   22   43 1   
    26   25   27 1   
    27   25   30 1   
    28   26   28 1   
    29   26   29 1   
    30   26   31 1   
    31   26   45 1   
    32   27   28 1   
    33   27   46 1   
    34   27   47 1   
    35   28   48 1   
    36   28   49 1   
    37   29   30 1   
    38   29   50 1   
    39   29   51 1   
    40   30   52 1   
    41   30   53 1   
    42   31   54 1   
    43   31   55 1   
    44   31   56 1   
@<TRIPOS>SUBSTRUCTURE
     1 IA          1 TEMP              0 ****  ****    0 ROOT
