@<TRIPOS>MOLECULE
IA
   56    61     1     0     0
SMALL
bcc


@<TRIPOS>ATOM
      1 C           0.0930    0.4040   -0.1490 ca        1 IA      -0.074000
      2 C1          1.4300    0.2820    2.3000 ca        1 IA      -0.132900
      3 C2          1.4700    0.6190   -0.0930 ca        1 IA      -0.136000
      4 C3          2.1440    0.5600    1.1250 ca        1 IA      -0.063000
      5 C4         -0.6190    0.1350    1.0200 ca        1 IA       0.015900
      6 C5          0.0450    0.0770    2.2450 ca        1 IA      -0.082000
      7 C6          2.1430    0.2220    3.5780 cc        1 IA       0.492400
      8 C7          2.6310   -0.4480    5.6750 ca        1 IA      -0.085200
      9 C8          3.5700    0.5640    5.2140 ca        1 IA       0.094400
     10 C9          4.5950    0.9880    6.0740 ca        1 IA      -0.069000
     11 C10         4.6820    0.4170    7.3320 ca        1 IA      -0.139000
     12 C11         3.7720   -0.5750    7.7640 ca        1 IA      -0.130900
     13 C12         2.7310   -1.0170    6.9480 ca        1 IA      -0.070000
     14 N1          1.7390   -0.6460    4.6200 na        1 IA      -0.271300
     15 N2          3.2360    0.9540    3.9080 nd        1 IA      -0.558100
     16 C13         3.9060   -1.1510    9.1050 cc        1 IA       0.510400
     17 C14         4.9340   -1.8800   10.9770 ca        1 IA      -0.080200
     18 C15         3.4920   -2.0640   11.0620 ca        1 IA       0.093400
     19 C16         2.9430   -2.6290   12.2210 ca        1 IA      -0.056000
     20 C17         3.7950   -2.9940   13.2480 ca        1 IA      -0.177000
     21 C18         5.2010   -2.8130   13.1600 ca        1 IA       0.046600
     22 C19         5.7880   -2.2510   12.0190 ca        1 IA      -0.088000
     23 N3          5.1690   -1.3020    9.7300 na        1 IA      -0.273300
     24 N4          2.8890   -1.6010    9.8820 nd        1 IA      -0.562100
     25 N6          6.0750   -3.1950   14.2390 nh        1 IA      -0.617000
     26 N7          6.9220   -4.2380   16.8320 n4        1 IA      -0.683400
     27 C20         6.0690   -4.6290   14.4950 c3        1 IA       0.146300
     28 C21         7.1120   -5.0140   15.5600 c3        1 IA       0.105800
     29 C22         6.8880   -2.7660   16.5380 c3        1 IA       0.105800
     30 C23         5.8490   -2.4240   15.4530 c3        1 IA       0.146300
     31 C24         7.9760   -4.5620   17.8210 c3        1 IA       0.084100
     32 I          -2.6150   -0.1680    0.9460 i         1 IA      -0.123900
     33 H          -0.4250    0.4530   -1.1210 ha        1 IA       0.153000
     34 H2          2.0280    0.8380   -1.0160 ha        1 IA       0.149000
     35 H3          3.2310    0.7350    1.1660 ha        1 IA       0.161000
     36 H5         -0.5250   -0.1110    3.1680 ha        1 IA       0.142000
     37 H9          5.3050    1.7630    5.7480 ha        1 IA       0.159000
     38 H10         5.4700    0.7700    8.0140 ha        1 IA       0.129000
     39 H12         2.0150   -1.7780    7.2920 ha        1 IA       0.161000
     40 HN1         0.9780   -1.2720    4.6010 hn        1 IA       0.314700
     41 H16         1.8550   -2.7750   12.3050 ha        1 IA       0.163000
     42 H17         3.3620   -3.4380   14.1580 ha        1 IA       0.123000
     43 H19         6.8750   -2.1060   11.9400 ha        1 IA       0.150000
     44 HN3         6.0430   -1.0600    9.3450 hn        1 IA       0.316700
     45 HN7         6.0080   -4.4990   17.2240 hn        1 IA       0.445800
     46 H201        6.3550   -5.1550   13.5390 h1        1 IA       0.080700
     47 H202        5.0560   -5.0130   14.8120 h1        1 IA       0.080700
     48 H211        7.0180   -6.1100   15.7970 hx        1 IA       0.107700
     49 H212        8.1520   -4.8030   15.1800 hx        1 IA       0.107700
     50 H221        6.6300   -2.2200   17.4880 hx        1 IA       0.107700
     51 H222        7.9180   -2.4570   16.2000 hx        1 IA       0.107700
     52 H231        5.9730   -1.3310   15.2010 h1        1 IA       0.080700
     53 H232        4.8120   -2.5660   15.8760 h1        1 IA       0.080700
     54 H241        7.7880   -3.9870   18.7670 hx        1 IA       0.104700
     55 H242        7.9560   -5.6640   18.0380 hx        1 IA       0.104700
     56 H243        8.9820   -4.2820   17.4070 hx        1 IA       0.104700
@<TRIPOS>BOND
     1    1    3 ar  
     2    1    5 ar  
     3    1   33 1   
     4    2    4 ar  
     5    2    6 ar  
     6    2    7 1   
     7    3    4 ar  
     8    3   34 1   
     9    4   35 1   
    10    5    6 ar  
    11    5   32 1   
    12    6   36 1   
    13    7   14 1   
    14    7   15 2   
    15    8    9 ar  
    16    8   13 ar  
    17    8   14 1   
    18    9   10 ar  
    19    9   15 1   
    20   10   11 ar  
    21   10   37 1   
    22   11   12 ar  
    23   11   38 1   
    24   12   13 ar  
    25   12   16 1   
    26   13   39 1   
    27   14   40 1   
    28   16   23 1   
    29   16   24 2   
    30   17   18 ar  
    31   17   22 ar  
    32   17   23 1   
    33   18   19 ar  
    34   18   24 1   
    35   19   20 ar  
    36   19   41 1   
    37   20   21 ar  
    38   20   42 1   
    39   21   22 ar  
    40   21   25 1   
    41   22   43 1   
    42   23   44 1   
    43   25   27 1   
    44   25   30 1   
    45   26   28 1   
    46   26   29 1   
    47   26   31 1   
    48   26   45 1   
    49   27   28 1   
    50   27   46 1   
    51   27   47 1   
    52   28   48 1   
    53   28   49 1   
    54   29   30 1   
    55   29   50 1   
    56   29   51 1   
    57   30   52 1   
    58   30   53 1   
    59   31   54 1   
    60   31   55 1   
    61   31   56 1   
@<TRIPOS>SUBSTRUCTURE
     1 IA          1 TEMP              0 ****  ****    0 ROOT
