@<TRIPOS>MOLECULE
IA
   56    61     1     0     0
SMALL
bcc


@<TRIPOS>ATOM
      1 C           0.1300    0.3940   -0.1670 ca        1 IA      -0.074000
      2 C1          1.4420    0.2860    2.2970 ca        1 IA      -0.132900
      3 C2          1.4970    0.6580   -0.0900 ca        1 IA      -0.136000
      4 C3          2.1580    0.6070    1.1350 ca        1 IA      -0.063000
      5 C4         -0.5860    0.0820    0.9910 ca        1 IA       0.015900
      6 C5          0.0660    0.0320    2.2220 ca        1 IA      -0.082000
      7 C6          2.1410    0.2350    3.5830 cc        1 IA       0.492400
      8 C7          2.6290   -0.4480    5.6760 ca        1 IA      -0.085200
      9 C8          3.5350    0.6050    5.2410 ca        1 IA       0.094400
     10 C9          4.5330    1.0550    6.1190 ca        1 IA      -0.069000
     11 C10         4.6270    0.4690    7.3700 ca        1 IA      -0.139000
     12 C11         3.7500   -0.5620    7.7770 ca        1 IA      -0.130900
     13 C12         2.7350   -1.0310    6.9420 ca        1 IA      -0.071000
     14 N1          1.7570   -0.6630    4.6080 na        1 IA      -0.271300
     15 N2          3.2030    1.0020    3.9360 nd        1 IA      -0.558100
     16 C13         3.8890   -1.1530    9.1110 cc        1 IA       0.510400
     17 C14         4.9220   -1.8710   10.9850 ca        1 IA      -0.080200
     18 C15         3.4870   -2.1070   11.0500 ca        1 IA       0.093400
     19 C16         2.9460   -2.7090   12.1940 ca        1 IA      -0.056000
     20 C17         3.7990   -3.0580   13.2260 ca        1 IA      -0.177000
     21 C18         5.1990   -2.8250   13.1570 ca        1 IA       0.046600
     22 C19         5.7780   -2.2270   12.0300 ca        1 IA      -0.088000
     23 N3          5.1500   -1.2670    9.7480 na        1 IA      -0.273300
     24 N4          2.8810   -1.6500    9.8700 nd        1 IA      -0.562100
     25 N6          6.0740   -3.1920   14.2400 nh        1 IA      -0.617000
     26 N7          6.9290   -4.2410   16.8280 n4        1 IA      -0.683400
     27 C20         6.1160   -4.6280   14.4760 c3        1 IA       0.146300
     28 C21         7.1600   -4.9920   15.5480 c3        1 IA       0.105800
     29 C22         6.8460   -2.7670   16.5540 c3        1 IA       0.105800
     30 C23         5.8080   -2.4470   15.4620 c3        1 IA       0.146300
     31 C24         7.9830   -4.5430   17.8250 c3        1 IA       0.084100
     32 I          -2.5680   -0.2920    0.8880 i         1 IA      -0.123900
     33 H          -0.3780    0.4370   -1.1440 ha        1 IA       0.153000
     34 H2          2.0580    0.9110   -1.0040 ha        1 IA       0.149000
     35 H3          3.2370    0.8220    1.1910 ha        1 IA       0.161000
     36 H5         -0.5080   -0.1910    3.1360 ha        1 IA       0.142000
     37 H9          5.2180    1.8600    5.8130 ha        1 IA       0.159000
     38 H10         5.3940    0.8410    8.0660 ha        1 IA       0.129000
     39 H12         2.0440   -1.8220    7.2670 ha        1 IA       0.161000
     40 HN1         1.0200   -1.3160    4.5710 hn        1 IA       0.314700
     41 H16         1.8630   -2.8950   12.2640 ha        1 IA       0.163000
     42 H17         3.3730   -3.5300   14.1250 ha        1 IA       0.123000
     43 H19         6.8590   -2.0410   11.9660 ha        1 IA       0.150000
     44 HN3         6.0190   -0.9890    9.3770 hn        1 IA       0.316700
     45 HN7         6.0200   -4.5400   17.2060 hn        1 IA       0.445800
     46 H201        6.4310   -5.1310   13.5160 h1        1 IA       0.080700
     47 H202        5.1130   -5.0530   14.7760 h1        1 IA       0.080700
     48 H211        8.1960   -4.7400   15.1820 hx        1 IA       0.107700
     49 H212        7.1020   -6.0940   15.7690 hx        1 IA       0.107700
     50 H221        7.8680   -2.4180   16.2320 hx        1 IA       0.107700
     51 H222        6.5580   -2.2450   17.5090 hx        1 IA       0.107700
     52 H231        5.8960   -1.3470   15.2270 h1        1 IA       0.080700
     53 H232        4.7710   -2.6310   15.8710 h1        1 IA       0.080700
     54 H241        7.7650   -3.9880   18.7760 hx        1 IA       0.104700
     55 H242        7.9990   -5.6470   18.0260 hx        1 IA       0.104700
     56 H243        8.9830   -4.2210   17.4260 hx        1 IA       0.104700
@<TRIPOS>BOND
     1    1    3 ar  
     2    1    5 ar  
     3    1   33 1   
     4    2    4 ar  
     5    2    6 ar  
     6    2    7 1   
     7    3    4 ar  
     8    3   34 1   
     9    4   35 1   
    10    5    6 ar  
    11    5   32 1   
    12    6   36 1   
    13    7   14 1   
    14    7   15 2   
    15    8    9 ar  
    16    8   13 ar  
    17    8   14 1   
    18    9   10 ar  
    19    9   15 1   
    20   10   11 ar  
    21   10   37 1   
    22   11   12 ar  
    23   11   38 1   
    24   12   13 ar  
    25   12   16 1   
    26   13   39 1   
    27   14   40 1   
    28   16   23 1   
    29   16   24 2   
    30   17   18 ar  
    31   17   22 ar  
    32   17   23 1   
    33   18   19 ar  
    34   18   24 1   
    35   19   20 ar  
    36   19   41 1   
    37   20   21 ar  
    38   20   42 1   
    39   21   22 ar  
    40   21   25 1   
    41   22   43 1   
    42   23   44 1   
    43   25   27 1   
    44   25   30 1   
    45   26   28 1   
    46   26   29 1   
    47   26   31 1   
    48   26   45 1   
    49   27   28 1   
    50   27   46 1   
    51   27   47 1   
    52   28   48 1   
    53   28   49 1   
    54   29   30 1   
    55   29   50 1   
    56   29   51 1   
    57   30   52 1   
    58   30   53 1   
    59   31   54 1   
    60   31   55 1   
    61   31   56 1   
@<TRIPOS>SUBSTRUCTURE
     1 IA          1 TEMP              0 ****  ****    0 ROOT
