@<TRIPOS>MOLECULE
IA
   56    61     1     0     0
SMALL
bcc


@<TRIPOS>ATOM
      1 C          -7.5690   -1.4670    0.6120 ca        1 IA      -0.074000
      2 C1         -4.8140   -1.5800    0.1610 ca        1 IA      -0.132900
      3 C2         -6.9060   -2.6940    0.6350 ca        1 IA      -0.136000
      4 C3         -5.5320   -2.7580    0.4100 ca        1 IA      -0.063000
      5 C4         -6.8560   -0.2940    0.3560 ca        1 IA       0.015900
      6 C5         -5.4820   -0.3480    0.1270 ca        1 IA      -0.082000
      7 C6         -3.3700   -1.6520   -0.0750 cc        1 IA       0.492400
      8 C7         -1.2090   -1.0120   -0.0490 ca        1 IA      -0.085200
      9 C8         -1.3630   -2.3160   -0.6760 ca        1 IA       0.094400
     10 C9         -0.2280   -2.9760   -1.1710 ca        1 IA      -0.069000
     11 C10         1.0050   -2.3630   -1.0350 ca        1 IA      -0.139000
     12 C11         1.1460   -1.1010   -0.4130 ca        1 IA      -0.130900
     13 C12         0.0430   -0.4040    0.0820 ca        1 IA      -0.071000
     14 N1         -2.4940   -0.6140    0.3220 na        1 IA      -0.271300
     15 N2         -2.7180   -2.6820   -0.6710 nd        1 IA      -0.558100
     16 C13         2.4730   -0.4930   -0.2900 cc        1 IA       0.510400
     17 C14         4.7140   -0.3910   -0.0410 ca        1 IA      -0.080200
     18 C15         4.1340    0.9400   -0.1520 ca        1 IA       0.093400
     19 C16         4.9780    2.0580   -0.1010 ca        1 IA      -0.056000
     20 C17         6.3380    1.8560    0.0550 ca        1 IA      -0.177000
     21 C18         6.8980    0.5550    0.1620 ca        1 IA       0.046600
     22 C19         6.0890   -0.5870    0.1160 ca        1 IA      -0.088000
     23 N3          3.6430   -1.2790   -0.1300 na        1 IA      -0.273300
     24 N4          2.7440    0.8360   -0.3040 nd        1 IA      -0.562100
     25 N6          8.3160    0.3600    0.3210 nh        1 IA      -0.617000
     26 N7         11.1500    1.0080    0.5940 n4        1 IA      -0.683400
     27 C20         8.8300    0.9090    1.5680 c3        1 IA       0.146300
     28 C21        10.3180    0.5650    1.7630 c3        1 IA       0.105800
     29 C22        10.5770    0.4670   -0.6830 c3        1 IA       0.105800
     30 C23         9.0840    0.8130   -0.8310 c3        1 IA       0.146300
     31 C24        12.5660    0.6050    0.7600 c3        1 IA       0.084100
     32 I          -7.8120    1.4840    0.3120 i         1 IA      -0.123900
     33 H          -8.6550   -1.4330    0.7920 ha        1 IA       0.153000
     34 H2         -7.4720   -3.6180    0.8300 ha        1 IA       0.149000
     35 H3         -5.0140   -3.7300    0.4240 ha        1 IA       0.161000
     36 H5         -4.9280    0.5770   -0.0990 ha        1 IA       0.142000
     37 H9         -0.3270   -3.9570   -1.6610 ha        1 IA       0.159000
     38 H10         1.8910   -2.8700   -1.4460 ha        1 IA       0.129000
     39 H12         0.1530    0.5840    0.5520 ha        1 IA       0.161000
     40 HN1        -2.7440    0.2230    0.7760 hn        1 IA       0.314700
     41 H16         4.5590    3.0730   -0.1840 ha        1 IA       0.163000
     42 H17         7.0000    2.7350    0.0940 ha        1 IA       0.123000
     43 H19         6.5110   -1.5990    0.1980 ha        1 IA       0.150000
     44 HN3         3.6820   -2.2620   -0.0760 hn        1 IA       0.316700
     45 HN7        11.1020    2.0350    0.5480 hn        1 IA       0.445800
     46 H201        8.6960    2.0280    1.6420 h1        1 IA       0.080700
     47 H202        8.2610    0.4350    2.4190 h1        1 IA       0.080700
     48 H211       10.4470   -0.5490    1.8760 hx        1 IA       0.107700
     49 H212       10.7030    1.0790    2.6870 hx        1 IA       0.107700
     50 H221       11.1500    0.9090   -1.5450 hx        1 IA       0.107700
     51 H222       10.7170   -0.6520   -0.6770 hx        1 IA       0.107700
     52 H231        8.9770    1.9210   -1.0200 h1        1 IA       0.080700
     53 H232        8.7000    0.2680   -1.7420 h1        1 IA       0.080700
     54 H241       13.1640    0.9750   -0.1160 hx        1 IA       0.104700
     55 H242       12.9710    1.0490    1.7090 hx        1 IA       0.104700
     56 H243       12.6360   -0.5150    0.8130 hx        1 IA       0.104700
@<TRIPOS>BOND
     1    1    3 ar  
     2    1    5 ar  
     3    1   33 1   
     4    2    4 ar  
     5    2    6 ar  
     6    2    7 1   
     7    3    4 ar  
     8    3   34 1   
     9    4   35 1   
    10    5    6 ar  
    11    5   32 1   
    12    6   36 1   
    13    7   14 1   
    14    7   15 2   
    15    8    9 ar  
    16    8   13 ar  
    17    8   14 1   
    18    9   10 ar  
    19    9   15 1   
    20   10   11 ar  
    21   10   37 1   
    22   11   12 ar  
    23   11   38 1   
    24   12   13 ar  
    25   12   16 1   
    26   13   39 1   
    27   14   40 1   
    28   16   23 1   
    29   16   24 2   
    30   17   18 ar  
    31   17   22 ar  
    32   17   23 1   
    33   18   19 ar  
    34   18   24 1   
    35   19   20 ar  
    36   19   41 1   
    37   20   21 ar  
    38   20   42 1   
    39   21   22 ar  
    40   21   25 1   
    41   22   43 1   
    42   23   44 1   
    43   25   27 1   
    44   25   30 1   
    45   26   28 1   
    46   26   29 1   
    47   26   31 1   
    48   26   45 1   
    49   27   28 1   
    50   27   46 1   
    51   27   47 1   
    52   28   48 1   
    53   28   49 1   
    54   29   30 1   
    55   29   50 1   
    56   29   51 1   
    57   30   52 1   
    58   30   53 1   
    59   31   54 1   
    60   31   55 1   
    61   31   56 1   
@<TRIPOS>SUBSTRUCTURE
     1 IA          1 TEMP              0 ****  ****    0 ROOT
