@<TRIPOS>MOLECULE
IA2
   21    16     1     0     0
SMALL
bcc


@<TRIPOS>ATOM
      1 CL18       -4.7220   -0.1520    1.1990 cl        1 IA2      0.062000
      2 C10        -2.9850    0.0010    1.2070 c2        1 IA2     -0.070000
      3 C9         -2.1990    0.2340    2.3130 c1        1 IA2     -0.120000
      4 CL17       -2.7670    0.4660    3.9450 cl        1 IA2      0.035333
      5 C8         -0.9060    0.3010    1.9010 c1        1 IA2     -0.115000
      6 CL16        0.4860    0.5230    2.9270 cl        1 IA2      0.035333
      7 C7         -0.8850    0.1100    0.5370 c2        1 IA2     -0.015000
      8 C4          0.2410    0.1300   -0.2710 c1        1 IA2     -0.028000
      9 C5          0.6050    1.2980   -0.9240 c1        1 IA2     -0.068000
     10 C6          1.7490    1.3270   -1.7060 c1        1 IA2     -0.088000
     11 CL13        2.2250    2.8050   -2.4990 cl        1 IA2      0.035333
     12 C3          1.0220   -1.0080   -0.3990 c1        1 IA2      0.098000
     13 C2          2.1660   -0.9780   -1.1820 c1        1 IA2     -0.141000
     14 N1         -2.1690   -0.0740    0.1170 n2        1 IA2     -0.137000
     15 CL14        3.3740   -2.2200   -1.3790 cl        1 IA2     -0.001000
     16 C1          2.5290    0.1890   -1.8350 c2        1 IA2     -0.075000
     17 O12         0.6730   -2.1820    0.2920 oh        1 IA2     -0.259000
     18 H1         -2.4360   -0.2220   -0.7430 DU        1 IA2      0.273000
     19 H5          0.0580    2.1010   -0.8290 ha        1 IA2      0.171000
     20 H12         0.6060   -2.8560   -0.2830 ho        1 IA2      0.241000
     21 HA          3.3350    0.2090   -2.3860 ha        1 IA2      0.167000
@<TRIPOS>BOND
     1    1    2 1   
     2    2    3 1   
     3    2   14 1   
     4    3    5 1   
     5    5    7 1   
     6    7    8 1   
     7    7   14 1   
     8    8   12 1   
     9    9   10 1   
    10    9   19 1   
    11   10   16 1   
    12   12   17 1   
    13   13   15 1   
    14   13   16 1   
    15   16   21 1   
    16   17   20 1   
@<TRIPOS>SUBSTRUCTURE
     1 IA2         1 TEMP              0 ****  ****    0 ROOT
