@<TRIPOS>MOLECULE
IA2
   21    22     1     0     0
SMALL
bcc


@<TRIPOS>ATOM
      1 CL18        0.4850   -1.4100    0.4460 cl        1 IA2     -0.016400
      2 C10         1.9130   -0.5550    0.2640 cc        1 IA2     -0.015900
      3 C9          2.3810    0.5380    1.0230 cd        1 IA2     -0.041600
      4 CL17        1.6010    1.2540    2.3060 cl        1 IA2     -0.022400
      5 C8          3.6550    0.9120    0.4750 cd        1 IA2     -0.036600
      6 CL16        4.6230    2.1380    1.0560 cl        1 IA2     -0.033400
      7 C7          3.9250    0.0400   -0.6060 cc        1 IA2     -0.039300
      8 C4          5.0770    0.0120   -1.4910 ca        1 IA2     -0.028000
      9 C5          5.6440    1.2200   -1.9120 ca        1 IA2     -0.068000
     10 C6          6.7730    1.2270   -2.7340 ca        1 IA2     -0.009600
     11 CL13        7.4460    2.7070   -3.2230 cl        1 IA2     -0.073400
     12 C3          5.6500   -1.2020   -1.9390 ca        1 IA2      0.143100
     13 C2          6.7900   -1.1810   -2.7650 ca        1 IA2     -0.062600
     14 N1          2.8430   -0.8350   -0.7330 na        1 IA2     -0.138100
     15 CL14        7.5050   -2.6310   -3.2950 cl        1 IA2     -0.079400
     16 C1          7.3560    0.0330   -3.1600 ca        1 IA2     -0.075000
     17 O12         5.0370   -2.3690   -1.5520 oh        1 IA2     -0.505100
     18 H1          2.8330   -1.6270   -1.3290 hn        1 IA2      0.322700
     19 H5          5.1900    2.1730   -1.5870 ha        1 IA2      0.171000
     20 H12         5.6120   -3.1150   -1.7900 ho        1 IA2      0.442000
     21 HA          8.2500    0.0430   -3.8040 ha        1 IA2      0.167000
@<TRIPOS>BOND
     1    1    2 1   
     2    2    3 2   
     3    2   14 1   
     4    3    4 1   
     5    3    5 1   
     6    5    6 1   
     7    5    7 2   
     8    7    8 1   
     9    7   14 1   
    10    8    9 ar  
    11    8   12 ar  
    12    9   10 ar  
    13    9   19 1   
    14   10   11 1   
    15   10   16 ar  
    16   12   13 ar  
    17   12   17 1   
    18   13   15 1   
    19   13   16 ar  
    20   14   18 1   
    21   16   21 1   
    22   17   20 1   
@<TRIPOS>SUBSTRUCTURE
     1 IA2         1 TEMP              0 ****  ****    0 ROOT
