@<TRIPOS>MOLECULE
IA2
   21    22     1     0     0
SMALL
bcc


@<TRIPOS>ATOM
      1 CL18       -3.9340   -1.7520    1.5010 cl        1 IA2     -0.010400
      2 C10        -2.7230   -0.8830    0.7390 cc        1 IA2     -0.016900
      3 C9         -2.8540    0.1740   -0.1860 cd        1 IA2     -0.040600
      4 CL17       -4.2770    0.8200   -0.7520 cl        1 IA2     -0.015400
      5 C8         -1.5230    0.5810   -0.5440 cd        1 IA2     -0.045600
      6 CL16       -1.1280    1.7860   -1.6250 cl        1 IA2     -0.021400
      7 C7         -0.6220   -0.2360    0.1730 cc        1 IA2     -0.064300
      8 C4          0.8320   -0.2490    0.1540 ca        1 IA2     -0.107000
      9 C5          1.4970   -1.3690   -0.3590 ca        1 IA2     -0.068000
     10 C6          2.8910   -1.3980   -0.3860 ca        1 IA2     -0.019600
     11 CL13        3.6930   -2.7600   -1.0070 cl        1 IA2     -0.078400
     12 C3          1.5750    0.8470    0.6390 ca        1 IA2      0.173100
     13 C2          2.9880    0.8070    0.6030 ca        1 IA2     -0.014600
     14 N1         -1.3680   -1.1240    0.9520 na        1 IA2     -0.149100
     15 CL14        3.9260    2.0990    1.1740 cl        1 IA2     -0.053400
     16 C1          3.6380   -0.3170    0.0920 ca        1 IA2     -0.077000
     17 O12         0.9920    1.9650    1.1720 oh        1 IA2     -0.473100
     18 H1         -0.9900   -1.8150    1.5500 hn        1 IA2      0.316700
     19 H5          0.9130   -2.2170   -0.7500 ha        1 IA2      0.157000
     20 H12         0.0310    1.9080    1.0350 ho        1 IA2      0.441000
     21 HA          4.7400   -0.3480    0.0640 ha        1 IA2      0.167000
@<TRIPOS>BOND
     1    1    2 1   
     2    2    3 2   
     3    2   14 1   
     4    3    4 1   
     5    3    5 1   
     6    5    6 1   
     7    5    7 2   
     8    7    8 1   
     9    7   14 1   
    10    8    9 ar  
    11    8   12 ar  
    12    9   10 ar  
    13    9   19 1   
    14   10   11 1   
    15   10   16 ar  
    16   12   13 ar  
    17   12   17 1   
    18   13   15 1   
    19   13   16 ar  
    20   14   18 1   
    21   16   21 1   
    22   17   20 1   
@<TRIPOS>SUBSTRUCTURE
     1 IA2         1 TEMP              0 ****  ****    0 ROOT
