@<TRIPOS>MOLECULE
IA7
   38    40     1     0     0
SMALL
bcc


@<TRIPOS>ATOM
      1 N4         -1.5080   -0.1980   -2.2130 n1        1 IA7     -0.398800
      2 C11        -0.8850   -0.1130   -1.2320 cg        1 IA7      0.250800
      3 C8         -0.1290   -0.0070   -0.0450 ca        1 IA7     -0.333300
      4 C7          1.2530   -0.3080   -0.0400 ca        1 IA7      0.360600
      5 N5          1.8240   -0.9110   -1.1200 nh        1 IA7     -0.828200
      6 C9         -0.7760    0.3770    1.1920 ca        1 IA7      0.781200
      7 N3         -2.0960    0.7610    1.1720 nh        1 IA7     -0.958500
      8 N1         -0.1310    0.3690    2.3900 nb        1 IA7     -0.771000
      9 C10         1.2180    0.1380    2.3920 ca        1 IA7      0.759300
     10 N2          1.8540    0.1130    3.6320 nb        1 IA7     -0.687000
     11 C4          3.1870   -0.0100    3.6440 ca        1 IA7      0.698300
     12 C1          3.9180   -0.0900    4.9970 c3        1 IA7     -0.079300
     13 C3          2.9430   -0.1950    6.1630 c3        1 IA7     -0.086100
     14 C2          4.8180   -1.3200    5.0010 c3        1 IA7     -0.086100
     15 C           4.7530    1.1720    5.1620 c3        1 IA7     -0.086100
     16 C6          1.9860   -0.0700    1.1790 ca        1 IA7     -0.406600
     17 C5          3.4080   -0.0160    1.3230 ca        1 IA7      0.478300
     18 N           4.0060   -0.0190    2.5180 nb        1 IA7     -0.743000
     19 C12         4.3190    0.1340    0.1740 cc        1 IA7      0.262400
     20 S           5.8240   -0.6840    0.1210 ss        1 IA7      0.041700
     21 C14         6.2270    0.0870   -1.2900 cc        1 IA7     -0.280400
     22 C13         5.2170    0.9690   -1.6730 cd        1 IA7      0.323200
     23 N6          4.1240    1.0020   -0.8360 nd        1 IA7     -0.616000
     24 H51N        2.7930   -1.1100   -1.1320 hn        1 IA7      0.440300
     25 H52N        1.3460   -0.9050   -1.9890 hn        1 IA7      0.440300
     26 H31N       -2.6250    0.6240    0.3470 hn        1 IA7      0.445300
     27 H32N       -2.5750    0.9370    2.0220 hn        1 IA7      0.445300
     28 H31C        2.2980   -1.1000    6.0610 hc        1 IA7      0.043811
     29 H32C        2.2890    0.7080    6.2190 hc        1 IA7      0.043811
     30 H33C        3.5190   -0.2750    7.1170 hc        1 IA7      0.043811
     31 H21C        5.2680   -1.4460    6.0160 hc        1 IA7      0.043811
     32 H22C        5.6470   -1.2160    4.2620 hc        1 IA7      0.043811
     33 H23C        4.2270   -2.2350    4.7580 hc        1 IA7      0.043811
     34 HC1         4.1050    2.0780    5.0890 hc        1 IA7      0.043811
     35 HC2         5.2440    1.1640    6.1660 hc        1 IA7      0.043811
     36 HC3         5.5480    1.2330    4.3810 hc        1 IA7      0.043811
     37 H14         7.1550   -0.0660   -1.8380 h4        1 IA7      0.187000
     38 H13         5.2270    1.6220   -2.5540 h4        1 IA7      0.051100
@<TRIPOS>BOND
     1    1    2 3   
     2    2    3 1   
     3    3    4 ar  
     4    3    6 ar  
     5    4    5 1   
     6    4   16 ar  
     7    5   24 1   
     8    5   25 1   
     9    6    7 1   
    10    6    8 ar  
    11    7   26 1   
    12    7   27 1   
    13    8    9 ar  
    14    9   10 ar  
    15    9   16 ar  
    16   10   11 ar  
    17   11   12 1   
    18   11   18 ar  
    19   12   13 1   
    20   12   14 1   
    21   12   15 1   
    22   13   28 1   
    23   13   29 1   
    24   13   30 1   
    25   14   31 1   
    26   14   32 1   
    27   14   33 1   
    28   15   34 1   
    29   15   35 1   
    30   15   36 1   
    31   16   17 ar  
    32   17   18 ar  
    33   17   19 1   
    34   19   20 1   
    35   19   23 2   
    36   20   21 1   
    37   21   22 2   
    38   21   37 1   
    39   22   23 1   
    40   22   38 1   
@<TRIPOS>SUBSTRUCTURE
     1 IA7         1 TEMP              0 ****  ****    0 ROOT
