@<TRIPOS>MOLECULE
IA9
   48    50     1     0     0
SMALL
bcc


@<TRIPOS>ATOM
      1 CLG         2.6740   -1.5890   -1.4430 cl        1 IA9     -0.067400
      2 CAX         2.6030   -0.0470   -0.7280 ca        1 IA9      0.056400
      3 CAS         3.3170    0.1860    0.4590 ca        1 IA9     -0.104300
      4 CAA         4.1350   -0.8790    1.0830 c3        1 IA9     -0.060800
      5 CAT         3.2290    1.4670    1.0500 ca        1 IA9      0.151900
      6 FAF         3.9080    1.7380    2.1900 f         1 IA9     -0.128900
      7 CAH         2.4370    2.4770    0.4730 ca        1 IA9     -0.167000
      8 CAJ         1.7380    2.2150   -0.6970 ca        1 IA9     -0.059000
      9 CAW         1.8250    0.9610   -1.3110 ca        1 IA9     -0.154600
     10 CAR         1.0240    0.7580   -2.5580 c         1 IA9      0.681700
     11 OAC        -0.1970    0.9920   -2.5800 o         1 IA9     -0.568100
     12 NAQ         1.7380    0.3510   -3.6770 n         1 IA9     -0.463100
     13 CAV         1.2040    0.1100   -4.9530 ca        1 IA9      0.065600
     14 CAL        -0.1460   -0.2580   -5.1160 ca        1 IA9     -0.089000
     15 CAU        -0.6520   -0.5300   -6.3920 ca        1 IA9     -0.163200
     16 NBB        -2.0780   -0.9250   -6.5450 no        1 IA9      0.314200
     17 OAE        -2.7550   -1.0730   -5.5640 o         1 IA9     -0.206500
     18 OAD        -2.5160   -1.0920   -7.6530 o         1 IA9     -0.206500
     19 CAI         0.1620   -0.4460   -7.5290 ca        1 IA9     -0.081000
     20 CAK         1.4920   -0.0820   -7.3750 ca        1 IA9     -0.156000
     21 CAY         2.0460    0.2080   -6.1140 ca        1 IA9      0.107600
     22 NBA         3.4240    0.5390   -5.9500 nh        1 IA9     -0.647000
     23 CAO         4.3390   -0.1280   -6.8660 c3        1 IA9      0.177300
     24 CAM         5.8120    0.1630   -6.5100 c3        1 IA9      0.166800
     25 NAZ         6.0920    1.5870   -6.4020 n3        1 IA9     -0.733600
     26 CAB         7.4710    1.8570   -6.0620 c3        1 IA9      0.157100
     27 CAN         5.1570    2.2730   -5.5230 c3        1 IA9      0.166800
     28 CAP         3.6820    1.9720   -5.8590 c3        1 IA9      0.177300
     29 H1          4.6390   -0.5100    2.0110 hc        1 IA9      0.061033
     30 H2          4.9220   -1.2330    0.3700 hc        1 IA9      0.061033
     31 H3          3.4900   -1.7530    1.3550 hc        1 IA9      0.061033
     32 H4          2.3740    3.4620    0.9600 ha        1 IA9      0.161000
     33 H5          1.0950    2.9910   -1.1450 ha        1 IA9      0.163000
     34 H6          2.7220    0.2190   -3.5760 hn        1 IA9      0.343500
     35 H7         -0.8170   -0.3320   -4.2360 ha        1 IA9      0.204000
     36 H8         -0.2480   -0.6600   -8.5300 ha        1 IA9      0.172000
     37 H9          2.1190   -0.0130   -8.2790 ha        1 IA9      0.150000
     38 H10         4.1680    0.1840   -7.9370 h1        1 IA9      0.047700
     39 H11         4.1680   -1.2370   -6.7890 h1        1 IA9      0.047700
     40 H12         6.4500   -0.2520   -7.3390 h1        1 IA9      0.040200
     41 H13         6.0730   -0.3900   -5.5610 h1        1 IA9      0.040200
     42 H15         7.6370    2.9660   -6.0850 h1        1 IA9      0.035033
     43 H16         8.1310    1.3760   -6.8310 h1        1 IA9      0.035033
     44 H17         7.7640    1.4720   -5.0470 h1        1 IA9      0.035033
     45 H18         5.3390    2.0190   -4.4380 h1        1 IA9      0.040200
     46 H19         5.3150    3.3800   -5.6500 h1        1 IA9      0.040200
     47 H20         3.4140    2.4970   -6.8210 h1        1 IA9      0.047700
     48 H21         3.0420    2.4000   -5.0390 h1        1 IA9      0.047700
@<TRIPOS>BOND
     1    1    2 1   
     2    2    3 ar  
     3    2    9 ar  
     4    3    4 1   
     5    3    5 ar  
     6    4   29 1   
     7    4   30 1   
     8    4   31 1   
     9    5    6 1   
    10    5    7 ar  
    11    7    8 ar  
    12    7   32 1   
    13    8    9 ar  
    14    8   33 1   
    15    9   10 1   
    16   10   11 2   
    17   10   12 1   
    18   12   13 1   
    19   12   34 1   
    20   13   14 ar  
    21   13   21 ar  
    22   14   15 ar  
    23   14   35 1   
    24   15   16 1   
    25   15   19 ar  
    26   16   17 1   
    27   16   18 1   
    28   19   20 ar  
    29   19   36 1   
    30   20   21 ar  
    31   20   37 1   
    32   21   22 1   
    33   22   23 1   
    34   22   28 1   
    35   23   24 1   
    36   23   38 1   
    37   23   39 1   
    38   24   25 1   
    39   24   40 1   
    40   24   41 1   
    41   25   26 1   
    42   25   27 1   
    43   26   42 1   
    44   26   43 1   
    45   26   44 1   
    46   27   28 1   
    47   27   45 1   
    48   27   46 1   
    49   28   47 1   
    50   28   48 1   
@<TRIPOS>SUBSTRUCTURE
     1 IA9         1 TEMP              0 ****  ****    0 ROOT
