@<TRIPOS>MOLECULE
IA9
   48    50     1     0     0
SMALL
bcc


@<TRIPOS>ATOM
      1 CLG         2.6480   -1.5810   -1.4400 cl        1 IA9     -0.067400
      2 CAX         2.6000   -0.0380   -0.7260 ca        1 IA9      0.056400
      3 CAS         3.3200    0.1860    0.4590 ca        1 IA9     -0.104300
      4 CAA         4.1250   -0.8890    1.0820 c3        1 IA9     -0.060800
      5 CAT         3.2510    1.4700    1.0480 ca        1 IA9      0.151900
      6 FAF         3.9360    1.7320    2.1860 f         1 IA9     -0.128900
      7 CAH         2.4720    2.4900    0.4720 ca        1 IA9     -0.167000
      8 CAJ         1.7670    2.2370   -0.6960 ca        1 IA9     -0.059000
      9 CAW         1.8360    0.9810   -1.3090 ca        1 IA9     -0.154600
     10 CAR         1.0290    0.7870   -2.5540 c         1 IA9      0.681700
     11 OAC        -0.1890    1.0390   -2.5740 o         1 IA9     -0.568100
     12 NAQ         1.7350    0.3700   -3.6740 n         1 IA9     -0.463100
     13 CAV         1.1960    0.1350   -4.9490 ca        1 IA9      0.065600
     14 CAL        -0.1610   -0.2140   -5.1090 ca        1 IA9     -0.089000
     15 CAU        -0.6730   -0.4800   -6.3840 ca        1 IA9     -0.163200
     16 NBB        -2.1050   -0.8540   -6.5330 no        1 IA9      0.314200
     17 OAE        -2.7820   -0.9900   -5.5510 o         1 IA9     -0.206500
     18 OAD        -2.5470   -1.0150   -7.6410 o         1 IA9     -0.206500
     19 CAI         0.1400   -0.4090   -7.5220 ca        1 IA9     -0.081000
     20 CAK         1.4760   -0.0640   -7.3710 ca        1 IA9     -0.156000
     21 CAY         2.0370    0.2190   -6.1120 ca        1 IA9      0.107600
     22 NBA         3.4190    0.5300   -5.9500 nh        1 IA9     -0.647000
     23 CAO         4.3230   -0.1510   -6.8660 c3        1 IA9      0.177300
     24 CAM         5.8000    0.1190   -6.5130 c3        1 IA9      0.166800
     25 NAZ         6.1010    1.5390   -6.4090 n3        1 IA9     -0.733600
     26 CAB         7.4840    1.7900   -6.0720 c3        1 IA9      0.157100
     27 CAN         5.1780    2.2400   -5.5290 c3        1 IA9      0.166800
     28 CAP         3.6980    1.9600   -5.8620 c3        1 IA9      0.177300
     29 H1          4.9040   -1.2550    0.3680 hc        1 IA9      0.061033
     30 H2          3.4680   -1.7530    1.3570 hc        1 IA9      0.061033
     31 H3          4.6360   -0.5260    2.0080 hc        1 IA9      0.061033
     32 H4          2.4240    3.4760    0.9580 ha        1 IA9      0.161000
     33 H5          1.1340    3.0220   -1.1440 ha        1 IA9      0.163000
     34 H6          2.7170    0.2240   -3.5750 hn        1 IA9      0.343500
     35 H7         -0.8310   -0.2770   -4.2280 ha        1 IA9      0.204000
     36 H8         -0.2740   -0.6170   -8.5230 ha        1 IA9      0.172000
     37 H9          2.1030   -0.0050   -8.2770 ha        1 IA9      0.150000
     38 H10         4.1550    0.1610   -7.9380 h1        1 IA9      0.047700
     39 H11         4.1360   -1.2570   -6.7870 h1        1 IA9      0.047700
     40 H12         6.0550   -0.4360   -5.5640 h1        1 IA9      0.040200
     41 H13         6.4310   -0.3070   -7.3430 h1        1 IA9      0.040200
     42 H15         8.1370    1.2980   -6.8410 h1        1 IA9      0.035033
     43 H16         7.7740    1.4030   -5.0560 h1        1 IA9      0.035033
     44 H17         7.6670    2.8960   -6.0980 h1        1 IA9      0.035033
     45 H18         5.3590    1.9850   -4.4440 h1        1 IA9      0.040200
     46 H19         5.3520    3.3450   -5.6590 h1        1 IA9      0.040200
     47 H20         3.4360    2.4870   -6.8250 h1        1 IA9      0.047700
     48 H21         3.0660    2.3990   -5.0420 h1        1 IA9      0.047700
@<TRIPOS>BOND
     1    1    2 1   
     2    2    3 ar  
     3    2    9 ar  
     4    3    4 1   
     5    3    5 ar  
     6    4   29 1   
     7    4   30 1   
     8    4   31 1   
     9    5    6 1   
    10    5    7 ar  
    11    7    8 ar  
    12    7   32 1   
    13    8    9 ar  
    14    8   33 1   
    15    9   10 1   
    16   10   11 2   
    17   10   12 1   
    18   12   13 1   
    19   12   34 1   
    20   13   14 ar  
    21   13   21 ar  
    22   14   15 ar  
    23   14   35 1   
    24   15   16 1   
    25   15   19 ar  
    26   16   17 1   
    27   16   18 1   
    28   19   20 ar  
    29   19   36 1   
    30   20   21 ar  
    31   20   37 1   
    32   21   22 1   
    33   22   23 1   
    34   22   28 1   
    35   23   24 1   
    36   23   38 1   
    37   23   39 1   
    38   24   25 1   
    39   24   40 1   
    40   24   41 1   
    41   25   26 1   
    42   25   27 1   
    43   26   42 1   
    44   26   43 1   
    45   26   44 1   
    46   27   28 1   
    47   27   45 1   
    48   27   46 1   
    49   28   47 1   
    50   28   48 1   
@<TRIPOS>SUBSTRUCTURE
     1 IA9         1 TEMP              0 ****  ****    0 ROOT
