@<TRIPOS>MOLECULE
IA9
   48    43     1     0     0
SMALL
bcc


@<TRIPOS>ATOM
      1 CLG        -1.3090   -3.9850    2.7900 cl        1 IA9      0.010000
      2 CAX        -0.4350   -2.6510    3.4500 c1        1 IA9     -0.020000
      3 CAS         0.1860   -2.7690    4.6990 c1        1 IA9     -0.098000
      4 CAA         0.1840   -4.0730    5.4030 c3        1 IA9     -0.186000
      5 CAT         0.8430   -1.7040    5.2390 c1        1 IA9      0.117000
      6 FAF         1.4580   -1.8300    6.4130 f         1 IA9     -0.094000
      7 CAH         0.8960   -0.4680    4.5290 c1        1 IA9     -0.112500
      8 CAJ         0.2830   -0.3530    3.2980 c1        1 IA9     -0.112500
      9 CAW        -0.3830   -1.4400    2.7530 c1        1 IA9     -0.134000
     10 CAR        -1.0720   -1.3170    1.3440 c2        1 IA9      0.357000
     11 OAC        -1.6370   -2.2520    0.8770 o         1 IA9     -0.328000
     12 NAQ        -1.0370   -0.0200    0.6020 n         1 IA9     -0.311000
     13 CAV        -1.6900    0.0940   -0.6820 c1        1 IA9      0.095000
     14 CAL        -2.9580   -0.3470   -0.8310 c1        1 IA9     -0.103000
     15 CAU        -3.6360   -0.1340   -2.0310 c1        1 IA9     -0.106000
     16 NBB        -5.0120   -0.5780   -2.1780 n1        1 IA9      0.567000
     17 OAE        -5.6290   -0.2990   -3.1740 o         1 IA9     -0.363000
     18 OAD        -5.5840   -1.4200   -1.2140 os        1 IA9     -0.346000
     19 CAI        -2.9980    0.5400   -3.0870 c2        1 IA9     -0.093000
     20 CAK        -1.7460    0.9750   -2.9390 c1        1 IA9     -0.142000
     21 CAY        -1.0600    0.7600   -1.7240 c1        1 IA9     -0.005000
     22 NBA         0.3570    1.1600   -1.5940 n3        1 IA9     -0.239000
     23 CAO         1.1600    0.3280   -2.4270 c3        1 IA9     -0.067000
     24 CAM         2.5820    0.7670   -2.4650 c3        1 IA9     -0.070000
     25 NAZ         2.7130    2.1630   -2.7820 n3        1 IA9     -0.259000
     26 CAB         4.1210    2.5710   -2.6620 c3        1 IA9     -0.119000
     27 CAN         1.9140    2.9860   -1.9530 c3        1 IA9     -0.070000
     28 CAP         0.4880    2.5430   -1.9100 c3        1 IA9     -0.067000
     29 H1          0.9840   -4.1620    5.9090 hc        1 IA9      0.100000
     30 H2          0.1280   -4.8520    4.6970 hc        1 IA9      0.100000
     31 H3         -0.6020   -4.1200    6.0120 hc        1 IA9      0.100000
     32 H4          1.3670    0.3000    4.9130 ha        1 IA9      0.161500
     33 H5          0.3190    0.4870    2.8170 ha        1 IA9      0.161500
     34 H6         -0.5970    0.6730    0.9380 hn        1 IA9      0.259000
     35 H7         -3.3970   -0.8660   -0.0930 ha        1 IA9      0.207000
     36 H8         -3.4680    0.6890   -3.9200 ha        1 IA9      0.173000
     37 H9         -1.3350    1.4090   -3.6210 ha        1 IA9      0.151000
     38 H10         0.7830    0.3460   -3.3760 h1        1 IA9      0.085750
     39 H11         1.1200   -0.6180   -2.0750 h1        1 IA9      0.085750
     40 H12         2.9960    0.5980   -1.5700 h1        1 IA9      0.079500
     41 H13         3.0680    0.2300   -3.1550 h1        1 IA9      0.079500
     42 H15         4.4330    2.4370   -1.7050 h1        1 IA9      0.074000
     43 H16         4.6740    2.0280   -3.2670 h1        1 IA9      0.074000
     44 H17         4.2020    3.4530   -2.8860 h1        1 IA9      0.074000
     45 H18         1.9480    3.9700   -2.3190 h1        1 IA9      0.079500
     46 H19         2.2820    2.9730   -1.0380 h1        1 IA9      0.079500
     47 H20         0.0790    2.7100   -2.7740 h1        1 IA9      0.085750
     48 H21         0.0190    3.0660   -1.2310 h1        1 IA9      0.085750
@<TRIPOS>BOND
     1    1    2 1   
     2    2    9 1   
     3    3    4 1   
     4    3    5 1   
     5    4   29 1   
     6    4   30 1   
     7    4   31 1   
     8    5    6 1   
     9    7    8 1   
    10    7   32 1   
    11    8   33 1   
    12    9   10 1   
    13   10   11 1   
    14   10   12 1   
    15   12   13 1   
    16   12   34 1   
    17   13   21 1   
    18   14   15 1   
    19   14   35 1   
    20   15   19 1   
    21   16   17 1   
    22   19   20 1   
    23   19   36 1   
    24   20   37 1   
    25   21   22 1   
    26   22   23 1   
    27   22   28 1   
    28   23   24 1   
    29   23   38 1   
    30   23   39 1   
    31   24   25 1   
    32   24   40 1   
    33   24   41 1   
    34   25   26 1   
    35   25   27 1   
    36   26   42 1   
    37   26   43 1   
    38   26   44 1   
    39   27   28 1   
    40   27   45 1   
    41   27   46 1   
    42   28   47 1   
    43   28   48 1   
@<TRIPOS>SUBSTRUCTURE
     1 IA9         1 TEMP              0 ****  ****    0 ROOT
