@<TRIPOS>MOLECULE
IA9
   48    50     1     0     0
SMALL
bcc


@<TRIPOS>ATOM
      1 ClG         2.6340   -1.5880   -1.4470 cl        1 IA9     -0.067400
      2 CAX         2.6010   -0.0470   -0.7280 ca        1 IA9      0.056400
      3 CAS         3.3250    0.1670    0.4570 ca        1 IA9     -0.104300
      4 CAA         4.1220   -0.9170    1.0750 c3        1 IA9     -0.060800
      5 CAT         3.2680    1.4480    1.0510 ca        1 IA9      0.151900
      6 FAF         3.9580    1.7010    2.1880 f         1 IA9     -0.128900
      7 CAH         2.4970    2.4780    0.4790 ca        1 IA9     -0.167000
      8 CAJ         1.7870    2.2350   -0.6880 ca        1 IA9     -0.059000
      9 CAW         1.8440    0.9800   -1.3060 ca        1 IA9     -0.154600
     10 CAR         1.0330    0.7970   -2.5500 c         1 IA9      0.681700
     11 OAC        -0.1820    1.0590   -2.5660 o         1 IA9     -0.568100
     12 NAQ         1.7340    0.3790   -3.6720 ns        1 IA9     -0.463100
     13 CAV         1.1900    0.1520   -4.9470 ca        1 IA9      0.065600
     14 CAL        -0.1690   -0.1850   -5.1060 ca        1 IA9     -0.089000
     15 CAU        -0.6860   -0.4420   -6.3810 ca        1 IA9     -0.163200
     16 NBB        -2.1220   -0.8040   -6.5290 no        1 IA9      0.314200
     17 OAE        -2.7980   -0.9380   -5.5460 o         1 IA9     -0.206500
     18 OAD        -2.5670   -0.9570   -7.6360 o         1 IA9     -0.206500
     19 CAI         0.1260   -0.3730   -7.5200 ca        1 IA9     -0.081000
     20 CAK         1.4640   -0.0390   -7.3710 ca        1 IA9     -0.156000
     21 CAY         2.0300    0.2340   -6.1110 ca        1 IA9      0.107600
     22 NBA         3.4150    0.5330   -5.9510 nh        1 IA9     -0.647000
     23 CAO         4.3110   -0.1510   -6.8720 c3        1 IA9      0.177300
     24 CAM         5.7920    0.1050   -6.5210 c3        1 IA9      0.166800
     25 NAZ         6.1040    1.5230   -6.4110 n3        1 IA9     -0.733600
     26 CAB         7.4900    1.7610   -6.0760 c3        1 IA9      0.157100
     27 CAN         5.1880    2.2270   -5.5270 c3        1 IA9      0.166800
     28 CAP         3.7050    1.9610   -5.8590 c3        1 IA9      0.177300
     29 H1          4.6380   -0.5620    2.0010 hc        1 IA9      0.061033
     30 H2          3.4590   -1.7770    1.3470 hc        1 IA9      0.061033
     31 H3          4.8970   -1.2870    0.3570 hc        1 IA9      0.061033
     32 H4          2.4580    3.4620    0.9690 ha        1 IA9      0.161000
     33 H5          1.1600    3.0260   -1.1320 ha        1 IA9      0.163000
     34 H6          2.7150    0.2240   -3.5760 hn        1 IA9      0.343500
     35 H7         -0.8380   -0.2450   -4.2240 ha        1 IA9      0.204000
     36 H8         -0.2930   -0.5750   -8.5210 ha        1 IA9      0.172000
     37 H9          2.0900    0.0170   -8.2770 ha        1 IA9      0.150000
     38 H10         4.1160   -1.2560   -6.7970 h1        1 IA9      0.047700
     39 H11         4.1440    0.1660   -7.9420 h1        1 IA9      0.047700
     40 H12         6.0440   -0.4560   -5.5740 h1        1 IA9      0.040200
     41 H13         6.4180   -0.3220   -7.3530 h1        1 IA9      0.040200
     42 H15         8.1370    1.2660   -6.8480 h1        1 IA9      0.035033
     43 H16         7.7780    1.3670   -5.0620 h1        1 IA9      0.035033
     44 H17         7.6810    2.8650   -6.0980 h1        1 IA9      0.035033
     45 H18         5.3700    3.3310   -5.6530 h1        1 IA9      0.040200
     46 H19         5.3690    1.9670   -4.4430 h1        1 IA9      0.040200
     47 H20         3.0780    2.4010   -5.0360 h1        1 IA9      0.047700
     48 H21         3.4460    2.4930   -6.8190 h1        1 IA9      0.047700
@<TRIPOS>BOND
     1    1    2 1   
     2    2    3 ar  
     3    2    9 ar  
     4    3    4 1   
     5    3    5 ar  
     6    4   29 1   
     7    4   30 1   
     8    4   31 1   
     9    5    6 1   
    10    5    7 ar  
    11    7    8 ar  
    12    7   32 1   
    13    8    9 ar  
    14    8   33 1   
    15    9   10 1   
    16   10   11 2   
    17   10   12 1   
    18   12   13 1   
    19   12   34 1   
    20   13   14 ar  
    21   13   21 ar  
    22   14   15 ar  
    23   14   35 1   
    24   15   16 1   
    25   15   19 ar  
    26   16   17 1   
    27   16   18 1   
    28   19   20 ar  
    29   19   36 1   
    30   20   21 ar  
    31   20   37 1   
    32   21   22 1   
    33   22   23 1   
    34   22   28 1   
    35   23   24 1   
    36   23   38 1   
    37   23   39 1   
    38   24   25 1   
    39   24   40 1   
    40   24   41 1   
    41   25   26 1   
    42   25   27 1   
    43   26   42 1   
    44   26   43 1   
    45   26   44 1   
    46   27   28 1   
    47   27   45 1   
    48   27   46 1   
    49   28   47 1   
    50   28   48 1   
@<TRIPOS>SUBSTRUCTURE
     1 IA9         1 TEMP              0 ****  ****    0 ROOT
