@<TRIPOS>MOLECULE
IA9
   48    50     1     0     0
SMALL
bcc


@<TRIPOS>ATOM
      1 CLG        -2.2680    0.0240   -1.7110 cl        1 IA9     -0.067400
      2 CAX        -2.8150   -0.5510   -0.2070 ca        1 IA9      0.056400
      3 CAS        -3.9260   -1.4090   -0.1680 ca        1 IA9     -0.104300
      4 CAA        -4.6140   -1.8280   -1.4110 c3        1 IA9     -0.060800
      5 CAT        -4.3790   -1.8590    1.0930 ca        1 IA9      0.151900
      6 FAF        -5.4420   -2.6930    1.1760 f         1 IA9     -0.128900
      7 CAH        -3.7420   -1.4470    2.2790 ca        1 IA9     -0.167000
      8 CAJ        -2.6500   -0.5950    2.2100 ca        1 IA9     -0.059000
      9 CAW        -2.1710   -0.1520    0.9720 ca        1 IA9     -0.154600
     10 CAR        -1.0020    0.7810    0.9890 c         1 IA9      0.681700
     11 OAC        -1.0250    1.8240    1.6660 o         1 IA9     -0.568100
     12 NAQ         0.1060    0.3770    0.2560 n         1 IA9     -0.463100
     13 CAV         1.3150    1.0790    0.1350 ca        1 IA9      0.065600
     14 CAL         1.3600    2.4790    0.2940 ca        1 IA9     -0.089000
     15 CAU         2.5680    3.1670    0.1350 ca        1 IA9     -0.163200
     16 NBB         2.5950    4.6460    0.3000 no        1 IA9      0.314200
     17 OAE         1.5670    5.2340    0.4980 o         1 IA9     -0.206500
     18 OAD         3.6520    5.2150    0.2240 o         1 IA9     -0.206500
     19 CAI         3.7520    2.4900   -0.1860 ca        1 IA9     -0.081000
     20 CAK         3.7150    1.1120   -0.3420 ca        1 IA9     -0.156000
     21 CAY         2.5270    0.3740   -0.1860 ca        1 IA9      0.107600
     22 NBA         2.4780   -1.0360   -0.3900 nh        1 IA9     -0.647000
     23 CAO         3.3660   -1.5480   -1.4240 c3        1 IA9      0.177300
     24 CAM         3.1290   -3.0500   -1.6860 c3        1 IA9      0.166800
     25 NAZ         3.1930   -3.8480   -0.4700 n3        1 IA9     -0.733600
     26 CAB         2.9640   -5.2530   -0.7170 c3        1 IA9      0.157100
     27 CAN         2.3420   -3.3210    0.5870 c3        1 IA9      0.166800
     28 CAP         2.5590   -1.8160    0.8410 c3        1 IA9      0.177300
     29 H1         -3.9000   -2.3560   -2.0920 hc        1 IA9      0.061033
     30 H2         -5.4660   -2.5180   -1.1880 hc        1 IA9      0.061033
     31 H3         -5.0160   -0.9330   -1.9510 hc        1 IA9      0.061033
     32 H4         -4.1220   -1.8010    3.2490 ha        1 IA9      0.161000
     33 H5         -2.1570   -0.2470    3.1340 ha        1 IA9      0.163000
     34 H6          0.0480   -0.4920   -0.2310 hn        1 IA9      0.343500
     35 H7          0.4410    3.0430    0.5500 ha        1 IA9      0.204000
     36 H8          4.7000    3.0420   -0.3060 ha        1 IA9      0.172000
     37 H9          4.6550    0.5920   -0.5880 ha        1 IA9      0.150000
     38 H10         3.1600   -0.9850   -2.3750 h1        1 IA9      0.047700
     39 H11         4.4540   -1.4050   -1.1570 h1        1 IA9      0.047700
     40 H12         2.1410   -3.1750   -2.2190 h1        1 IA9      0.040200
     41 H13         3.9430   -3.4080   -2.3760 h1        1 IA9      0.040200
     42 H15         3.7120   -5.6130   -1.4720 h1        1 IA9      0.035033
     43 H16         3.1180   -5.8170    0.2410 h1        1 IA9      0.035033
     44 H17         1.9310   -5.4760   -1.1020 h1        1 IA9      0.035033
     45 H18         1.2480   -3.4980    0.3690 h1        1 IA9      0.040200
     46 H19         2.5980   -3.8670    1.5380 h1        1 IA9      0.040200
     47 H20         3.5560   -1.6730    1.3500 h1        1 IA9      0.047700
     48 H21         1.7560   -1.4610    1.5440 h1        1 IA9      0.047700
@<TRIPOS>BOND
     1    1    2 1   
     2    2    3 ar  
     3    2    9 ar  
     4    3    4 1   
     5    3    5 ar  
     6    4   29 1   
     7    4   30 1   
     8    4   31 1   
     9    5    6 1   
    10    5    7 ar  
    11    7    8 ar  
    12    7   32 1   
    13    8    9 ar  
    14    8   33 1   
    15    9   10 1   
    16   10   11 2   
    17   10   12 1   
    18   12   13 1   
    19   12   34 1   
    20   13   14 ar  
    21   13   21 ar  
    22   14   15 ar  
    23   14   35 1   
    24   15   16 1   
    25   15   19 ar  
    26   16   17 1   
    27   16   18 1   
    28   19   20 ar  
    29   19   36 1   
    30   20   21 ar  
    31   20   37 1   
    32   21   22 1   
    33   22   23 1   
    34   22   28 1   
    35   23   24 1   
    36   23   38 1   
    37   23   39 1   
    38   24   25 1   
    39   24   40 1   
    40   24   41 1   
    41   25   26 1   
    42   25   27 1   
    43   26   42 1   
    44   26   43 1   
    45   26   44 1   
    46   27   28 1   
    47   27   45 1   
    48   27   46 1   
    49   28   47 1   
    50   28   48 1   
@<TRIPOS>SUBSTRUCTURE
     1 IA9         1 TEMP              0 ****  ****    0 ROOT
