@<TRIPOS>MOLECULE
IAA
   37    40     1     0     0
SMALL
bcc


@<TRIPOS>ATOM
      1 O4          0.7320    0.1490    1.0780 o         1 IAA     -0.822300
      2 C18         1.9180    0.0700    0.6600 c         1 IAA      0.923600
      3 O3          2.9590    0.1570    1.3640 o         1 IAA     -0.822300
      4 C17         2.0650   -0.1400   -0.8710 c3        1 IAA      0.001400
      5 O2          3.4780   -0.4210   -1.0740 os        1 IAA     -0.147300
      6 N3          3.9550   -0.1910   -2.2660 n2        1 IAA     -0.380200
      7 C10         5.2580   -0.0600   -2.3130 cc        1 IAA      0.366900
      8 C9          6.1130    0.0570   -3.5480 cc        1 IAA      0.156000
      9 C8          5.7450    0.1410   -4.8480 cd        1 IAA     -0.168200
     10 C7          6.7260    0.0540   -6.0050 c         1 IAA      0.679700
     11 O1          7.9550    0.0350   -5.9780 o         1 IAA     -0.486100
     12 N1          5.9740   -0.0150   -7.2570 nc        1 IAA     -0.640100
     13 C1          4.7040    0.0920   -6.9580 cd        1 IAA      0.487600
     14 C2          3.5730    0.0770   -7.9280 c3        1 IAA     -0.090500
     15 C3          2.2650    0.4030   -7.3140 c2        1 IAA     -0.172200
     16 C4          2.0980    0.6270   -6.0000 ce        1 IAA     -0.132000
     17 C5          3.1950    0.5590   -5.0560 ce        1 IAA     -0.061000
     18 C6          4.4350    0.2610   -5.4860 cd        1 IAA     -0.175600
     19 N2          7.4990    0.0450   -3.1490 nc        1 IAA     -0.568300
     20 C11         7.5540   -0.0210   -1.8330 cd        1 IAA      0.477600
     21 C16         8.7710   -0.0350   -0.9780 c3        1 IAA     -0.083500
     22 C15         8.4620   -0.0600    0.4760 c2        1 IAA     -0.176200
     23 C14         7.2180   -0.0880    0.9890 cf        1 IAA     -0.131000
     24 C13         6.0380   -0.0990    0.1450 cf        1 IAA     -0.025000
     25 C12         6.2200   -0.0770   -1.1880 cc        1 IAA     -0.331200
     26 H171        1.7480    0.7790   -1.4170 h1        1 IAA      0.036200
     27 H172        1.4810   -1.0240   -1.2210 h1        1 IAA      0.036200
     28 H21         3.5150   -0.9480   -8.3960 hc        1 IAA      0.080200
     29 H22         3.7840    0.8050   -8.7610 hc        1 IAA      0.080200
     30 H3          1.4180    0.4470   -8.0160 ha        1 IAA      0.123000
     31 H4          1.1060    0.8660   -5.5830 ha        1 IAA      0.136000
     32 H5          2.9490    0.7680   -4.0030 ha        1 IAA      0.176000
     33 H161        9.3950   -0.9360   -1.2390 hc        1 IAA      0.078700
     34 H162        9.3970    0.8740   -1.2060 hc        1 IAA      0.078700
     35 H15         9.3470   -0.0550    1.1310 ha        1 IAA      0.118000
     36 H14         7.0460   -0.1030    2.0770 ha        1 IAA      0.140000
     37 H13         5.0260   -0.1140    0.6160 ha        1 IAA      0.236000
@<TRIPOS>BOND
     1    1    2 1   
     2    2    3 1   
     3    2    4 1   
     4    4    5 1   
     5    4   26 1   
     6    4   27 1   
     7    5    6 1   
     8    6    7 2   
     9    7    8 1   
    10    7   25 1   
    11    8    9 2   
    12    8   19 1   
    13    9   10 1   
    14    9   18 1   
    15   10   11 2   
    16   10   12 1   
    17   12   13 2   
    18   13   14 1   
    19   13   18 1   
    20   14   15 1   
    21   14   28 1   
    22   14   29 1   
    23   15   16 2   
    24   15   30 1   
    25   16   17 1   
    26   16   31 1   
    27   17   18 2   
    28   17   32 1   
    29   19   20 2   
    30   20   21 1   
    31   20   25 1   
    32   21   22 1   
    33   21   33 1   
    34   21   34 1   
    35   22   23 2   
    36   22   35 1   
    37   23   24 1   
    38   23   36 1   
    39   24   25 2   
    40   24   37 1   
@<TRIPOS>SUBSTRUCTURE
     1 IAA         1 TEMP              0 ****  ****    0 ROOT
