@<TRIPOS>MOLECULE
IAA
   37    40     1     0     0
SMALL
bcc


@<TRIPOS>ATOM
      1 O4          0.7290    0.0900    1.0810 o         1 IAA     -0.822300
      2 C18         1.9150    0.0190    0.6630 c         1 IAA      0.923600
      3 O3          2.9550    0.0990    1.3690 o         1 IAA     -0.822300
      4 C17         2.0630   -0.1680   -0.8710 c3        1 IAA      0.001400
      5 O2          3.4770   -0.4440   -1.0770 os        1 IAA     -0.146300
      6 N3          3.9530   -0.1960   -2.2660 n2        1 IAA     -0.380200
      7 C10         5.2560   -0.0610   -2.3110 cc        1 IAA      0.366900
      8 C9          6.1110    0.0740   -3.5440 cc        1 IAA      0.156000
      9 C8          5.7430    0.1750   -4.8420 cd        1 IAA     -0.168200
     10 C7          6.7250    0.1060   -6.0000 c         1 IAA      0.679700
     11 O1          7.9540    0.0900   -5.9730 o         1 IAA     -0.486100
     12 N1          5.9730    0.0510   -7.2540 nc        1 IAA     -0.640100
     13 C1          4.7030    0.1520   -6.9530 cd        1 IAA      0.487600
     14 C2          3.5720    0.1460   -7.9230 c3        1 IAA     -0.090500
     15 C3          2.2630    0.4620   -7.3060 c2        1 IAA     -0.172200
     16 C4          2.0950    0.6680   -5.9880 ce        1 IAA     -0.132000
     17 C5          3.1920    0.5900   -5.0450 ce        1 IAA     -0.061000
     18 C6          4.4330    0.3000   -5.4790 cd        1 IAA     -0.175600
     19 N2          7.4970    0.0600   -3.1440 nc        1 IAA     -0.568300
     20 C11         7.5520   -0.0240   -1.8290 cd        1 IAA      0.477600
     21 C16         8.7690   -0.0470   -0.9740 c3        1 IAA     -0.083500
     22 C15         8.4590   -0.0930    0.4790 c2        1 IAA     -0.176200
     23 C14         7.2160   -0.1310    0.9910 cf        1 IAA     -0.131000
     24 C13         6.0350   -0.1330    0.1470 cf        1 IAA     -0.025000
     25 C12         6.2170   -0.0920   -1.1860 cc        1 IAA     -0.331200
     26 H171        1.7440    0.7580   -1.4040 h1        1 IAA      0.036200
     27 H172        1.4800   -1.0490   -1.2330 h1        1 IAA      0.036200
     28 H21         3.7810    0.8860   -8.7470 hc        1 IAA      0.080200
     29 H22         3.5160   -0.8720   -8.4050 hc        1 IAA      0.080200
     30 H3          1.4160    0.5130   -8.0070 ha        1 IAA      0.123000
     31 H4          1.1030    0.8990   -5.5690 ha        1 IAA      0.136000
     32 H5          2.9450    0.7840   -3.9900 ha        1 IAA      0.176000
     33 H161        9.3950   -0.9430   -1.2480 hc        1 IAA      0.078700
     34 H162        9.3930    0.8670   -1.1900 hc        1 IAA      0.078700
     35 H15         9.3440   -0.0960    1.1340 ha        1 IAA      0.118000
     36 H14         7.0430   -0.1620    2.0790 ha        1 IAA      0.140000
     37 H13         5.0230   -0.1570    0.6170 ha        1 IAA      0.236000
@<TRIPOS>BOND
     1    1    2 1   
     2    2    3 1   
     3    2    4 1   
     4    4    5 1   
     5    4   26 1   
     6    4   27 1   
     7    5    6 1   
     8    6    7 2   
     9    7    8 1   
    10    7   25 1   
    11    8    9 2   
    12    8   19 1   
    13    9   10 1   
    14    9   18 1   
    15   10   11 2   
    16   10   12 1   
    17   12   13 2   
    18   13   14 1   
    19   13   18 1   
    20   14   15 1   
    21   14   28 1   
    22   14   29 1   
    23   15   16 2   
    24   15   30 1   
    25   16   17 1   
    26   16   31 1   
    27   17   18 2   
    28   17   32 1   
    29   19   20 2   
    30   20   21 1   
    31   20   25 1   
    32   21   22 1   
    33   21   33 1   
    34   21   34 1   
    35   22   23 2   
    36   22   35 1   
    37   23   24 1   
    38   23   36 1   
    39   24   25 2   
    40   24   37 1   
@<TRIPOS>SUBSTRUCTURE
     1 IAA         1 TEMP              0 ****  ****    0 ROOT
