@<TRIPOS>MOLECULE
IAA
   37    40     1     0     0
SMALL
bcc


@<TRIPOS>ATOM
      1 O4          0.7300    0.1780    1.0820 o         1 IAA     -0.822300
      2 C18         1.9160    0.0920    0.6640 c         1 IAA      0.923600
      3 O3          2.9570    0.1740    1.3690 o         1 IAA     -0.822300
      4 C17         2.0620   -0.1180   -0.8670 c3        1 IAA      0.001400
      5 O2          3.4730   -0.4070   -1.0700 os        1 IAA     -0.147300
      6 N3          3.9510   -0.1790   -2.2620 n2        1 IAA     -0.380200
      7 C10         5.2550   -0.0540   -2.3090 cc        1 IAA      0.366900
      8 C9          6.1100    0.0580   -3.5430 cc        1 IAA      0.156000
      9 C8          5.7430    0.1440   -4.8430 cd        1 IAA     -0.168200
     10 C7          6.7240    0.0520   -6.0000 c         1 IAA      0.679700
     11 O1          7.9530    0.0290   -5.9730 o         1 IAA     -0.486100
     12 N1          5.9720   -0.0140   -7.2530 nc        1 IAA     -0.640100
     13 C1          4.7030    0.0990   -6.9540 cd        1 IAA      0.487600
     14 C2          3.5720    0.0880   -7.9240 c3        1 IAA     -0.090500
     15 C3          2.2650    0.4200   -7.3100 c2        1 IAA     -0.172200
     16 C4          2.0980    0.6450   -5.9960 ce        1 IAA     -0.132000
     17 C5          3.1950    0.5730   -5.0520 ce        1 IAA     -0.061000
     18 C6          4.4340    0.2690   -5.4820 cd        1 IAA     -0.175600
     19 N2          7.4960    0.0390   -3.1440 nc        1 IAA     -0.568300
     20 C11         7.5510   -0.0280   -1.8280 cd        1 IAA      0.477600
     21 C16         8.7680   -0.0470   -0.9730 c3        1 IAA     -0.083500
     22 C15         8.4590   -0.0710    0.4800 c2        1 IAA     -0.176200
     23 C14         7.2150   -0.0930    0.9940 cf        1 IAA     -0.131000
     24 C13         6.0340   -0.0980    0.1500 cf        1 IAA     -0.025000
     25 C12         6.2160   -0.0770   -1.1840 cc        1 IAA     -0.331200
     26 H171        1.4720   -0.9990   -1.2170 h1        1 IAA      0.036200
     27 H172        1.7490    0.8030   -1.4130 h1        1 IAA      0.036200
     28 H21         3.7860    0.8160   -8.7580 hc        1 IAA      0.080200
     29 H22         3.5090   -0.9360   -8.3920 hc        1 IAA      0.080200
     30 H3          1.4180    0.4680   -8.0120 ha        1 IAA      0.123000
     31 H4          1.1080    0.8890   -5.5800 ha        1 IAA      0.136000
     32 H5          2.9490    0.7830   -4.0000 ha        1 IAA      0.176000
     33 H161        9.3990    0.8580   -1.2010 hc        1 IAA      0.078700
     34 H162        9.3870   -0.9520   -1.2340 hc        1 IAA      0.078700
     35 H15         9.3440   -0.0710    1.1360 ha        1 IAA      0.118000
     36 H14         7.0420   -0.1070    2.0820 ha        1 IAA      0.140000
     37 H13         5.0220   -0.1070    0.6200 ha        1 IAA      0.236000
@<TRIPOS>BOND
     1    1    2 1   
     2    2    3 1   
     3    2    4 1   
     4    4    5 1   
     5    4   26 1   
     6    4   27 1   
     7    5    6 1   
     8    6    7 2   
     9    7    8 1   
    10    7   25 1   
    11    8    9 2   
    12    8   19 1   
    13    9   10 1   
    14    9   18 1   
    15   10   11 2   
    16   10   12 1   
    17   12   13 2   
    18   13   14 1   
    19   13   18 1   
    20   14   15 1   
    21   14   28 1   
    22   14   29 1   
    23   15   16 2   
    24   15   30 1   
    25   16   17 1   
    26   16   31 1   
    27   17   18 2   
    28   17   32 1   
    29   19   20 2   
    30   20   21 1   
    31   20   25 1   
    32   21   22 1   
    33   21   33 1   
    34   21   34 1   
    35   22   23 2   
    36   22   35 1   
    37   23   24 1   
    38   23   36 1   
    39   24   25 2   
    40   24   37 1   
@<TRIPOS>SUBSTRUCTURE
     1 IAA         1 TEMP              0 ****  ****    0 ROOT
