@<TRIPOS>MOLECULE
IAA
   37    34     1     0     0
SMALL
bcc


@<TRIPOS>ATOM
      1 O4         -1.0570   -5.8250    1.1520 o         1 IAA     -0.559000
      2 C18        -2.0900   -5.2390    0.7340 c2        1 IAA      0.343000
      3 O3         -2.9860   -5.8920    0.1380 o         1 IAA     -0.559000
      4 C17        -2.2580   -3.7520    0.9570 c3        1 IAA     -0.093000
      5 O2         -1.7080   -3.0490   -0.1330 os        1 IAA     -0.171000
      6 N3         -1.0850   -1.9180    0.3120 n2        1 IAA      0.078000
      7 C10        -0.9900   -0.8760   -0.4670 c1        1 IAA     -0.137000
      8 C9         -0.2870    0.5290   -0.0920 c1        1 IAA      0.127000
      9 C8         -0.4160    1.1930    1.0740 c1        1 IAA     -0.168000
     10 C7         -1.6540    2.1450    1.4940 c1        1 IAA      0.280000
     11 O1         -2.8310    1.9050    1.3170 o         1 IAA     -0.226000
     12 N1         -1.1150    2.9770    2.5110 n2        1 IAA     -0.201000
     13 C1          0.1730    2.7360    2.7940 c1        1 IAA      0.026000
     14 C2          1.0890    3.8960    3.3770 c2        1 IAA     -0.093500
     15 C3          2.5950    3.6700    3.1450 c2        1 IAA     -0.175500
     16 C4          3.0530    2.8070    2.0230 c1        1 IAA     -0.128500
     17 C5          2.1440    1.8260    1.4450 c1        1 IAA     -0.085000
     18 C6          0.7640    1.6670    2.0050 c2        1 IAA     -0.071000
     19 N2          0.0130    1.1080   -1.3510 n2        1 IAA     -0.189000
     20 C11        -0.3550    0.3590   -2.4030 c1        1 IAA      0.040000
     21 C16         0.4030    0.4930   -3.7620 c2        1 IAA     -0.093500
     22 C15         1.0050   -0.8140   -4.2680 c2        1 IAA     -0.175500
     23 C14         0.3990   -2.1230   -3.8620 c1        1 IAA     -0.128500
     24 C13        -0.6220   -2.1630   -2.7850 c1        1 IAA     -0.033000
     25 C12        -0.9860   -0.8950   -2.0450 c2        1 IAA     -0.145000
     26 H171       -3.2110   -3.5390    1.0350 h1        1 IAA      0.082500
     27 H172       -1.7960   -3.4910    1.7800 h1        1 IAA      0.082500
     28 H21         0.8990    4.8340    3.1770 ha        1 IAA      0.116500
     29 H22         0.8790    3.8850    4.3330 ha        1 IAA      0.116500
     30 H3          3.2480    4.0810    3.7430 ha        1 IAA      0.119000
     31 H4          3.9810    2.8490    1.7220 ha        1 IAA      0.132500
     32 H5          2.4410    1.2580    0.7080 ha        1 IAA      0.164000
     33 H161       -0.1730    0.9940   -4.3740 ha        1 IAA      0.116500
     34 H162        1.1560    1.1140   -3.6870 ha        1 IAA      0.116500
     35 H15         1.7630   -0.7970   -4.8830 ha        1 IAA      0.119000
     36 H14         0.6320   -2.9390   -4.3440 ha        1 IAA      0.132500
     37 H13        -1.0170   -3.0150   -2.5190 ha        1 IAA      0.238000
@<TRIPOS>BOND
     1    1    2 1   
     2    2    3 1   
     3    2    4 1   
     4    4    5 1   
     5    4   26 1   
     6    4   27 1   
     7    5    6 1   
     8    6    7 1   
     9    7   25 1   
    10    8    9 1   
    11    8   19 1   
    12    9   18 1   
    13   10   11 1   
    14   10   12 1   
    15   12   13 1   
    16   13   18 1   
    17   14   15 1   
    18   14   28 1   
    19   14   29 1   
    20   15   16 1   
    21   15   30 1   
    22   16   31 1   
    23   17   18 1   
    24   17   32 1   
    25   19   20 1   
    26   20   25 1   
    27   21   22 1   
    28   21   33 1   
    29   21   34 1   
    30   22   23 1   
    31   22   35 1   
    32   23   36 1   
    33   24   25 1   
    34   24   37 1   
@<TRIPOS>SUBSTRUCTURE
     1 IAA         1 TEMP              0 ****  ****    0 ROOT
