@<TRIPOS>MOLECULE
IAA
   37    40     1     0     0
SMALL
bcc


@<TRIPOS>ATOM
      1 O4          4.3520    3.8500   -0.0280 o         1 IAA     -0.822300
      2 C18         3.8520    2.6950    0.0160 c         1 IAA      0.923600
      3 O3          4.4790    1.6110   -0.1180 o         1 IAA     -0.822300
      4 C17         2.3160    2.6490    0.2420 c3        1 IAA      0.001400
      5 O2          2.0160    1.2450    0.4770 os        1 IAA     -0.147300
      6 N3          0.7900    0.8630    0.2460 n2        1 IAA     -0.380200
      7 C10         0.6490   -0.4280    0.0710 cc        1 IAA      0.366900
      8 C9         -0.6450   -1.1880   -0.0580 cc        1 IAA      0.156000
      9 C8         -1.9160   -0.7260   -0.1110 cd        1 IAA     -0.168200
     10 C7         -3.1390   -1.6250   -0.0410 c         1 IAA      0.679700
     11 O1         -3.2000   -2.8530   -0.0670 o         1 IAA     -0.486100
     12 N1         -4.3340   -0.7890    0.0720 nc        1 IAA     -0.640100
     13 C1         -3.9460    0.4590    0.0050 cd        1 IAA      0.487600
     14 C2         -4.8320    1.6550    0.0740 c3        1 IAA     -0.090500
     15 C3         -4.1300    2.9280   -0.2150 c2        1 IAA     -0.172200
     16 C4         -2.8100    3.0090   -0.4520 ce        1 IAA     -0.132000
     17 C5         -1.9460    1.8460   -0.4360 ce        1 IAA     -0.061000
     18 C6         -2.4600    0.6290   -0.1750 cd        1 IAA     -0.175600
     19 N2         -0.3460   -2.5980   -0.1010 nc        1 IAA     -0.568300
     20 C11         0.9640   -2.7490   -0.0550 cd        1 IAA      0.477600
     21 C16         1.7300   -4.0240   -0.0960 c3        1 IAA     -0.083500
     22 C15         3.2020   -3.8200   -0.0810 c2        1 IAA     -0.176200
     23 C14         3.8030   -2.6180   -0.0170 cf        1 IAA     -0.131000
     24 C13         3.0460   -1.3810    0.0470 cf        1 IAA     -0.025000
     25 C12         1.7020   -1.4670    0.0380 cc        1 IAA     -0.331200
     26 H171        2.0190    3.2250    1.1510 h1        1 IAA      0.036200
     27 H172        1.7830    3.0380   -0.6580 h1        1 IAA      0.036200
     28 H21        -5.6870    1.5300   -0.6490 hc        1 IAA      0.080200
     29 H22        -5.2830    1.7100    1.1060 hc        1 IAA      0.080200
     30 H3         -4.7700    3.8230   -0.2200 ha        1 IAA      0.123000
     31 H4         -2.3260    3.9760   -0.6630 ha        1 IAA      0.136000
     32 H5         -0.8810    2.0240   -0.6510 ha        1 IAA      0.176000
     33 H161        1.4460   -4.5990   -1.0230 hc        1 IAA      0.078700
     34 H162        1.4350   -4.6600    0.7870 hc        1 IAA      0.078700
     35 H15         3.7920   -4.7480   -0.1260 ha        1 IAA      0.118000
     36 H14         4.9000   -2.5230   -0.0120 ha        1 IAA      0.140000
     37 H13         3.5870   -0.4060    0.0910 ha        1 IAA      0.236000
@<TRIPOS>BOND
     1    1    2 1   
     2    2    3 1   
     3    2    4 1   
     4    4    5 1   
     5    4   26 1   
     6    4   27 1   
     7    5    6 1   
     8    6    7 2   
     9    7    8 1   
    10    7   25 1   
    11    8    9 2   
    12    8   19 1   
    13    9   10 1   
    14    9   18 1   
    15   10   11 2   
    16   10   12 1   
    17   12   13 2   
    18   13   14 1   
    19   13   18 1   
    20   14   15 1   
    21   14   28 1   
    22   14   29 1   
    23   15   16 2   
    24   15   30 1   
    25   16   17 1   
    26   16   31 1   
    27   17   18 2   
    28   17   32 1   
    29   19   20 2   
    30   20   21 1   
    31   20   25 1   
    32   21   22 1   
    33   21   33 1   
    34   21   34 1   
    35   22   23 2   
    36   22   35 1   
    37   23   24 1   
    38   23   36 1   
    39   24   25 2   
    40   24   37 1   
@<TRIPOS>SUBSTRUCTURE
     1 IAA         1 TEMP              0 ****  ****    0 ROOT
