@<TRIPOS>MOLECULE
IAC
   21    22     1     0     0
SMALL
bcc


@<TRIPOS>ATOM
      1 C           0.0290   -0.1350    0.1420 ca        1 IAC     -0.065200
      2 C1          1.4750   -0.0050    0.1460 ca        1 IAC     -0.083800
      3 C2          2.1240    0.3280    1.3310 ca        1 IAC     -0.085000
      4 C3          1.3720    0.5220    2.4850 ca        1 IAC     -0.178000
      5 C4         -0.0250    0.3910    2.4730 ca        1 IAC     -0.138000
      6 C5         -0.7140    0.0650    1.3120 ca        1 IAC     -0.158000
      7 C7          1.9190   -0.2840   -1.2100 cc        1 IAC     -0.088400
      8 C8          0.7780   -0.5590   -1.9580 cd        1 IAC     -0.100100
      9 C17         3.3000   -0.2720   -1.7000 c3        1 IAC     -0.141200
     10 C18         3.5630   -1.1980   -2.9060 c         1 IAC      0.916600
     11 N          -0.3790   -0.4130   -1.1680 na        1 IAC     -0.205400
     12 O2          4.6620   -1.8220   -2.9200 o         1 IAC     -0.849800
     13 O3          2.7050   -1.2700   -3.8350 o         1 IAC     -0.849800
     14 H2          3.2180    0.4290    1.3450 ha        1 IAC      0.132000
     15 H3          1.8760    0.7820    3.4260 ha        1 IAC      0.110000
     16 H4         -0.5860    0.5490    3.4050 ha        1 IAC      0.107000
     17 H5         -1.8060   -0.0340    1.3120 ha        1 IAC      0.113000
     18 H8          0.7400   -0.8400   -3.0200 h4        1 IAC      0.220000
     19 H171        3.5680    0.7690   -2.0260 hc        1 IAC      0.035700
     20 H172        3.9990   -0.5570   -0.8710 hc        1 IAC      0.035700
     21 HN         -1.2420   -0.8360   -1.3840 hn        1 IAC      0.271700
@<TRIPOS>BOND
     1    1    2 ar  
     2    1    6 ar  
     3    1   11 1   
     4    2    3 ar  
     5    2    7 1   
     6    3    4 ar  
     7    3   14 1   
     8    4    5 ar  
     9    4   15 1   
    10    5    6 ar  
    11    5   16 1   
    12    6   17 1   
    13    7    8 2   
    14    7    9 1   
    15    8   11 1   
    16    8   18 1   
    17    9   10 1   
    18    9   19 1   
    19    9   20 1   
    20   10   12 1   
    21   10   13 1   
    22   11   21 1   
@<TRIPOS>SUBSTRUCTURE
     1 IAC         1 TEMP              0 ****  ****    0 ROOT
