@<TRIPOS>MOLECULE
IAC
   21    14     1     0     0
SMALL
bcc


@<TRIPOS>ATOM
      1 C          -1.4050   -0.1320    0.3740 c1        1 IAC     -0.046000
      2 C1         -0.0340   -0.1300    0.3420 c1        1 IAC     -0.046000
      3 C2          0.6970   -0.1420    1.5430 c1        1 IAC     -0.121500
      4 C3          0.0310   -0.1570    2.7600 c1        1 IAC     -0.158000
      5 C4         -1.3570   -0.1590    2.7920 c1        1 IAC     -0.158000
      6 C5         -2.0790   -0.1460    1.6070 c1        1 IAC     -0.121500
      7 C7          0.3600   -0.1080   -0.9780 c1        1 IAC     -0.096000
      8 C8         -0.7770   -0.0970   -1.7610 c1        1 IAC     -0.073000
      9 C17         1.7060   -0.3300   -1.6320 c2        1 IAC     -0.174000
     10 C18         2.1800    0.9610   -2.2610 c2        1 IAC      0.336000
     11 N          -1.8630   -0.1110   -0.9310 n1        1 IAC     -0.228000
     12 O2          2.6300    0.9600   -3.4370 o         1 IAC     -0.584500
     13 O3          2.1450    2.0330   -1.6010 o         1 IAC     -0.584500
     14 H2          1.6720   -0.1290    1.5210 ha        1 IAC      0.122500
     15 H3          0.5390   -0.1740    3.5940 ha        1 IAC      0.108500
     16 H4         -1.8250   -0.1710    3.6490 ha        1 IAC      0.108500
     17 H5         -3.0550   -0.1480    1.6300 ha        1 IAC      0.122500
     18 H8         -0.8010   -0.0720   -2.7370 DU        1 IAC      0.221000
     19 H171        1.6240   -1.0180   -2.3220 ha        1 IAC      0.075000
     20 H172        2.3520   -0.6210   -0.9570 ha        1 IAC      0.075000
     21 HN         -2.7370   -0.1080   -1.1920 DU        1 IAC      0.221000
@<TRIPOS>BOND
     1    1    6 1   
     2    2    3 1   
     3    3   14 1   
     4    4    5 1   
     5    4   15 1   
     6    5   16 1   
     7    6   17 1   
     8    7    8 1   
     9    8   11 1   
    10    9   10 1   
    11    9   19 1   
    12    9   20 1   
    13   10   12 1   
    14   10   13 1   
@<TRIPOS>SUBSTRUCTURE
     1 IAC         1 TEMP              0 ****  ****    0 ROOT
