@<TRIPOS>MOLECULE
IAC
   21    22     1     0     0
SMALL
bcc


@<TRIPOS>ATOM
      1 C          -2.7500   -0.3600    1.7690 ca        1 IAC     -0.065200
      2 C1         -2.6020    0.8150    2.6070 ca        1 IAC     -0.083800
      3 C2         -1.4140    1.5380    2.5600 ca        1 IAC     -0.085000
      4 C3         -0.3990    1.1210    1.7050 ca        1 IAC     -0.178000
      5 C4         -0.5520   -0.0140    0.8950 ca        1 IAC     -0.138000
      6 C5         -1.7180   -0.7680    0.9140 ca        1 IAC     -0.158000
      7 C7         -3.8450    0.9540    3.3480 cc        1 IAC     -0.088400
      8 C8         -4.6670   -0.0980    2.9540 cd        1 IAC     -0.100100
      9 C17        -4.1700    1.9940    4.3290 c3        1 IAC     -0.141200
     10 C18        -5.6760    2.3080    4.4580 c         1 IAC      0.916600
     11 N          -3.9960   -0.9370    2.0430 na        1 IAC     -0.205400
     12 O2         -5.9960    3.5200    4.6130 o         1 IAC     -0.849800
     13 O3         -6.5130    1.3580    4.4430 o         1 IAC     -0.849800
     14 H2         -1.2920    2.4300    3.1910 ha        1 IAC      0.132000
     15 H3          0.5400    1.6880    1.6590 ha        1 IAC      0.110000
     16 H4          0.2710   -0.3120    0.2290 ha        1 IAC      0.107000
     17 H5         -1.8270   -1.6550    0.2780 ha        1 IAC      0.113000
     18 H8         -5.6950   -0.2910    3.2910 h4        1 IAC      0.220000
     19 H171       -3.6280    2.9410    4.0700 hc        1 IAC      0.035700
     20 H172       -3.8180    1.6680    5.3450 hc        1 IAC      0.035700
     21 HN         -4.4580   -1.5410    1.4180 hn        1 IAC      0.271700
@<TRIPOS>BOND
     1    1    2 ar  
     2    1    6 ar  
     3    1   11 1   
     4    2    3 ar  
     5    2    7 1   
     6    3    4 ar  
     7    3   14 1   
     8    4    5 ar  
     9    4   15 1   
    10    5    6 ar  
    11    5   16 1   
    12    6   17 1   
    13    7    8 2   
    14    7    9 1   
    15    8   11 1   
    16    8   18 1   
    17    9   10 1   
    18    9   19 1   
    19    9   20 1   
    20   10   12 1   
    21   10   13 1   
    22   11   21 1   
@<TRIPOS>SUBSTRUCTURE
     1 IAC         1 TEMP              0 ****  ****    0 ROOT
