@<TRIPOS>MOLECULE
IAC
   21    22     1     0     0
SMALL
bcc


@<TRIPOS>ATOM
      1 C           0.0380   -0.1730    0.1760 ca        1 IAC     -0.065200
      2 C1          1.4780    0.0050    0.1400 ca        1 IAC     -0.083800
      3 C2          2.1440    0.3890    1.3010 ca        1 IAC     -0.085000
      4 C3          1.4150    0.5870    2.4680 ca        1 IAC     -0.178000
      5 C4          0.0240    0.4080    2.4950 ca        1 IAC     -0.138000
      6 C5         -0.6820    0.0300    1.3600 ca        1 IAC     -0.158000
      7 C7          1.8980   -0.2920   -1.2190 cc        1 IAC     -0.088400
      8 C8          0.7490   -0.6230   -1.9310 cd        1 IAC     -0.100100
      9 C17         3.2650   -0.2450   -1.7440 c3        1 IAC     -0.141200
     10 C18         3.5300   -1.1910   -2.9350 c         1 IAC      0.916600
     11 N          -0.3930   -0.4970   -1.1160 na        1 IAC     -0.205400
     12 O2          4.6490   -1.7770   -2.9630 o         1 IAC     -0.849800
     13 O3          2.6520   -1.3140   -3.8400 o         1 IAC     -0.849800
     14 H2          3.2350    0.5270    1.2840 ha        1 IAC      0.132000
     15 H3          1.9330    0.8860    3.3890 ha        1 IAC      0.110000
     16 H4         -0.5190    0.5700    3.4370 ha        1 IAC      0.107000
     17 H5         -1.7700   -0.1050    1.3910 ha        1 IAC      0.113000
     18 H8          0.6940   -0.9310   -2.9850 h4        1 IAC      0.220000
     19 H171        3.4890    0.7960   -2.1020 hc        1 IAC      0.035700
     20 H172        3.9940   -0.4860   -0.9270 hc        1 IAC      0.035700
     21 HN         -1.2460   -0.9540   -1.2990 hn        1 IAC      0.271700
@<TRIPOS>BOND
     1    1    2 ar  
     2    1    6 ar  
     3    1   11 1   
     4    2    3 ar  
     5    2    7 1   
     6    3    4 ar  
     7    3   14 1   
     8    4    5 ar  
     9    4   15 1   
    10    5    6 ar  
    11    5   16 1   
    12    6   17 1   
    13    7    8 2   
    14    7    9 1   
    15    8   11 1   
    16    8   18 1   
    17    9   10 1   
    18    9   19 1   
    19    9   20 1   
    20   10   12 1   
    21   10   13 1   
    22   11   21 1   
@<TRIPOS>SUBSTRUCTURE
     1 IAC         1 TEMP              0 ****  ****    0 ROOT
