@<TRIPOS>MOLECULE
IAD
   34    35     1     0     0
SMALL
bcc


@<TRIPOS>ATOM
      1 OD2         0.3220    1.0760   -1.7970 o         1 IAD     -0.827300
      2 CG          0.7230    0.3080   -0.8470 c         1 IAD      0.900600
      3 OD1        -0.0810   -0.2840   -0.0880 o         1 IAD     -0.827300
      4 CB          2.2300    0.1120   -0.6500 c3        1 IAD     -0.203400
      5 CA          3.0110    1.3480   -1.0630 c3        1 IAD      0.023500
      6 C           4.5200    1.3580   -0.6650 c         1 IAD      0.904600
      7 O           4.9370    0.5140    0.1570 o         1 IAD     -0.818800
      8 O1          5.2230    2.2720   -1.2000 o         1 IAD     -0.818800
      9 N           2.8190    1.6470   -2.5300 ny        1 IAD     -0.680800
     10 C11         3.5360    0.7270   -3.4380 c         1 IAD      0.560100
     11 O11         3.0170   -0.3470   -3.7370 o         1 IAD     -0.482100
     12 C10         4.8850    1.1770   -3.9540 c3        1 IAD     -0.089200
     13 C3          4.8720    2.5380   -4.5000 cc        1 IAD     -0.196400
     14 C2          5.2230    3.6890   -3.7850 cd        1 IAD     -0.059100
     15 N1          5.1460    4.8050   -4.6140 na        1 IAD     -0.195400
     16 C9          4.5700    2.9500   -5.8540 ca        1 IAD     -0.076800
     17 C4          4.1750    2.2830   -7.0140 ca        1 IAD     -0.087000
     18 C8          4.7530    4.3860   -5.8900 ca        1 IAD     -0.059200
     19 C7          4.5380    5.1130   -7.0700 ca        1 IAD     -0.144000
     20 C6          4.1450    4.4100   -8.1990 ca        1 IAD     -0.124000
     21 C5          3.9670    3.0160   -8.1730 ca        1 IAD     -0.157000
     22 HB1         2.5540   -0.7850   -1.2370 hc        1 IAD      0.077200
     23 HB2         2.4590   -0.0870    0.4280 hc        1 IAD      0.077200
     24 HA          2.5470    2.2370   -0.5360 hx        1 IAD      0.078700
     25 H           1.7540    1.5670   -2.6760 hn        1 IAD      0.477300
     26 H1          5.5980    1.1290   -3.0720 hc        1 IAD      0.113700
     27 H2A         5.2140    0.4400   -4.7350 hc        1 IAD      0.113700
     28 H2          5.5150    3.7550   -2.7230 h4        1 IAD      0.236000
     29 HN1         5.3460    5.7320   -4.3550 hn        1 IAD      0.297700
     30 H4          4.0310    1.1930   -7.0000 ha        1 IAD      0.138000
     31 H7          4.6740    6.2020   -7.0970 ha        1 IAD      0.126000
     32 H6          3.9670    4.9540   -9.1390 ha        1 IAD      0.121000
     33 H5          3.6530    2.5020   -9.0930 ha        1 IAD      0.125000
     34 H21         3.1670    2.5920   -2.6940 hn        1 IAD      0.477300
@<TRIPOS>BOND
     1    1    2 1   
     2    2    3 1   
     3    2    4 1   
     4    4    5 1   
     5    4   22 1   
     6    4   23 1   
     7    5    6 1   
     8    5    9 1   
     9    5   24 1   
    10    6    7 1   
    11    6    8 1   
    12    9   10 1   
    13    9   25 1   
    14    9   34 1   
    15   10   11 2   
    16   10   12 1   
    17   12   13 1   
    18   12   26 1   
    19   12   27 1   
    20   13   14 2   
    21   13   16 1   
    22   14   15 1   
    23   14   28 1   
    24   15   18 1   
    25   15   29 1   
    26   16   17 ar  
    27   16   18 ar  
    28   17   21 ar  
    29   17   30 1   
    30   18   19 ar  
    31   19   20 ar  
    32   19   31 1   
    33   20   21 ar  
    34   20   32 1   
    35   21   33 1   
@<TRIPOS>SUBSTRUCTURE
     1 IAD         1 TEMP              0 ****  ****    0 ROOT
