@<TRIPOS>MOLECULE
IAD
   34    35     1     0     0
SMALL
bcc


@<TRIPOS>ATOM
      1 OD2         0.7320   -0.2230   -1.0630 o         1 IAD     -0.834300
      2 CG          1.8000   -0.8680   -0.7800 c         1 IAD      0.900600
      3 OD1         1.7960   -2.0650   -0.4050 o         1 IAD     -0.834300
      4 CB          3.1490   -0.1430   -0.9170 c3        1 IAD     -0.208400
      5 CA          2.9700    1.3610   -0.9690 c3        1 IAD      0.021500
      6 C           4.2610    2.2310   -0.8850 c         1 IAD      0.895600
      7 O           5.3710    1.6800   -0.7060 o         1 IAD     -0.816300
      8 O1          4.0770    3.4780   -1.0330 o         1 IAD     -0.816300
      9 N           2.1380    1.7890   -2.1480 n4        1 IAD     -0.666800
     10 C11         2.5950    1.3590   -3.4950 c         1 IAD      0.567100
     11 O11         1.7020    1.0610   -4.2890 o         1 IAD     -0.497100
     12 C10         4.0670    1.3330   -3.8380 c3        1 IAD     -0.070200
     13 C3          4.4950    2.6000   -4.4390 cc        1 IAD     -0.209400
     14 C2          5.1460    3.6390   -3.7620 cd        1 IAD     -0.031100
     15 N1          5.4680    4.6570   -4.6540 na        1 IAD     -0.192400
     16 C9          4.3990    2.9900   -5.8300 ca        1 IAD     -0.068800
     17 C4          3.8690    2.3960   -6.9750 ca        1 IAD     -0.089000
     18 C8          5.0180    4.2960   -5.9290 ca        1 IAD     -0.062200
     19 C7          5.0950    4.9670   -7.1570 ca        1 IAD     -0.145000
     20 C6          4.5570    4.3400   -8.2720 ca        1 IAD     -0.130000
     21 C5          3.9530    3.0740   -8.1840 ca        1 IAD     -0.159000
     22 HB1         3.7950   -0.3760   -0.0320 hc        1 IAD      0.066700
     23 HB2         3.6790   -0.5280   -1.8240 hc        1 IAD      0.066700
     24 HA          2.3430    1.6540   -0.0700 hx        1 IAD      0.090700
     25 H           1.1840    1.3590   -1.9760 hn        1 IAD      0.479800
     26 H1          4.2060    0.4910   -4.5730 hc        1 IAD      0.108700
     27 H2A         4.6890    1.1050   -2.9230 hc        1 IAD      0.108700
     28 H2          5.3740    3.7120   -2.6820 h4        1 IAD      0.244000
     29 HN1         5.8830    5.5180   -4.4190 hn        1 IAD      0.297700
     30 H4          3.3880    1.4090   -6.9090 ha        1 IAD      0.140000
     31 H7          5.5640    5.9560   -7.2330 ha        1 IAD      0.123000
     32 H6          4.6020    4.8440   -9.2480 ha        1 IAD      0.118000
     33 H5          3.5380    2.6170   -9.0930 ha        1 IAD      0.122000
     34 H21         2.1130    2.8150   -2.1290 hn        1 IAD      0.479800
@<TRIPOS>BOND
     1    1    2 1   
     2    2    3 1   
     3    2    4 1   
     4    4    5 1   
     5    4   22 1   
     6    4   23 1   
     7    5    6 1   
     8    5    9 1   
     9    5   24 1   
    10    6    7 1   
    11    6    8 1   
    12    9   10 1   
    13    9   25 1   
    14    9   34 1   
    15   10   11 2   
    16   10   12 1   
    17   12   13 1   
    18   12   26 1   
    19   12   27 1   
    20   13   14 2   
    21   13   16 1   
    22   14   15 1   
    23   14   28 1   
    24   15   18 1   
    25   15   29 1   
    26   16   17 ar  
    27   16   18 ar  
    28   17   21 ar  
    29   17   30 1   
    30   18   19 ar  
    31   19   20 ar  
    32   19   31 1   
    33   20   21 ar  
    34   20   32 1   
    35   21   33 1   
@<TRIPOS>SUBSTRUCTURE
     1 IAD         1 TEMP              0 ****  ****    0 ROOT
