@<TRIPOS>MOLECULE
IAD
   33    34     1     0     0
SMALL
bcc


@<TRIPOS>ATOM
      1 OD2        44.8520   30.7700   12.0860 o         1 IAD     -0.876800
      2 CG         45.9860   30.3420   12.4610 c         1 IAD      0.903600
      3 OD1        46.2180   30.0250   13.6710 o         1 IAD     -0.876800
      4 CB         47.1240   30.2720   11.4410 c3        1 IAD     -0.184400
      5 CA         47.6320   28.8620   11.1000 c3        1 IAD      0.005700
      6 C          49.0180   29.0290   10.3950 c         1 IAD      0.909600
      7 O          50.1030   28.8750   11.0410 o         1 IAD     -0.866300
      8 O1         49.0060   29.3450    9.1720 o         1 IAD     -0.866300
      9 N          47.6750   28.0120   12.2700 n         1 IAD     -0.504900
     10 C11        47.6200   26.6560   12.2580 c         1 IAD      0.656100
     11 O11        47.3530   25.9520   11.2520 o         1 IAD     -0.684100
     12 C10        47.9160   25.9480   13.5880 c3        1 IAD     -0.081200
     13 C3         49.3410   26.0230   13.9400 cc        1 IAD     -0.171400
     14 C2         50.3160   26.8250   13.3350 cd        1 IAD     -0.048100
     15 N1         51.5520   26.6100   13.9480 na        1 IAD     -0.193400
     16 C9         49.9970   25.2710   14.9870 ca        1 IAD     -0.067800
     17 C4         49.5790   24.3230   15.9190 ca        1 IAD     -0.093000
     18 C8         51.3950   25.6720   14.9680 ca        1 IAD     -0.068200
     19 C7         52.3150   25.1210   15.8700 ca        1 IAD     -0.153000
     20 C6         51.8520   24.1810   16.7810 ca        1 IAD     -0.150000
     21 C5         50.5050   23.7870   16.8060 ca        1 IAD     -0.180000
     22 HB1        47.9780   30.8720   11.8490 hc        1 IAD      0.037700
     23 HB2        46.7950   30.7410   10.4800 hc        1 IAD      0.037700
     24 HA         46.9370   28.3850   10.3500 h1        1 IAD      0.057700
     25 H          47.6950   28.4940   13.1480 hn        1 IAD      0.343500
     26 H1         47.6090   24.8740   13.4770 hc        1 IAD      0.052200
     27 H2A        47.2940   26.3990   14.4090 hc        1 IAD      0.052200
     28 H2         50.2180   27.5480   12.4890 h4        1 IAD      0.280000
     29 HN1        52.3850   27.0830   13.7260 hn        1 IAD      0.293700
     30 H4         48.5260   24.0110   15.9440 ha        1 IAD      0.125000
     31 H7         53.3690   25.4240   15.8570 ha        1 IAD      0.110000
     32 H6         52.5530   23.7360   17.5000 ha        1 IAD      0.100000
     33 H5         50.1810   23.0410   17.5440 ha        1 IAD      0.102000
@<TRIPOS>BOND
     1    1    2 1   
     2    2    3 1   
     3    2    4 1   
     4    4    5 1   
     5    4   22 1   
     6    4   23 1   
     7    5    6 1   
     8    5    9 1   
     9    5   24 1   
    10    6    7 1   
    11    6    8 1   
    12    9   10 1   
    13    9   25 1   
    14   10   11 2   
    15   10   12 1   
    16   12   13 1   
    17   12   26 1   
    18   12   27 1   
    19   13   14 2   
    20   13   16 1   
    21   14   15 1   
    22   14   28 1   
    23   15   18 1   
    24   15   29 1   
    25   16   17 ar  
    26   16   18 ar  
    27   17   21 ar  
    28   17   30 1   
    29   18   19 ar  
    30   19   20 ar  
    31   19   31 1   
    32   20   21 ar  
    33   20   32 1   
    34   21   33 1   
@<TRIPOS>SUBSTRUCTURE
     1 IAD         1 TEMP              0 ****  ****    0 ROOT
