@<TRIPOS>MOLECULE
IAD
   34    35     1     0     0
SMALL
bcc


@<TRIPOS>ATOM
      1 OD2         0.7660   -0.1600   -0.9710 o         1 IAD     -0.834300
      2 CG          1.8220   -0.8470   -0.7460 c         1 IAD      0.900600
      3 OD1         1.7900   -2.0500   -0.3890 o         1 IAD     -0.834300
      4 CB          3.1890   -0.1700   -0.9310 c3        1 IAD     -0.208400
      5 CA          3.0630    1.3400   -0.9520 c3        1 IAD      0.021500
      6 C           4.3890    2.1610   -0.9110 c         1 IAD      0.895600
      7 O           5.4840    1.5670   -0.7900 o         1 IAD     -0.816300
      8 O1          4.2440    3.4170   -1.0310 o         1 IAD     -0.816300
      9 N           2.1970    1.8190   -2.0850 n4        1 IAD     -0.666800
     10 C11         2.5790    1.3950   -3.4580 c         1 IAD      0.567100
     11 O11         1.6410    1.1440   -4.2160 o         1 IAD     -0.497100
     12 C10         4.0330    1.3220   -3.8660 c3        1 IAD     -0.070200
     13 C3          4.4810    2.5840   -4.4650 cc        1 IAD     -0.209400
     14 C2          5.1990    3.5860   -3.8020 cd        1 IAD     -0.031100
     15 N1          5.5180    4.6070   -4.6910 na        1 IAD     -0.192400
     16 C9          4.3380    3.0000   -5.8440 ca        1 IAD     -0.068800
     17 C4          3.7370    2.4470   -6.9740 ca        1 IAD     -0.089000
     18 C8          5.0000    4.2850   -5.9510 ca        1 IAD     -0.062200
     19 C7          5.0480    4.9740   -7.1700 ca        1 IAD     -0.145000
     20 C6          4.4390    4.3860   -8.2690 ca        1 IAD     -0.130000
     21 C5          3.7930    3.1420   -8.1740 ca        1 IAD     -0.159000
     22 HB1         3.8640   -0.4410   -0.0800 hc        1 IAD      0.066700
     23 HB2         3.6640   -0.5570   -1.8660 hc        1 IAD      0.066700
     24 HA          2.4880    1.6410   -0.0200 hx        1 IAD      0.090700
     25 H           2.2110    2.8450   -2.0490 hn        1 IAD      0.479800
     26 H1          4.6850    1.0560   -2.9830 hc        1 IAD      0.108700
     27 H2A         4.1080    0.4890   -4.6200 hc        1 IAD      0.108700
     28 H2          5.4760    3.6310   -2.7320 h4        1 IAD      0.244000
     29 HN1         5.9750    5.4480   -4.4610 hn        1 IAD      0.297700
     30 H4          3.2230    1.4770   -6.9020 ha        1 IAD      0.140000
     31 H7          5.5490    5.9470   -7.2510 ha        1 IAD      0.123000
     32 H6          4.4600    4.9050   -9.2390 ha        1 IAD      0.118000
     33 H5          3.3210    2.7160   -9.0720 ha        1 IAD      0.122000
     34 H21         1.2360    1.4210   -1.8780 hn        1 IAD      0.479800
@<TRIPOS>BOND
     1    1    2 1   
     2    2    3 1   
     3    2    4 1   
     4    4    5 1   
     5    4   22 1   
     6    4   23 1   
     7    5    6 1   
     8    5    9 1   
     9    5   24 1   
    10    6    7 1   
    11    6    8 1   
    12    9   10 1   
    13    9   25 1   
    14    9   34 1   
    15   10   11 2   
    16   10   12 1   
    17   12   13 1   
    18   12   26 1   
    19   12   27 1   
    20   13   14 2   
    21   13   16 1   
    22   14   15 1   
    23   14   28 1   
    24   15   18 1   
    25   15   29 1   
    26   16   17 ar  
    27   16   18 ar  
    28   17   21 ar  
    29   17   30 1   
    30   18   19 ar  
    31   19   20 ar  
    32   19   31 1   
    33   20   21 ar  
    34   20   32 1   
    35   21   33 1   
@<TRIPOS>SUBSTRUCTURE
     1 IAD         1 TEMP              0 ****  ****    0 ROOT
