@<TRIPOS>MOLECULE
IAG
   29    30     1     0     0
SMALL
bcc


@<TRIPOS>ATOM
      1 O3          2.4530   -1.2630    0.7480 o         1 IAG     -0.775300
      2 C12         3.1640   -1.1340   -0.2630 c         1 IAG      0.931600
      3 O2          4.4010   -1.3390   -0.4050 o         1 IAG     -0.775300
      4 C11         2.4000   -0.6450   -1.5610 c3        1 IAG     -0.076200
      5 N2          3.3440   -0.4080   -2.6890 n4        1 IAG     -0.652800
      6 C10         3.9220    0.9770   -2.6400 c         1 IAG      0.569100
      7 O1          3.1900    1.8990   -2.9770 o         1 IAG     -0.473100
      8 C9          5.3640    1.0570   -2.1970 c3        1 IAG     -0.077200
      9 C2          6.2380    0.5550   -3.2630 cc        1 IAG     -0.205400
     10 C1          6.7750    1.3020   -4.3180 cd        1 IAG     -0.070100
     11 N1          7.5520    0.4860   -5.1320 na        1 IAG     -0.181400
     12 C7          6.7310   -0.8000   -3.4040 ca        1 IAG     -0.097800
     13 C8          7.5560   -0.8070   -4.5910 ca        1 IAG     -0.052200
     14 C6          8.1940   -1.9800   -5.0250 ca        1 IAG     -0.143000
     15 C5          8.0120   -3.1260   -4.2670 ca        1 IAG     -0.108000
     16 C4          7.2260   -3.1220   -3.1000 ca        1 IAG     -0.142000
     17 C3          6.5880   -1.9730   -2.6580 ca        1 IAG     -0.109000
     18 H111        1.6780   -1.4480   -1.8620 hx        1 IAG      0.091200
     19 H112        1.8410    0.2980   -1.3310 hx        1 IAG      0.091200
     20 HN2         4.1280   -1.0830   -2.5610 hn        1 IAG      0.456800
     21 HC91        5.5840    2.1320   -1.9580 hc        1 IAG      0.128700
     22 HC92        5.4930    0.4410   -1.2520 hc        1 IAG      0.128700
     23 HC1         6.6510    2.3640   -4.5430 h4        1 IAG      0.173000
     24 HN1         8.0950    0.7830   -5.8980 hn        1 IAG      0.305700
     25 HC6         8.8180   -1.9850   -5.9280 ha        1 IAG      0.136000
     26 HC5         8.5020   -4.0610   -4.5780 ha        1 IAG      0.136000
     27 HC4         7.1270   -4.0530   -2.5210 ha        1 IAG      0.143000
     28 HC3         6.0020   -1.9750   -1.7190 ha        1 IAG      0.193000
     29 H22         2.8820   -0.5630   -3.5840 hn        1 IAG      0.456800
@<TRIPOS>BOND
     1    1    2 1   
     2    2    3 1   
     3    2    4 1   
     4    4    5 1   
     5    4   18 1   
     6    4   19 1   
     7    5    6 1   
     8    5   20 1   
     9    5   29 1   
    10    6    7 2   
    11    6    8 1   
    12    8    9 1   
    13    8   21 1   
    14    8   22 1   
    15    9   10 2   
    16    9   12 1   
    17   10   11 1   
    18   10   23 1   
    19   11   13 1   
    20   11   24 1   
    21   12   13 ar  
    22   12   17 ar  
    23   13   14 ar  
    24   14   15 ar  
    25   14   25 1   
    26   15   16 ar  
    27   15   26 1   
    28   16   17 ar  
    29   16   27 1   
    30   17   28 1   
@<TRIPOS>SUBSTRUCTURE
     1 IAG         1 TEMP              0 ****  ****    0 ROOT
