@<TRIPOS>MOLECULE
IAG
   28    24     1     0     0
SMALL
bcc


@<TRIPOS>ATOM
      1 O3         -3.0430    4.6080    0.4090 o         1 IAG     -0.843800
      2 C12        -2.6760    4.2560    1.6010 c         1 IAG      0.901600
      3 O2         -3.3340    4.6530    2.6130 o         1 IAG     -0.843800
      4 C11        -1.4260    3.3860    1.7890 c3        1 IAG     -0.070000
      5 N2         -1.7580    2.0260    1.5490 n         1 IAG     -0.505900
      6 C10        -0.8190    1.1720    0.9450 c         1 IAG      0.636100
      7 O1          0.3610    1.4230    1.0200 o         1 IAG     -0.639100
      8 C9         -1.2980   -0.0800    0.1480 c3        1 IAG     -0.077200
      9 C2         -0.1590   -1.0530    0.0220 ce        1 IAG     -0.227000
     10 C1         -0.0310   -1.9660    1.0650 c1        1 IAG      0.247500
     11 N1          1.0060   -2.8170    0.7630 ne        1 IAG     -0.482400
     12 C7          0.8040   -1.3470   -0.9240 cg        1 IAG     -0.099300
     13 C8          1.5280   -2.4370   -0.4720 cg        1 IAG      0.038000
     14 C6          2.5530   -2.9720   -1.2640 c1        1 IAG     -0.088500
     15 C5          2.8420   -2.4100   -2.5010 c1        1 IAG     -0.094000
     16 C4          2.1160   -1.3170   -2.9550 c1        1 IAG     -0.094000
     17 C3          1.0950   -0.7820   -2.1690 c1        1 IAG     -0.035500
     18 H111       -1.0810    3.4880    2.7350 h1        1 IAG      0.052200
     19 H112       -0.7160    3.6780    1.1410 h1        1 IAG      0.052200
     20 HN2        -2.5770    1.7000    1.8090 hn        1 IAG      0.303500
     21 HC91       -1.5960    0.1980   -0.7530 hc        1 IAG      0.059200
     22 HC92       -2.0250   -0.4960    0.6110 hc        1 IAG      0.059200
     23 HC1        -0.5710   -1.9830    1.8840 DU        1 IAG      0.252500
     24 HN1         1.2890   -3.4830    1.2610 DU        1 IAG      0.252500
     25 HC6         3.0600   -3.7370   -0.9490 ha        1 IAG      0.064500
     26 HC5         3.5690   -2.7890   -3.0610 ha        1 IAG      0.056500
     27 HC4         2.3190   -0.9260   -3.8180 ha        1 IAG      0.056500
     28 HC3         0.5710    0.0070   -2.4970 ha        1 IAG      0.068500
@<TRIPOS>BOND
     1    1    2 1   
     2    2    3 1   
     3    2    4 1   
     4    4    5 1   
     5    4   18 1   
     6    4   19 1   
     7    5    6 1   
     8    5   20 1   
     9    6    7 2   
    10    6    8 1   
    11    8    9 1   
    12    8   21 1   
    13    8   22 1   
    14    9   10 2   
    15    9   12 1   
    16   10   11 2   
    17   11   13 1   
    18   12   17 3   
    19   13   14 3   
    20   14   25 1   
    21   15   16 3   
    22   15   26 1   
    23   16   27 1   
    24   17   28 1   
@<TRIPOS>SUBSTRUCTURE
     1 IAG         1 TEMP              0 ****  ****    0 ROOT
