@<TRIPOS>MOLECULE
IAG
   29    30     1     0     0
SMALL
bcc


@<TRIPOS>ATOM
      1 O3          2.5070   -1.3730    0.7730 o         1 IAG     -0.775300
      2 C12         3.2010   -1.2040   -0.2430 c         1 IAG      0.931600
      3 O2          4.4170   -1.4820   -0.4400 o         1 IAG     -0.775300
      4 C11         2.4440   -0.5500   -1.4700 c3        1 IAG     -0.076200
      5 N2          3.3760   -0.2800   -2.6010 n4        1 IAG     -0.652800
      6 C10         4.0540    1.0510   -2.4500 c         1 IAG      0.569100
      7 O1          3.3830    2.0490   -2.6820 o         1 IAG     -0.473100
      8 C9          5.5090    0.9900   -2.0450 c3        1 IAG     -0.077200
      9 C2          6.3170    0.5250   -3.1760 cc        1 IAG     -0.205400
     10 C1          6.8820    1.3220   -4.1780 cd        1 IAG     -0.070100
     11 N1          7.5770    0.5290   -5.0830 na        1 IAG     -0.181400
     12 C7          6.7070   -0.8440   -3.4500 ca        1 IAG     -0.097800
     13 C8          7.5000   -0.8030   -4.6570 ca        1 IAG     -0.052200
     14 C6          8.0410   -1.9750   -5.2110 ca        1 IAG     -0.143000
     15 C5          7.7950   -3.1680   -4.5500 ca        1 IAG     -0.108000
     16 C4          7.0390   -3.2130   -3.3640 ca        1 IAG     -0.142000
     17 C3          6.4970   -2.0660   -2.8040 ca        1 IAG     -0.109000
     18 H111        1.9600    0.4060   -1.1430 hx        1 IAG      0.091200
     19 H112        1.6590   -1.2710   -1.8180 hx        1 IAG      0.091200
     20 HN2         4.1120   -1.0170   -2.5570 hn        1 IAG      0.456800
     21 HC91        5.8120    2.0220   -1.7200 hc        1 IAG      0.128700
     22 HC92        5.6150    0.2850   -1.1610 hc        1 IAG      0.128700
     23 HC1         6.8300    2.4070   -4.3070 h4        1 IAG      0.173000
     24 HN1         8.1220    0.8550   -5.8370 hn        1 IAG      0.305700
     25 HC6         8.6410   -1.9440   -6.1300 ha        1 IAG      0.136000
     26 HC5         8.2070   -4.1050   -4.9560 ha        1 IAG      0.136000
     27 HC4         6.8860   -4.1820   -2.8650 ha        1 IAG      0.143000
     28 HC3         5.9350   -2.1100   -1.8520 ha        1 IAG      0.193000
     29 H22         2.8820   -0.3220   -3.4920 hn        1 IAG      0.456800
@<TRIPOS>BOND
     1    1    2 1   
     2    2    3 1   
     3    2    4 1   
     4    4    5 1   
     5    4   18 1   
     6    4   19 1   
     7    5    6 1   
     8    5   20 1   
     9    5   29 1   
    10    6    7 2   
    11    6    8 1   
    12    8    9 1   
    13    8   21 1   
    14    8   22 1   
    15    9   10 2   
    16    9   12 1   
    17   10   11 1   
    18   10   23 1   
    19   11   13 1   
    20   11   24 1   
    21   12   13 ar  
    22   12   17 ar  
    23   13   14 ar  
    24   14   15 ar  
    25   14   25 1   
    26   15   16 ar  
    27   15   26 1   
    28   16   17 ar  
    29   16   27 1   
    30   17   28 1   
@<TRIPOS>SUBSTRUCTURE
     1 IAG         1 TEMP              0 ****  ****    0 ROOT
