@<TRIPOS>MOLECULE
IAG
   28    29     1     0     0
SMALL
bcc


@<TRIPOS>ATOM
      1 O3          0.1630   -0.6540    5.9040 o         1 IAG     -0.836800
      2 C12         0.4660   -0.1970    4.7700 c         1 IAG      0.908600
      3 O2          1.4590    0.5460    4.5270 o         1 IAG     -0.836800
      4 C11        -0.4770   -0.6020    3.5970 c3        1 IAG     -0.055000
      5 N2         -0.0650   -0.0610    2.3280 n         1 IAG     -0.508900
      6 C10        -0.9330    0.2100    1.3120 c         1 IAG      0.641100
      7 O1         -2.1230   -0.1940    1.3110 o         1 IAG     -0.679100
      8 C9         -0.4040    1.0120    0.1210 c3        1 IAG     -0.080200
      9 C2         -0.5840    0.3090   -1.1540 cc        1 IAG     -0.132400
     10 C1         -1.6220   -0.5580   -1.4950 cd        1 IAG     -0.078100
     11 N1         -1.4810   -0.9860   -2.8200 na        1 IAG     -0.200400
     12 C7          0.2790    0.4130   -2.3150 ca        1 IAG     -0.081800
     13 C8         -0.3060   -0.4310   -3.3370 ca        1 IAG     -0.054200
     14 C6          0.2920   -0.5570   -4.5990 ca        1 IAG     -0.151000
     15 C5          1.4620    0.1500   -4.8340 ca        1 IAG     -0.125000
     16 C4          2.0370    0.9700   -3.8480 ca        1 IAG     -0.166000
     17 C3          1.4560    1.1070   -2.5950 ca        1 IAG     -0.082000
     18 H111       -0.4890   -1.7240    3.5250 h1        1 IAG      0.040700
     19 H112       -1.5210   -0.2630    3.8430 h1        1 IAG      0.040700
     20 HN2         0.8200    0.4070    2.3550 hn        1 IAG      0.328500
     21 HC91       -0.9860    1.9750    0.1060 hc        1 IAG      0.061200
     22 HC92        0.6800    1.2780    0.2470 hc        1 IAG      0.061200
     23 HC1        -2.4560   -0.8890   -0.8640 h4        1 IAG      0.204000
     24 HN1        -1.9910   -1.7140   -3.2400 hn        1 IAG      0.288700
     25 HC6        -0.1490   -1.1970   -5.3730 ha        1 IAG      0.122000
     26 HC5         1.9560    0.0670   -5.8130 ha        1 IAG      0.117000
     27 HC4         2.9670    1.5090   -4.0790 ha        1 IAG      0.121000
     28 HC3         1.9120    1.7470   -1.8260 ha        1 IAG      0.135000
@<TRIPOS>BOND
     1    1    2 1   
     2    2    3 1   
     3    2    4 1   
     4    4    5 1   
     5    4   18 1   
     6    4   19 1   
     7    5    6 1   
     8    5   20 1   
     9    6    7 2   
    10    6    8 1   
    11    8    9 1   
    12    8   21 1   
    13    8   22 1   
    14    9   10 2   
    15    9   12 1   
    16   10   11 1   
    17   10   23 1   
    18   11   13 1   
    19   11   24 1   
    20   12   13 ar  
    21   12   17 ar  
    22   13   14 ar  
    23   14   15 ar  
    24   14   25 1   
    25   15   16 ar  
    26   15   26 1   
    27   16   17 ar  
    28   16   27 1   
    29   17   28 1   
@<TRIPOS>SUBSTRUCTURE
     1 IAG         1 TEMP              0 ****  ****    0 ROOT
