@<TRIPOS>MOLECULE
IAG
   29    30     1     0     0
SMALL
bcc


@<TRIPOS>ATOM
      1 O3          2.4010   -1.3770    0.6830 o         1 IAG     -0.775300
      2 C12         3.1250   -1.2110   -0.3120 c         1 IAG      0.931600
      3 O2          4.3540   -1.4540   -0.4590 o         1 IAG     -0.775300
      4 C11         2.3900   -0.6140   -1.5820 c3        1 IAG     -0.076200
      5 N2          3.3530   -0.3430   -2.6870 ny        1 IAG     -0.652800
      6 C10         3.9820    1.0130   -2.5480 c         1 IAG      0.569100
      7 O1          3.2880    1.9820   -2.8310 o         1 IAG     -0.473100
      8 C9          5.4220    1.0110   -2.0910 c3        1 IAG     -0.077200
      9 C2          6.2860    0.5440   -3.1800 cc        1 IAG     -0.205400
     10 C1          6.8600    1.3340   -4.1830 cd        1 IAG     -0.070100
     11 N1          7.6130    0.5420   -5.0410 na        1 IAG     -0.181400
     12 C7          6.7300   -0.8170   -3.4030 ca        1 IAG     -0.097800
     13 C8          7.5640   -0.7810   -4.5830 ca        1 IAG     -0.052200
     14 C6          8.1610   -1.9470   -5.0850 ca        1 IAG     -0.143000
     15 C5          7.9310   -3.1310   -4.4020 ca        1 IAG     -0.108000
     16 C4          7.1350   -3.1710   -3.2420 ca        1 IAG     -0.142000
     17 C3          6.5360   -2.0280   -2.7330 ca        1 IAG     -0.109000
     18 H111        1.8650    0.3340   -1.2980 hx        1 IAG      0.091200
     19 H112        1.6420   -1.3690   -1.9370 hx        1 IAG      0.091200
     20 HN2         4.1100   -1.0540   -2.5960 hn        1 IAG      0.456800
     21 HC91        5.6800    2.0610   -1.7830 hc        1 IAG      0.128700
     22 HC92        5.5200    0.3330   -1.1850 hc        1 IAG      0.128700
     23 HC1         6.7770    2.4130   -4.3420 h4        1 IAG      0.173000
     24 HN1         8.1740    0.8660   -5.7840 hn        1 IAG      0.305700
     25 HC6         8.7930   -1.9200   -5.9830 ha        1 IAG      0.136000
     26 HC5         8.3880   -4.0630   -4.7680 ha        1 IAG      0.136000
     27 HC4         6.9960   -4.1310   -2.7230 ha        1 IAG      0.143000
     28 HC3         5.9420   -2.0670   -1.8000 ha        1 IAG      0.193000
     29 H22         2.8930   -0.4250   -3.5930 hn        1 IAG      0.456800
@<TRIPOS>BOND
     1    1    2 1   
     2    2    3 1   
     3    2    4 1   
     4    4    5 1   
     5    4   18 1   
     6    4   19 1   
     7    5    6 1   
     8    5   20 1   
     9    5   29 1   
    10    6    7 2   
    11    6    8 1   
    12    8    9 1   
    13    8   21 1   
    14    8   22 1   
    15    9   10 2   
    16    9   12 1   
    17   10   11 1   
    18   10   23 1   
    19   11   13 1   
    20   11   24 1   
    21   12   13 ar  
    22   12   17 ar  
    23   13   14 ar  
    24   14   15 ar  
    25   14   25 1   
    26   15   16 ar  
    27   15   26 1   
    28   16   17 ar  
    29   16   27 1   
    30   17   28 1   
@<TRIPOS>SUBSTRUCTURE
     1 IAG         1 TEMP              0 ****  ****    0 ROOT
