@<TRIPOS>MOLECULE
IAM
   36    36     1     0     0
SMALL
bcc


@<TRIPOS>ATOM
      1 N           1.1860   -1.4220   -0.3870 n3        1 IAM     -0.887800
      2 CA          1.6180   -1.9850    0.8880 c3        1 IAM      0.021500
      3 CB          1.9180   -0.8910    1.9300 c3        1 IAM     -0.021100
      4 CG          3.2580   -1.0580    2.5570 ca        1 IAM     -0.047300
      5 CD1         3.6020   -2.2760    3.1650 ca        1 IAM     -0.133000
      6 CE1         4.8420   -2.4270    3.7760 ca        1 IAM     -0.138000
      7 CZ          5.7640   -1.3730    3.7870 ca        1 IAM     -0.151300
      8 CE2         5.4240   -0.1630    3.1800 ca        1 IAM     -0.138000
      9 CD2         4.1790   -0.0050    2.5720 ca        1 IAM     -0.133000
     10 CT          7.0900   -1.5410    4.4700 c3        1 IAM      0.212100
     11 NH          7.9620   -2.5870    3.9740 n3        1 IAM     -0.818200
     12 CI          8.8200   -2.2150    2.8540 c3        1 IAM      0.171500
     13 CK1         8.1020   -1.9390    1.5320 c3        1 IAM     -0.110600
     14 CK2         9.8880   -3.2830    2.6070 c3        1 IAM     -0.110600
     15 C           0.5940   -2.9960    1.5050 c         1 IAM      0.885600
     16 O          -0.6020   -2.9490    1.1030 o         1 IAM     -0.841800
     17 OXT         1.0260   -3.8150    2.3650 o         1 IAM     -0.841800
     18 HN2         0.9690   -2.1920   -0.9950 hn        1 IAM      0.331300
     19 H           0.3180   -0.9350   -0.2330 hn        1 IAM      0.331300
     20 HA          2.5660   -2.5610    0.6830 h1        1 IAM      0.048700
     21 HB          1.8450    0.1320    1.4740 hc        1 IAM      0.046200
     22 HB1         1.1390   -0.9510    2.7400 hc        1 IAM      0.046200
     23 HD1         2.8620   -3.1060    3.1370 ha        1 IAM      0.166000
     24 HE1         5.0970   -3.3820    4.2580 ha        1 IAM      0.115000
     25 HE2         6.1410    0.6720    3.1800 ha        1 IAM      0.115000
     26 HD2         3.9240    0.9520    2.0950 ha        1 IAM      0.166000
     27 HT1         7.6470   -0.5610    4.4550 h1        1 IAM      0.045200
     28 HT2         6.8900   -1.8000    5.5520 h1        1 IAM      0.045200
     29 HH          7.4230   -3.3990    3.7320 hn        1 IAM      0.361800
     30 HI          9.3530   -1.2640    3.1590 h1        1 IAM      0.042700
     31 HK11        8.8350   -1.5680    0.7770 hc        1 IAM      0.036700
     32 HK12        7.6260   -2.8680    1.1380 hc        1 IAM      0.036700
     33 HK13        7.3050   -1.1670    1.6720 hc        1 IAM      0.036700
     34 HK21       10.4830   -3.4730    3.5320 hc        1 IAM      0.036700
     35 HK22       10.5770   -2.9290    1.8040 hc        1 IAM      0.036700
     36 HK23        9.4220   -4.2430    2.2800 hc        1 IAM      0.036700
@<TRIPOS>BOND
     1    1    2 1   
     2    1   18 1   
     3    1   19 1   
     4    2    3 1   
     5    2   15 1   
     6    2   20 1   
     7    3    4 1   
     8    3   21 1   
     9    3   22 1   
    10    4    5 ar  
    11    4    9 ar  
    12    5    6 ar  
    13    5   23 1   
    14    6    7 ar  
    15    6   24 1   
    16    7    8 ar  
    17    7   10 1   
    18    8    9 ar  
    19    8   25 1   
    20    9   26 1   
    21   10   11 1   
    22   10   27 1   
    23   10   28 1   
    24   11   12 1   
    25   11   29 1   
    26   12   13 1   
    27   12   14 1   
    28   12   30 1   
    29   13   31 1   
    30   13   32 1   
    31   13   33 1   
    32   14   34 1   
    33   14   35 1   
    34   14   36 1   
    35   15   16 1   
    36   15   17 1   
@<TRIPOS>SUBSTRUCTURE
     1 IAM         1 TEMP              0 ****  ****    0 ROOT
