@<TRIPOS>MOLECULE
IAN
   26    26     1     0     0
SMALL
bcc


@<TRIPOS>ATOM
      1 C1         -0.9810    0.1960    0.2960 ca        1 IAN     -0.059300
      2 O1          2.9300   -0.4470    0.1590 os        1 IAN     -0.575200
      3 P1          1.4090   -0.9140   -0.3320 p5        1 IAN      1.324600
      4 C2         -1.6570    0.8500   -0.7460 ca        1 IAN     -0.112500
      5 C3         -3.0380    0.7340   -0.8820 ca        1 IAN     -0.145000
      6 O3          0.9940    1.5440   -0.0900 os        1 IAN     -0.372600
      7 C4         -3.7710   -0.0320    0.0230 ca        1 IAN     -0.154000
      8 O4          1.3770   -0.8290   -1.8040 o         1 IAN     -0.842000
      9 C5         -3.1110   -0.6870    1.0630 ca        1 IAN     -0.145000
     10 C6         -1.7300   -0.5700    1.2040 ca        1 IAN     -0.112500
     11 C7          3.9060   -1.2710   -0.3900 c3        1 IAN      0.162700
     12 C8          0.4860    0.3450    0.4680 c3        1 IAN     -0.013800
     13 H2         -1.0710    1.4420   -1.4690 ha        1 IAN      0.148500
     14 H3         -3.5490    1.2440   -1.7100 ha        1 IAN      0.112000
     15 H4         -4.8590   -0.1260   -0.0860 ha        1 IAN      0.108000
     16 H5         -3.6810   -1.3030    1.7720 ha        1 IAN      0.112000
     17 H6         -1.2120   -1.1080    2.0140 ha        1 IAN      0.148500
     18 H7          3.7410   -2.3260   -0.0470 h1        1 IAN      0.009033
     19 H7A         3.8470   -1.2300   -1.5100 h1        1 IAN      0.009033
     20 H7B         4.9070   -0.9080   -0.0440 h1        1 IAN      0.009033
     21 H8          0.7330    0.3020    1.5650 h1        1 IAN      0.063700
     22 H9          1.1320    3.5460    0.0680 h1        1 IAN      0.017367
     23 H9A        -0.4620    2.8460    0.6570 h1        1 IAN      0.017367
     24 H9B         1.0450    2.6630    1.6760 h1        1 IAN      0.017367
     25 C9          0.6480    2.7110    0.6310 c3        1 IAN      0.114700
     26 O41         1.1410   -2.1670    0.4080 o         1 IAN     -0.842000
@<TRIPOS>BOND
     1    1    4 ar  
     2    1   10 ar  
     3    1   12 1   
     4    2    3 1   
     5    2   11 1   
     6    3    8 1   
     7    3   12 1   
     8    3   26 1   
     9    4    5 ar  
    10    4   13 1   
    11    5    7 ar  
    12    5   14 1   
    13    6   12 1   
    14    6   25 1   
    15    7    9 ar  
    16    7   15 1   
    17    9   10 ar  
    18    9   16 1   
    19   10   17 1   
    20   11   18 1   
    21   11   19 1   
    22   11   20 1   
    23   12   21 1   
    24   22   25 1   
    25   23   25 1   
    26   24   25 1   
@<TRIPOS>SUBSTRUCTURE
     1 IAN         1 TEMP              0 ****  ****    0 ROOT
