@<TRIPOS>MOLECULE
IAN
   26    25     1     0     0
SMALL
bcc


@<TRIPOS>ATOM
      1 C1          0.5560    0.2190   -0.3830 c2        1 IAN     -0.046000
      2 O1         -2.8610    3.0080   -2.2410 oh        1 IAN     -0.353000
      3 P1         -0.4710    2.4860   -1.4330 p5        1 IAN      2.050000
      4 C2          1.9190    0.1920   -1.0020 c3        1 IAN     -0.259000
      5 C3          3.1020    0.1930   -0.2080 c1        1 IAN     -0.110000
      6 O3         -0.4770    0.2330   -2.5620 os        1 IAN     -0.254000
      7 C4         -1.9150   -0.4290    2.1090 c1        1 IAN     -0.254000
      8 O4          0.9200    2.8280   -1.8330 o         1 IAN     -0.858500
      9 C5         -0.8730   -0.3320    1.5250 c1        1 IAN     -0.086000
     10 C6          0.3640   -0.2440    0.8700 c2        1 IAN     -0.116000
     11 C7         -1.5420    2.7990   -2.7140 c3        1 IAN     -0.693000
     12 C8         -0.5490    0.7340   -1.2360 c3        1 IAN     -0.572000
     13 H2          1.9400   -0.5980   -1.8020 hc        1 IAN      0.202500
     14 H3          2.0220    1.2090   -1.5800 hc        1 IAN      0.202500
     15 H4          3.0150    0.5430    0.8330 ha        1 IAN      0.033000
     16 H5         -2.8400   -0.4890    2.6170 ha        1 IAN      0.209000
     17 H6          1.2260   -0.5800    1.4760 ha        1 IAN      0.122000
     18 H7         -1.2220    3.7100   -3.2840 h1        1 IAN      0.097000
     19 H7A        -2.7840    3.3690   -1.3390 ho        1 IAN      0.222000
     20 H7B        -1.6260    1.9680   -3.4580 h1        1 IAN      0.097000
     21 H8         -1.5400    0.4650   -0.7800 h1        1 IAN      0.113000
     22 H9         -1.8380   -1.3380   -2.3360 h1        1 IAN      0.060333
     23 H9A        -0.0790   -1.7640   -2.0840 h1        1 IAN      0.060333
     24 H9B        -0.6900   -1.3640   -3.7710 h1        1 IAN      0.060333
     25 C9         -0.7920   -1.1420   -2.6800 c3        1 IAN     -0.072000
     26 O41        -1.0990    3.0900   -0.2300 o         1 IAN     -0.858500
@<TRIPOS>BOND
     1    1    4 1   
     2    1   10 1   
     3    1   12 1   
     4    2   11 1   
     5    2   19 1   
     6    3    8 1   
     7    3   11 1   
     8    3   12 1   
     9    3   26 1   
    10    4    5 1   
    11    4   13 1   
    12    4   14 1   
    13    5   15 1   
    14    6   12 1   
    15    6   25 1   
    16    7    9 1   
    17    7   16 1   
    18    9   10 1   
    19   10   17 1   
    20   11   18 1   
    21   11   20 1   
    22   12   21 1   
    23   22   25 1   
    24   23   25 1   
    25   24   25 1   
@<TRIPOS>SUBSTRUCTURE
     1 IAN         1 TEMP              0 ****  ****    0 ROOT
