@<TRIPOS>MOLECULE
IAN
   26    25     1     0     0
SMALL
bcc


@<TRIPOS>ATOM
      1 C1          0.4780    0.0780   -0.4490 c2        1 IAN     -0.046000
      2 O1         -2.6260    3.3640   -2.0240 oh        1 IAN     -0.353000
      3 P1         -0.2800    2.4780   -1.4300 p5        1 IAN      2.050000
      4 C2          1.7580   -0.1590   -1.1880 c3        1 IAN     -0.259000
      5 C3          2.9950   -0.3410   -0.5060 c1        1 IAN     -0.110000
      6 O3         -0.7370    0.2540   -2.5250 os        1 IAN     -0.254000
      7 C4         -1.8230   -0.1850    2.2660 c1        1 IAN     -0.254000
      8 O4          1.1050    2.6010   -1.9600 o         1 IAN     -0.858500
      9 C5         -0.8370   -0.2480    1.5890 c1        1 IAN     -0.086000
     10 C6          0.3330   -0.3510    0.8220 c2        1 IAN     -0.116000
     11 C7         -1.4030    2.9540   -2.6120 c3        1 IAN     -0.693000
     12 C8         -0.6080    0.7580   -1.2040 c3        1 IAN     -0.572000
     13 H2          1.5840   -0.9410   -1.9760 hc        1 IAN      0.202500
     14 H3          1.9630    0.8310   -1.7870 hc        1 IAN      0.202500
     15 H4          3.0590    0.0170    0.5340 ha        1 IAN      0.033000
     16 H5         -2.6960   -0.1010    2.8570 ha        1 IAN      0.209000
     17 H6          1.1850   -0.8170    1.3530 ha        1 IAN      0.122000
     18 H7         -1.0000    3.8050   -3.2210 h1        1 IAN      0.097000
     19 H7A        -2.4110    3.7070   -1.1380 ho        1 IAN      0.222000
     20 H7B        -1.6820    2.1460   -3.3350 h1        1 IAN      0.097000
     21 H8         -1.5830    0.6450   -0.6570 h1        1 IAN      0.113000
     22 H9         -2.2960   -1.0880   -2.1560 h1        1 IAN      0.060333
     23 H9A        -0.6070   -1.7810   -2.0590 h1        1 IAN      0.060333
     24 H9B        -1.3020   -1.2900   -3.6880 h1        1 IAN      0.060333
     25 C9         -1.2680   -1.0560   -2.5950 c3        1 IAN     -0.072000
     26 O41        -0.6940    3.1700   -0.1830 o         1 IAN     -0.858500
@<TRIPOS>BOND
     1    1    4 1   
     2    1   10 1   
     3    1   12 1   
     4    2   11 1   
     5    2   19 1   
     6    3    8 1   
     7    3   11 1   
     8    3   12 1   
     9    3   26 1   
    10    4    5 1   
    11    4   13 1   
    12    4   14 1   
    13    5   15 1   
    14    6   12 1   
    15    6   25 1   
    16    7    9 1   
    17    7   16 1   
    18    9   10 1   
    19   10   17 1   
    20   11   18 1   
    21   11   20 1   
    22   12   21 1   
    23   22   25 1   
    24   23   25 1   
    25   24   25 1   
@<TRIPOS>SUBSTRUCTURE
     1 IAN         1 TEMP              0 ****  ****    0 ROOT
