@<TRIPOS>MOLECULE
IAQ
   60    59     1     0     0
SMALL
bcc


@<TRIPOS>ATOM
      1 C4       -165.6330 -245.3990 -579.8740 c2        1 IAQ     -0.205000
      2 C5       -166.5810 -245.0490 -578.9920 c2        1 IAQ     -0.040000
      3 C6       -166.5200 -245.4690 -577.6070 c2        1 IAQ     -0.079000
      4 C13       161.4680  -83.0070   88.1900 ca        1 IAQ     -0.068000
      5 C15       159.2490  -81.9890   88.2000 ca        1 IAQ      0.129000
      6 C21       163.4940  -84.5690   89.9080 c2        1 IAQ     -0.072000
      7 C24       161.4220  -82.8420   85.3070 c3        1 IAQ     -0.188000
      8 C26       162.4190  -80.1320   86.7460 c3        1 IAQ     -0.154000
      9 C28       163.4760  -79.5560   85.8230 cx        1 IAQ     -0.123000
     10 O27       160.4930  -79.7460   85.2780 o         1 IAQ     -0.162000
     11 C25       161.1720  -80.4700   85.9870 c2        1 IAQ      0.275000
     12 C29       163.4340  -78.0890   85.4840 cx        1 IAQ     -0.147000
     13 N30       164.4600  -78.6070   86.3630 n3        1 IAQ     -0.185000
     14 C32       163.9800  -80.5660   84.8290 c3        1 IAQ     -0.180000
     15 C31      -938.2170    0.5390    0.9970 c1        1 IAQ      0.403000
     16 C14       160.4670  -82.3020   87.5150 ca        1 IAQ     -0.209000
     17 F22       158.2650  -81.3320   87.5410 f         1 IAQ     -0.080000
     18 C16       159.0660  -82.3570   89.5260 ca        1 IAQ     -0.128000
     19 C11       160.0700  -83.0600   90.2400 ca        1 IAQ      0.116000
     20 N10       159.8390  -83.3990   91.5630 n2        1 IAQ     -0.194000
     21 C12       161.2900  -83.3860   89.5280 ca        1 IAQ     -0.039000
     22 N17       162.2640  -84.0950   90.2490 na        1 IAQ     -0.032000
     23 N20       164.0240  -85.2010   91.0250 n3        1 IAQ     -0.164000
     24 C19       163.1680  -85.1630   92.1170 c1        1 IAQ      0.018000
     25 C18       162.0170  -84.4480   91.6300 c2        1 IAQ     -0.292000
     26 C9        160.7800  -84.0630   92.2140 c2        1 IAQ      0.126000
     27 C2       -164.2650 -246.4000 -577.9530 c2        1 IAQ      0.048000
     28 C3       -164.4750 -246.2730 -579.4650 c3        1 IAQ     -0.330000
     29 C1       -165.4460 -246.1210 -577.1280 c2        1 IAQ     -0.167000
     30 H4       -164.7650 -247.3440 -579.8130 hc        1 IAQ      0.262000
     31 H5       -167.4490 -244.4400 -579.3070 ha        1 IAQ      0.186000
     32 H6       -167.3890 -245.2370 -576.9650 ha        1 IAQ      0.181000
     33 H7       -161.6530 -245.1420 -579.1280 DU        1 IAQ      0.129000
     34 H7A      -162.2810 -245.1680 -579.4750 DU        1 IAQ      0.129000
     35 H7B      -165.6870 -245.1280 -580.9400 ha        1 IAQ      0.175000
     36 H13       162.4050  -83.2790   87.6730 ha        1 IAQ      0.148000
     37 H21       163.9780  -84.4710   88.9300 h5        1 IAQ      0.213000
     38 H24       161.2740  -82.5950   84.2190 hx        1 IAQ      0.145333
     39 H24A      162.5100  -82.7360   85.5630 hx        1 IAQ      0.145333
     40 H24B      161.0840  -83.8950   85.5060 hx        1 IAQ      0.145333
     41 H26       162.8420  -81.0260   87.2760 hc        1 IAQ      0.141500
     42 H28       162.1110  -79.3810   87.5310 hc        1 IAQ      0.141500
     43 H29       162.6050  -77.4590   85.8720 h1        1 IAQ      0.140000
     44 H29A      163.7940  -77.7370   84.4920 h1        1 IAQ      0.140000
     45 H32       164.4680  -81.4240   85.3520 hc        1 IAQ      0.090333
     46 H32A      164.7320  -80.1070   84.1390 hc        1 IAQ      0.090333
     47 H32B      163.1240  -80.9430   84.2160 hc        1 IAQ      0.090333
     48 H31      -938.2030    0.4420    0.1540 ha        1 IAQ      0.199000
     49 H31A     -939.1610    0.0470    0.7160 ha        1 IAQ      0.199000
     50 H31B     -937.2860    0.1290    0.1210 DU        1 IAQ      0.129000
     51 H16       158.1150  -82.1020   90.0340 ha        1 IAQ      0.208000
     52 H19       164.9190  -85.6320   91.0270 hn        1 IAQ      0.286000
     53 HN8       160.5810  -84.3290   93.2740 h4        1 IAQ      0.214000
     54 H1       -165.3980 -246.4520 -576.0750 ha        1 IAQ      0.177000
     55 C7       -163.3370 -245.9210 -580.2660 c1        1 IAQ      0.654000
     56 N8       -163.0940 -246.7580 -577.5680 n2        1 IAQ     -0.262000
     57 H301      164.3640  -78.3850   87.3360 hn        1 IAQ      0.162000
     58 H82      -162.9390 -246.8910 -576.5910 hn        1 IAQ      0.213000
     59 H231      159.6580  -81.8790   85.7110 hn        1 IAQ      0.266000
     60 N23       160.6140  -81.8980   86.1160 n4        1 IAQ     -0.012000
@<TRIPOS>BOND
     1    1    2 1   
     2    1   28 1   
     3    1   35 1   
     4    2    3 1   
     5    2   31 1   
     6    3   29 1   
     7    3   32 1   
     8    4   16 1   
     9    4   21 1   
    10    4   36 1   
    11    5   16 1   
    12    5   17 1   
    13    5   18 1   
    14    6   22 1   
    15    6   23 1   
    16    6   37 1   
    17    7   38 1   
    18    7   39 1   
    19    7   40 1   
    20    7   60 1   
    21    8    9 1   
    22    8   11 1   
    23    8   41 1   
    24    8   42 1   
    25    9   12 1   
    26    9   13 1   
    27    9   14 1   
    28   10   11 1   
    29   11   60 1   
    30   12   13 1   
    31   12   43 1   
    32   12   44 1   
    33   13   57 1   
    34   14   45 1   
    35   14   46 1   
    36   14   47 1   
    37   15   48 1   
    38   15   49 1   
    39   16   60 1   
    40   18   19 1   
    41   18   51 1   
    42   19   20 1   
    43   19   21 1   
    44   20   26 1   
    45   21   22 1   
    46   22   25 1   
    47   23   24 1   
    48   23   52 1   
    49   24   25 1   
    50   25   26 1   
    51   26   53 1   
    52   27   28 1   
    53   27   29 1   
    54   27   56 1   
    55   28   30 1   
    56   28   55 1   
    57   29   54 1   
    58   56   58 1   
    59   59   60 1   
@<TRIPOS>SUBSTRUCTURE
     1 IAQ         1 TEMP              0 ****  ****    0 ROOT
