@<TRIPOS>MOLECULE
IAQ
   57    60     1     0     0
SMALL
bcc


@<TRIPOS>ATOM
      1 C4         -7.4580   -0.9300   -1.1770 ca        1 IAQ     -0.115000
      2 C5         -7.5210   -2.0180   -0.3110 ca        1 IAQ     -0.136000
      3 C6         -6.5700   -2.1530    0.6980 ca        1 IAQ     -0.122000
      4 C13         1.0500    0.0840    0.5980 ca        1 IAQ     -0.108000
      5 C15         0.6310   -2.3070    0.6380 ca        1 IAQ      0.104900
      6 C21        -0.2730    2.8720    0.3030 cc        1 IAQ      0.380700
      7 C24         3.3680   -2.4450    1.7950 c3        1 IAQ      0.083300
      8 C26         5.2930   -1.2390    0.1010 ce        1 IAQ     -0.267200
      9 C28         6.3360   -0.4730   -0.2490 c2        1 IAQ     -0.054200
     10 O27         3.5370    0.1980   -0.6470 o         1 IAQ     -0.607100
     11 C25         3.8880   -0.7700    0.0590 c         1 IAQ      0.677300
     12 C29         6.2160    0.9420   -0.7140 c3        1 IAQ      0.177000
     13 N30         7.4990    1.6260   -0.8270 n3        1 IAQ     -0.744600
     14 C32         8.2390    1.2420   -2.0070 c3        1 IAQ      0.157100
     15 C31         7.3810    3.0590   -0.6790 c3        1 IAQ      0.157100
     16 C14         1.5600   -1.2170    0.6960 ca        1 IAQ      0.037600
     17 F22         1.0710   -3.5900    0.7030 f         1 IAQ     -0.137900
     18 C16        -0.7400   -2.0840    0.5210 ca        1 IAQ     -0.194300
     19 C11        -1.2640   -0.7760    0.4260 ca        1 IAQ      0.425600
     20 N10        -2.6440   -0.6140    0.3020 nd        1 IAQ     -0.734000
     21 C12        -0.3290    0.3120    0.4530 ca        1 IAQ     -0.095600
     22 N17        -0.8570    1.6040    0.3360 na        1 IAQ     -0.054200
     23 N20        -1.2160    3.8390    0.1810 nd        1 IAQ     -0.559300
     24 C19        -2.4420    3.1960    0.1310 cd        1 IAQ      0.012600
     25 C18        -2.2570    1.7980    0.2210 cc        1 IAQ     -0.252600
     26 C9         -3.1340    0.6220    0.2170 cc        1 IAQ      0.722200
     27 C2         -5.4840   -0.1050   -0.0280 ca        1 IAQ      0.128600
     28 C3         -6.4500    0.0310   -1.0580 ca        1 IAQ     -0.110300
     29 C1         -5.5610   -1.2070    0.8490 ca        1 IAQ     -0.107000
     30 H4         -8.2100   -0.8240   -1.9740 ha        1 IAQ      0.133000
     31 H5         -8.3180   -2.7670   -0.4250 ha        1 IAQ      0.134000
     32 H6         -6.6140   -3.0110    1.3860 ha        1 IAQ      0.135000
     33 H7         -6.6150    2.1350   -1.4700 hc        1 IAQ      0.045700
     34 H7A        -5.4210    1.2420   -2.5090 hc        1 IAQ      0.045700
     35 H7B        -7.1960    1.0550   -2.7990 hc        1 IAQ      0.045700
     36 H13         1.7470    0.9400    0.6090 ha        1 IAQ      0.169000
     37 H21         0.8090    3.0320    0.3620 h5        1 IAQ      0.084800
     38 H24         4.2770   -2.0880    2.3490 h1        1 IAQ      0.049033
     39 H24A        2.5470   -2.6370    2.5370 h1        1 IAQ      0.049033
     40 H24B        3.6050   -3.4110    1.2720 h1        1 IAQ      0.049033
     41 H26         5.4590   -2.2860    0.4050 ha        1 IAQ      0.142000
     42 H28         7.3550   -0.8980   -0.1960 ha        1 IAQ      0.142000
     43 H29         5.6520    0.9330   -1.6970 h1        1 IAQ      0.069200
     44 H29A        5.5620    1.5010    0.0190 h1        1 IAQ      0.069200
     45 H32         7.7540    1.5800   -2.9650 h1        1 IAQ      0.033033
     46 H32A        9.2660    1.6880   -1.9510 h1        1 IAQ      0.033033
     47 H32B        8.3320    0.1250   -2.0340 h1        1 IAQ      0.033033
     48 H31         6.9290    3.2870    0.3220 h1        1 IAQ      0.033033
     49 H31A        8.4070    3.5110   -0.7200 h1        1 IAQ      0.033033
     50 H31B        6.7480    3.5370   -1.4750 h1        1 IAQ      0.033033
     51 H16        -1.4230   -2.9500    0.4890 ha        1 IAQ      0.172000
     52 H19        -3.3760    3.7510    0.0420 h4        1 IAQ      0.183000
     53 HN8        -4.7210    1.7810   -0.2500 hn        1 IAQ      0.432800
     54 H1         -4.8230   -1.3300    1.6560 ha        1 IAQ      0.153000
     55 C7         -6.4170    1.1710   -2.0040 c3        1 IAQ     -0.058800
     56 N8         -4.5060    0.8990    0.1690 nh        1 IAQ     -0.716300
     57 N23         2.9470   -1.4440    0.8510 n         1 IAQ     -0.389000
@<TRIPOS>BOND
     1    1    2 ar  
     2    1   28 ar  
     3    1   30 1   
     4    2    3 ar  
     5    2   31 1   
     6    3   29 ar  
     7    3   32 1   
     8    4   16 ar  
     9    4   21 ar  
    10    4   36 1   
    11    5   16 ar  
    12    5   17 1   
    13    5   18 ar  
    14    6   22 1   
    15    6   23 2   
    16    6   37 1   
    17    7   38 1   
    18    7   39 1   
    19    7   40 1   
    20    7   57 1   
    21    8    9 2   
    22    8   11 1   
    23    8   41 1   
    24    9   12 1   
    25    9   42 1   
    26   10   11 2   
    27   11   57 1   
    28   12   13 1   
    29   12   43 1   
    30   12   44 1   
    31   13   14 1   
    32   13   15 1   
    33   14   45 1   
    34   14   46 1   
    35   14   47 1   
    36   15   48 1   
    37   15   49 1   
    38   15   50 1   
    39   16   57 1   
    40   18   19 ar  
    41   18   51 1   
    42   19   20 1   
    43   19   21 ar  
    44   20   26 2   
    45   21   22 1   
    46   22   25 1   
    47   23   24 1   
    48   24   25 2   
    49   24   52 1   
    50   25   26 1   
    51   26   56 1   
    52   27   28 ar  
    53   27   29 ar  
    54   27   56 1   
    55   28   55 1   
    56   29   54 1   
    57   33   55 1   
    58   34   55 1   
    59   35   55 1   
    60   53   56 1   
@<TRIPOS>SUBSTRUCTURE
     1 IAQ         1 TEMP              0 ****  ****    0 ROOT
