@<TRIPOS>MOLECULE
IAQ
   58    60     1     0     0
SMALL
bcc


@<TRIPOS>ATOM
      1 C4          1.2950   -1.5070   -0.6920 c2        1 IAQ     -0.168000
      2 C5          1.6200   -1.2150    0.5290 c1        1 IAQ     -0.137000
      3 C6          2.0410   -0.9390    1.7380 c2        1 IAQ     -0.111000
      4 C13         1.2050    4.0650    7.5640 c1        1 IAQ     -0.243000
      5 C15         3.4800    3.9410    6.6180 c2        1 IAQ      0.224000
      6 C21        -1.5530    3.8750    7.3170 c1        1 IAQ      0.172000
      7 C24         2.4200    3.5650   10.0590 c2        1 IAQ      0.063000
      8 C26         4.6600    5.1090   10.7980 c3        1 IAQ     -0.192000
      9 C28         3.5650    4.9310   11.8360 c3        1 IAQ     -0.100000
     10 O27         4.4970    5.9230    8.5150 o         1 IAQ     -0.181000
     11 C25         4.1200    5.1610    9.3950 c2        1 IAQ      0.290000
     12 C29         2.7910    3.6280   11.5380 c3        1 IAQ     -0.014000
     13 N30         1.6860    3.3890   12.4300 n3        1 IAQ     -0.296000
     14 C32         4.1740    4.8940   13.2210 c3        1 IAQ     -0.211000
     15 C31         0.6320    4.3660   12.4500 c3        1 IAQ     -0.138000
     16 C14         2.5550    4.0810    7.7510 c2        1 IAQ     -0.253000
     17 F22         4.7990    4.1460    6.7910 f         1 IAQ     -0.075000
     18 C16         2.9990    3.5600    5.3910 c2        1 IAQ     -0.281000
     19 C11         1.5860    3.2480    5.2370 c2        1 IAQ      0.144000
     20 N10         1.1810    2.3050    4.4220 n2        1 IAQ     -0.218000
     21 C12         0.7140    4.0980    6.1700 c3        1 IAQ     -0.048000
     22 N17        -0.7360    3.7890    6.0340 n4        1 IAQ     -0.016000
     23 N20        -2.1880    2.6900    7.4460 n3        1 IAQ     -0.278000
     24 C19        -1.9250    1.7550    6.4030 c1        1 IAQ      0.055000
     25 C18        -0.9960    2.4020    5.5550 c2        1 IAQ     -0.505000
     26 C9         -0.1500    1.8380    4.5400 c2        1 IAQ      0.299000
     27 C2          0.0200    0.0810    2.7850 c2        1 IAQ     -0.036000
     28 C3         -0.9130   -0.4760    1.7360 c3        1 IAQ     -0.214000
     29 C1          1.3510   -0.1860    2.7590 c2        1 IAQ     -0.075000
     30 H4          1.5320   -0.8430   -1.5380 ha        1 IAQ      0.150000
     31 H5          0.7710   -2.4380   -0.9580 ha        1 IAQ      0.150000
     32 H6          3.0500   -1.2910    2.0350 ha        1 IAQ      0.159000
     33 H7         -3.0370   -0.8360    1.3890 ha        1 IAQ      0.084000
     34 H7A        -0.7330    0.0850    0.7680 hc        1 IAQ      0.156000
     35 H7B        -0.6070   -1.5490    1.5290 hc        1 IAQ      0.156000
     36 H13         0.8470    5.1840    5.8340 hx        1 IAQ      0.176000
     37 H21        -1.1510    4.4570    5.3750 hn        1 IAQ      0.246000
     38 H24         1.5560    2.9150    9.7700 h4        1 IAQ      0.207000
     39 H24A        2.1440    0.9310   10.8390 ha        1 IAQ      0.001000
     40 H24B        1.9650    0.3160   11.0610 ha        1 IAQ      0.001000
     41 H26         5.2120    6.0720   10.9890 hc        1 IAQ      0.150500
     42 H28         5.4080    4.2720   10.8590 hc        1 IAQ      0.150500
     43 H29         3.5160    2.7590   11.6830 h1        1 IAQ      0.147000
     44 H29A        2.8580    5.8060   11.7720 hc        1 IAQ      0.119000
     45 H32         4.7790    5.8180   13.3950 hc        1 IAQ      0.099000
     46 H32A        3.3720    4.8450   13.9970 hc        1 IAQ      0.099000
     47 H32B        4.8380    4.0040   13.3400 hc        1 IAQ      0.099000
     48 H31         0.1890    4.5670   11.4350 h1        1 IAQ      0.090333
     49 H31A       -0.1800    3.9960   13.1310 h1        1 IAQ      0.090333
     50 H31B        1.0280    5.3300   12.8660 h1        1 IAQ      0.090333
     51 H16         3.6750    3.4000    4.5370 ha        1 IAQ      0.191000
     52 H19        -2.8140    2.4680    8.1870 hn        1 IAQ      0.289000
     53 HN8        -1.6090    0.5680    3.9430 hn        1 IAQ      0.321000
     54 H1          2.0220    0.1630    3.5670 ha        1 IAQ      0.160000
     55 C7         -2.3120   -0.4160    2.0960 c1        1 IAQ     -0.084000
     56 N8         -0.6290    0.8250    3.8000 n3        1 IAQ     -0.120000
     57 H301        1.3340    2.4550   12.3190 hn        1 IAQ      0.185000
     58 N23         3.0420    4.2020    9.0940 n         1 IAQ     -0.016000
@<TRIPOS>BOND
     1    1    2 1   
     2    1   30 1   
     3    1   31 1   
     4    2    3 1   
     5    3   29 1   
     6    3   32 1   
     7    4   16 1   
     8    4   21 1   
     9    5   16 1   
    10    5   17 1   
    11    5   18 1   
    12    6   22 1   
    13    6   23 1   
    14    7   12 1   
    15    7   38 1   
    16    7   58 1   
    17    8    9 1   
    18    8   11 1   
    19    8   41 1   
    20    8   42 1   
    21    9   12 1   
    22    9   14 1   
    23    9   44 1   
    24   10   11 1   
    25   11   58 1   
    26   12   13 1   
    27   12   43 1   
    28   13   15 1   
    29   13   57 1   
    30   14   45 1   
    31   14   46 1   
    32   14   47 1   
    33   15   48 1   
    34   15   49 1   
    35   15   50 1   
    36   16   58 1   
    37   18   19 1   
    38   18   51 1   
    39   19   20 1   
    40   19   21 1   
    41   20   26 1   
    42   21   22 1   
    43   21   36 1   
    44   22   25 1   
    45   22   37 1   
    46   23   24 1   
    47   23   52 1   
    48   24   25 1   
    49   25   26 1   
    50   26   56 1   
    51   27   28 1   
    52   27   29 1   
    53   27   56 1   
    54   28   34 1   
    55   28   35 1   
    56   28   55 1   
    57   29   54 1   
    58   33   55 1   
    59   39   40 1   
    60   53   56 1   
@<TRIPOS>SUBSTRUCTURE
     1 IAQ         1 TEMP              0 ****  ****    0 ROOT
