@<TRIPOS>MOLECULE
IAQ
   58    58     1     0     0
SMALL
bcc


@<TRIPOS>ATOM
      1 C4          0.6150    1.7710   -1.1110 c2        1 IAQ     -0.165000
      2 C5          1.0770    1.0390   -0.1450 c1        1 IAQ     -0.126000
      3 C6          1.6310    0.2990    0.7830 c2        1 IAQ     -0.121000
      4 C13         2.2510    1.2190    8.6610 c2        1 IAQ     -0.080000
      5 C15         4.1280    1.9510    7.2750 c2        1 IAQ      0.209000
      6 C21        -0.4550   -0.0660    8.6310 c1        1 IAQ      0.072000
      7 C24         5.0980    2.5450   10.1010 c2        1 IAQ     -0.394000
      8 C26         3.3180    4.5870   11.3030 c3        1 IAQ     -0.082000
      9 C28         4.2230    5.6830   10.8620 c2        1 IAQ     -0.175000
     10 O27         1.6860    3.6790    9.6120 os        1 IAQ     -0.029000
     11 C25         2.9880    3.6490   10.2030 c2        1 IAQ     -0.321000
     12 C29         0.9230    4.6930    9.6020 c1        1 IAQ     -0.067000
     13 N30         0.8850    7.0850   13.4110 n8        1 IAQ     -0.219000
     14 C32         3.8800    6.9680   10.9120 c2        1 IAQ     -0.214000
     15 C31         0.6170    6.3850   12.3560 c1        1 IAQ     -0.219000
     16 C14         3.3840    1.9530    8.5530 c2        1 IAQ     -0.033000
     17 F22         5.3490    2.5070    7.2260 f         1 IAQ     -0.044000
     18 C16         3.5720    1.4130    6.1490 c2        1 IAQ     -0.239000
     19 C11         2.2350    0.8430    6.1610 c2        1 IAQ      0.152000
     20 N10         1.5640    0.7390    5.0410 n2        1 IAQ     -0.200000
     21 C12         1.7670    0.3500    7.5400 c3        1 IAQ      0.034000
     22 N17         0.3370    0.1210    7.5710 n3        1 IAQ     -0.161000
     23 N20        -1.8570   -0.2520    8.0920 ny        1 IAQ     -0.132000
     24 C19        -1.7800   -0.1670    6.6060 c1        1 IAQ     -0.028000
     25 C18        -0.4350    0.0720    6.3300 c2        1 IAQ     -0.368000
     26 C9          0.2200    0.3050    5.0600 c2        1 IAQ      0.288000
     27 C2         -0.0800    0.3500    2.5970 c2        1 IAQ     -0.055000
     28 C3         -1.1890    0.8030    1.6770 c3        1 IAQ     -0.212000
     29 C1          1.1740    0.1020    2.1370 c2        1 IAQ     -0.049000
     30 H4         -0.0940    1.3840   -1.8590 ha        1 IAQ      0.155000
     31 H5          0.9130    2.8230   -1.2450 ha        1 IAQ      0.155000
     32 H6          2.5750   -0.2310    0.5370 ha        1 IAQ      0.163000
     33 H7         -3.3750    0.8830    1.6130 ha        1 IAQ      0.092000
     34 H7A        -1.0880    0.2390    0.6980 hc        1 IAQ      0.159000
     35 H7B        -1.0170    1.8940    1.4220 hc        1 IAQ      0.159000
     36 H13         2.2750   -0.6680    7.6820 h1        1 IAQ      0.171000
     37 H21        -2.2280   -1.1610    8.3770 hn        1 IAQ      0.276000
     38 H24         5.7230    1.7820    9.6290 h4        1 IAQ      0.163000
     39 H24A        1.6470    1.2160    9.5910 ha        1 IAQ      0.211000
     40 H24B        5.4830    3.1420   10.9340 h4        1 IAQ      0.163000
     41 H26         3.8140    4.0190   12.1410 hc        1 IAQ      0.125500
     42 H28         2.3530    5.0120   11.7140 hc        1 IAQ      0.125500
     43 H29         1.1810    5.6690   10.0580 ha        1 IAQ      0.097000
     44 H29A        5.2110    5.3640   10.4930 ha        1 IAQ      0.121000
     45 H32         2.8920    7.2980   11.2660 ha        1 IAQ      0.119500
     46 H32A        4.5620    7.7710   10.6010 ha        1 IAQ      0.119500
     47 H32B        0.2240    7.5520   14.0010 hn        1 IAQ      0.194000
     48 H31         0.9430    7.9390   10.4190 ha        1 IAQ      0.003000
     49 H31A        0.2680    7.9970   10.4300 ha        1 IAQ      0.003000
     50 H31B       -0.4510    6.2850   12.0760 ha        1 IAQ      0.057000
     51 H16         4.1100    1.4640    5.1850 ha        1 IAQ      0.198000
     52 H19        -2.4700    0.4850    8.4530 hn        1 IAQ      0.276000
     53 HN8        -1.5000   -0.0410    4.0350 hn        1 IAQ      0.329000
     54 H1          1.9580   -0.3040    2.8040 ha        1 IAQ      0.155000
     55 C7         -2.5110    0.6230    2.2340 c1        1 IAQ     -0.088000
     56 N8         -0.4900    0.1350    3.9370 n7        1 IAQ     -0.097000
     57 H301        1.8350    7.1980   13.6930 hn        1 IAQ      0.194000
     58 N23         3.8590    2.7660    9.6500 n3        1 IAQ      0.177000
@<TRIPOS>BOND
     1    1    2 1   
     2    1   30 1   
     3    1   31 1   
     4    2    3 1   
     5    3   29 1   
     6    3   32 1   
     7    4   16 1   
     8    4   21 1   
     9    4   39 1   
    10    5   16 1   
    11    5   17 1   
    12    5   18 1   
    13    6   22 1   
    14    6   23 1   
    15    7   38 1   
    16    7   40 1   
    17    7   58 1   
    18    8    9 1   
    19    8   11 1   
    20    8   41 1   
    21    8   42 1   
    22    9   14 1   
    23    9   44 1   
    24   10   11 1   
    25   10   12 1   
    26   11   58 1   
    27   12   43 1   
    28   13   15 1   
    29   13   47 1   
    30   13   57 1   
    31   14   45 1   
    32   14   46 1   
    33   15   50 1   
    34   16   58 1   
    35   18   19 1   
    36   18   51 1   
    37   19   20 1   
    38   19   21 1   
    39   20   26 1   
    40   21   22 1   
    41   21   36 1   
    42   22   25 1   
    43   23   24 1   
    44   23   37 1   
    45   23   52 1   
    46   24   25 1   
    47   25   26 1   
    48   26   56 1   
    49   27   28 1   
    50   27   29 1   
    51   27   56 1   
    52   28   34 1   
    53   28   35 1   
    54   28   55 1   
    55   29   54 1   
    56   33   55 1   
    57   48   49 1   
    58   53   56 1   
@<TRIPOS>SUBSTRUCTURE
     1 IAQ         1 TEMP              0 ****  ****    0 ROOT
