@<TRIPOS>MOLECULE
IAR
   23    22     1     0     0
SMALL
bcc


@<TRIPOS>ATOM
      1 C           3.4910   -0.5050    0.0850 c         1 IAR      0.839300
      2 N           2.4740    1.7600    0.1490 n2        1 IAR     -0.794100
      3 O           3.8180   -0.9740    1.2060 o         1 IAR     -0.817300
      4 CA          2.3020    0.4940    0.0680 ce        1 IAR      0.375300
      5 CB          1.0040   -0.2650   -0.0510 c3        1 IAR     -0.182700
      6 CD         -1.4860   -0.2890   -0.1100 c3        1 IAR      0.181800
      7 NE         -2.7100    0.4930   -0.0740 nh        1 IAR     -0.798200
      8 CG         -0.2400    0.5930   -0.0070 c3        1 IAR     -0.092400
      9 CZ         -3.9560   -0.2140   -0.0210 c2        1 IAR      0.739100
     10 NH1        -5.1160    0.6190    0.1920 nh        1 IAR     -0.933800
     11 NH2        -4.0050   -1.5170   -0.1640 n2        1 IAR     -0.865100
     12 H           1.6310    2.3020    0.1290 hn        1 IAR      0.322400
     13 HB2         1.0400   -0.8380   -1.0170 hc        1 IAR      0.067700
     14 HB3         0.9810   -1.0160    0.7850 hc        1 IAR      0.067700
     15 HD2        -1.4540   -1.0560    0.7180 h1        1 IAR      0.055700
     16 HD3        -1.4670   -0.8470   -1.0880 h1        1 IAR      0.055700
     17 HG2        -0.2630    1.1770    0.9510 hc        1 IAR      0.037700
     18 HG3        -0.2260    1.3310   -0.8520 hc        1 IAR      0.037700
     19 HH11       -4.9580    1.5940    0.0580 hn        1 IAR      0.378300
     20 HH21       -4.9230   -1.9030   -0.2140 hn        1 IAR      0.378400
     21 HH12       -5.9080    0.3110   -0.3310 hn        1 IAR      0.378300
     22 OXT         3.9890   -0.8140   -1.0280 o         1 IAR     -0.817300
     23 HE         -2.6620    1.2200    0.6150 hn        1 IAR      0.386800
@<TRIPOS>BOND
     1    1    3 1   
     2    1    4 1   
     3    1   22 1   
     4    2    4 2   
     5    2   12 1   
     6    4    5 1   
     7    5    8 1   
     8    5   13 1   
     9    5   14 1   
    10    6    7 1   
    11    6    8 1   
    12    6   15 1   
    13    6   16 1   
    14    7    9 1   
    15    7   23 1   
    16    8   17 1   
    17    8   18 1   
    18    9   10 1   
    19    9   11 2   
    20   10   19 1   
    21   10   21 1   
    22   11   20 1   
@<TRIPOS>SUBSTRUCTURE
     1 IAR         1 TEMP              0 ****  ****    0 ROOT
