@<TRIPOS>MOLECULE
IAS
   14    13     1     0     0
SMALL
bcc


@<TRIPOS>ATOM
      1 N          -1.7920   -0.5710    0.0240 n3        1 IAS     -0.904800
      2 CA         -0.3730   -0.4980   -0.0370 c3        1 IAS      0.077500
      3 C           0.1990   -0.6460    1.3540 c         1 IAS      0.909600
      4 O          -0.2040    0.1020    2.2830 o         1 IAS     -0.881300
      5 CB          0.0390    0.8380   -0.6110 c3        1 IAS     -0.154400
      6 CG          1.5480    0.9310   -0.6410 c         1 IAS      0.896600
      7 OD1         2.1540    1.6220    0.2200 o         1 IAS     -0.893800
      8 OXT         1.0790   -1.5170    1.5840 o         1 IAS     -0.881300
      9 H          -2.0420   -1.3900    0.3490 hn        1 IAS      0.331300
     10 H2         -2.1400   -0.4570   -0.8160 hn        1 IAS      0.331300
     11 HA         -0.0340   -1.2160   -0.6070 h1        1 IAS     -0.007300
     12 HB2        -0.3110    0.9240   -1.5210 hc        1 IAS      0.035200
     13 HB3        -0.3210    1.5580   -0.0540 hc        1 IAS      0.035200
     14 OD2         2.1990    0.3180   -1.5270 o         1 IAS     -0.893800
@<TRIPOS>BOND
     1    1    2 1   
     2    1    9 1   
     3    1   10 1   
     4    2    3 1   
     5    2    5 1   
     6    2   11 1   
     7    3    4 1   
     8    3    8 1   
     9    5    6 1   
    10    5   12 1   
    11    5   13 1   
    12    6    7 1   
    13    6   14 1   
@<TRIPOS>SUBSTRUCTURE
     1 IAS         1 TEMP              0 ****  ****    0 ROOT
