@<TRIPOS>MOLECULE
IAS
   14    13     1     0     0
SMALL
bcc


@<TRIPOS>ATOM
      1 N          -0.4270    1.7630    0.0460 n3        1 IAS     -0.918800
      2 CA         -0.5510    0.3790   -0.3830 c3        1 IAS      0.067500
      3 C          -1.9860   -0.1770   -0.1370 c         1 IAS      0.909600
      4 O          -2.5530    0.0320    0.9790 o         1 IAS     -0.879300
      5 CB          0.4490   -0.5930    0.2600 c3        1 IAS     -0.195400
      6 CG          1.9140   -0.1800    0.1340 c         1 IAS      0.899600
      7 OD1         2.7100   -0.9190   -0.5260 o         1 IAS     -0.887800
      8 OXT        -2.5450   -0.8280   -1.0700 o         1 IAS     -0.879300
      9 H          -0.9300    1.8710    0.9100 hn        1 IAS      0.340800
     10 H2          0.5430    1.9610    0.2320 hn        1 IAS      0.340800
     11 HA         -0.3690    0.3730   -1.4970 h1        1 IAS      0.034700
     12 HB2         0.2080   -0.6900    1.3500 hc        1 IAS      0.027700
     13 HB3         0.3100   -1.5950   -0.2180 hc        1 IAS      0.027700
     14 OD2         2.3300    0.8650    0.7300 o         1 IAS     -0.887800
@<TRIPOS>BOND
     1    1    2 1   
     2    1    9 1   
     3    1   10 1   
     4    2    3 1   
     5    2    5 1   
     6    2   11 1   
     7    3    4 1   
     8    3    8 1   
     9    5    6 1   
    10    5   12 1   
    11    5   13 1   
    12    6    7 1   
    13    6   14 1   
@<TRIPOS>SUBSTRUCTURE
     1 IAS         1 TEMP              0 ****  ****    0 ROOT
