@<TRIPOS>MOLECULE
IAV
   38    39     1     0     0
SMALL
bcc


@<TRIPOS>ATOM
      1 O1         -0.6270   -1.7790    0.1390 o         1 IAV     -0.474100
      2 C10         0.5360   -1.3890    0.1190 c         1 IAV      0.555100
      3 N2          1.3430   -1.6080    1.3550 ny        1 IAV     -0.662800
      4 C11         1.3170   -0.4140    2.2690 c3        1 IAV     -0.041500
      5 C12         2.6990    0.3750    2.1610 c         1 IAV      0.928600
      6 O2          3.6620   -0.2780    1.6690 o         1 IAV     -0.774300
      7 O3          2.6750    1.5500    2.5640 o         1 IAV     -0.774300
      8 C13         1.0810   -0.7900    3.7320 c3        1 IAV     -0.079700
      9 C14         2.0770   -1.8150    4.2310 c3        1 IAV     -0.107100
     10 C15        -0.3400   -1.2450    3.9770 c3        1 IAV     -0.107100
     11 C9          1.2460   -0.7170   -1.0340 c3        1 IAV     -0.049200
     12 C2          2.4080   -1.4900   -1.4730 cc        1 IAV     -0.255400
     13 C1          3.7410   -1.2630   -1.0990 cd        1 IAV     -0.035100
     14 N1          4.5730   -2.1550   -1.7560 na        1 IAV     -0.176400
     15 C8          3.7920   -2.9740   -2.5840 ca        1 IAV     -0.061200
     16 C6          4.1540   -4.0170   -3.4480 ca        1 IAV     -0.131000
     17 C7          2.4110   -2.5760   -2.4290 ca        1 IAV     -0.074800
     18 C3          1.4230   -3.2380   -3.1600 ca        1 IAV     -0.101000
     19 C4          1.7960   -4.2680   -4.0110 ca        1 IAV     -0.141000
     20 C5          3.1410   -4.6510   -4.1520 ca        1 IAV     -0.118000
     21 HN2         1.0060   -2.4330    1.8560 hn        1 IAV      0.464300
     22 H11         0.4950    0.2750    1.9270 hx        1 IAV      0.090700
     23 H13         1.2550    0.1770    4.2960 hc        1 IAV      0.110700
     24 H141        3.1050   -1.5590    3.8700 hc        1 IAV      0.042533
     25 H142        2.0830   -1.8230    5.3480 hc        1 IAV      0.042533
     26 H143        1.8150   -2.8440    3.8850 hc        1 IAV      0.042533
     27 H151       -1.0670   -0.4690    3.6340 hc        1 IAV      0.042533
     28 H152       -0.4990   -1.4160    5.0700 hc        1 IAV      0.042533
     29 H153       -0.5640   -2.2000    3.4430 hc        1 IAV      0.042533
     30 HC91        0.4980   -0.6160   -1.8690 hc        1 IAV      0.106200
     31 HC92        1.5550    0.3150   -0.6990 hc        1 IAV      0.106200
     32 HC1         4.1390   -0.5270   -0.3790 h4        1 IAV      0.233000
     33 HN1         5.5540   -2.2020   -1.6670 hn        1 IAV      0.310700
     34 HC6         5.2040   -4.3190   -3.5650 ha        1 IAV      0.137000
     35 HC3         0.3690   -2.9410   -3.0610 ha        1 IAV      0.134000
     36 HC4         1.0280   -4.7980   -4.5940 ha        1 IAV      0.134000
     37 HC5         3.3930   -5.4730   -4.8390 ha        1 IAV      0.135000
     38 H22         2.3480   -1.7420    1.0910 hn        1 IAV      0.464300
@<TRIPOS>BOND
     1    1    2 2   
     2    2    3 1   
     3    2   11 1   
     4    3    4 1   
     5    3   21 1   
     6    3   38 1   
     7    4    5 1   
     8    4    8 1   
     9    4   22 1   
    10    5    6 1   
    11    5    7 1   
    12    8    9 1   
    13    8   10 1   
    14    8   23 1   
    15    9   24 1   
    16    9   25 1   
    17    9   26 1   
    18   10   27 1   
    19   10   28 1   
    20   10   29 1   
    21   11   12 1   
    22   11   30 1   
    23   11   31 1   
    24   12   13 2   
    25   12   17 1   
    26   13   14 1   
    27   13   32 1   
    28   14   15 1   
    29   14   33 1   
    30   15   16 ar  
    31   15   17 ar  
    32   16   20 ar  
    33   16   34 1   
    34   17   18 ar  
    35   18   19 ar  
    36   18   35 1   
    37   19   20 ar  
    38   19   36 1   
    39   20   37 1   
@<TRIPOS>SUBSTRUCTURE
     1 IAV         1 TEMP              0 ****  ****    0 ROOT
