@<TRIPOS>MOLECULE
IAV
   37    32     1     0     0
SMALL
bcc


@<TRIPOS>ATOM
      1 O1         -1.1410   -0.1950    0.2830 o         1 IAV     -0.442000
      2 C10         0.0110   -0.5800    0.2880 c1        1 IAV      0.292000
      3 N2          0.7230   -0.6730    1.5110 n2        1 IAV     -0.326000
      4 C11         0.5120    0.2930    2.5290 c3        1 IAV     -0.057000
      5 C12         1.6380    1.3070    2.5030 c2        1 IAV      0.336000
      6 O2          1.3950    2.5230    2.7190 o         1 IAV     -0.566500
      7 O3          2.8180    0.9310    2.2740 o         1 IAV     -0.566500
      8 C13         0.4820   -0.3920    3.8750 c3        1 IAV     -0.100000
      9 C14         1.8730   -0.4050    4.4640 c3        1 IAV     -0.206000
     10 C15        -0.4490    0.3560    4.8000 c3        1 IAV     -0.206000
     11 C9          0.6960   -0.9360   -1.0140 c3        1 IAV     -0.112000
     12 C2         -0.3020   -0.8460   -2.1500 c2        1 IAV     -0.141000
     13 C1         -1.0820   -1.9640   -2.3670 c1        1 IAV     -0.050000
     14 N1         -1.8250   -1.7490   -3.4950 n2        1 IAV     -0.222000
     15 C8         -1.5080   -0.4940   -3.9840 c1        1 IAV     -0.009000
     16 C6         -1.9640    0.2210   -5.1050 c1        1 IAV     -0.131000
     17 C7         -0.5690    0.0610   -3.1530 c1        1 IAV     -0.069000
     18 C3         -0.0630    1.3440   -3.4220 c1        1 IAV     -0.131000
     19 C4         -0.5140    2.0500   -4.5290 c1        1 IAV     -0.131000
     20 C5         -1.4640    1.4880   -5.3700 c1        1 IAV     -0.131000
     21 HN2         1.3400   -1.3330    1.6310 hn        1 IAV      0.248000
     22 H11        -0.3390    0.7480    2.3760 h1        1 IAV      0.096000
     23 H13         0.1660   -1.3090    3.7670 hc        1 IAV      0.071000
     24 H141        2.2290    0.5070    4.4820 hc        1 IAV      0.070167
     25 H142        1.8380   -0.7600    5.3780 hc        1 IAV      0.070167
     26 H143        2.4550   -0.9720    3.9160 hc        1 IAV      0.070167
     27 H151       -0.5060   -0.1160    5.6580 hc        1 IAV      0.070167
     28 H152       -0.1050    1.2610    4.9470 hc        1 IAV      0.070167
     29 H153       -1.3390    0.4060    4.3950 hc        1 IAV      0.070167
     30 HC91        1.0470   -1.8470   -0.9590 hc        1 IAV      0.098500
     31 HC92        1.4320   -0.3120   -1.1760 hc        1 IAV      0.098500
     32 HC1        -1.1020   -2.7660   -1.8120 DU        1 IAV      0.221000
     33 HN1        -2.4240   -2.3320   -3.8610 DU        1 IAV      0.221000
     34 HC6        -2.6280   -0.1770   -5.7010 ha        1 IAV      0.123250
     35 HC3         0.6120    1.7350   -2.8360 ha        1 IAV      0.123250
     36 HC4        -0.1620    2.9410   -4.7160 ha        1 IAV      0.123250
     37 HC5        -1.7810    1.9840   -6.1490 ha        1 IAV      0.123250
@<TRIPOS>BOND
     1    1    2 1   
     2    2   11 1   
     3    3    4 1   
     4    3   21 1   
     5    4    5 1   
     6    4    8 1   
     7    4   22 1   
     8    5    6 1   
     9    5    7 1   
    10    8    9 1   
    11    8   10 1   
    12    8   23 1   
    13    9   24 1   
    14    9   25 1   
    15    9   26 1   
    16   10   27 1   
    17   10   28 1   
    18   10   29 1   
    19   11   12 1   
    20   11   30 1   
    21   11   31 1   
    22   12   13 1   
    23   12   17 1   
    24   13   14 1   
    25   14   15 1   
    26   15   17 1   
    27   16   20 1   
    28   16   34 1   
    29   18   19 1   
    30   18   35 1   
    31   19   36 1   
    32   20   37 1   
@<TRIPOS>SUBSTRUCTURE
     1 IAV         1 TEMP              0 ****  ****    0 ROOT
