@<TRIPOS>MOLECULE
IAV
   38    39     1     0     0
SMALL
bcc


@<TRIPOS>ATOM
      1 O1         -0.6240   -1.7170    0.1340 o         1 IAV     -0.474100
      2 C10         0.5480   -1.3560    0.1120 c         1 IAV      0.555100
      3 N2          1.3480   -1.5820    1.3510 n4        1 IAV     -0.662800
      4 C11         1.3510   -0.3770    2.2530 c3        1 IAV     -0.041500
      5 C12         2.7520    0.3740    2.1400 c         1 IAV      0.928600
      6 O2          3.6990   -0.3080    1.6560 o         1 IAV     -0.774300
      7 O3          2.7580    1.5540    2.5300 o         1 IAV     -0.774300
      8 C13         1.1020   -0.7310    3.7200 c3        1 IAV     -0.079700
      9 C14         2.0700   -1.7750    4.2320 c3        1 IAV     -0.107100
     10 C15        -0.3310   -1.1470    3.9660 c3        1 IAV     -0.107100
     11 C9          1.2760   -0.7130   -1.0460 c3        1 IAV     -0.049200
     12 C2          2.4190   -1.5200   -1.4750 cc        1 IAV     -0.255400
     13 C1          3.7570   -1.3220   -1.1010 cd        1 IAV     -0.035100
     14 N1          4.5670   -2.2430   -1.7480 na        1 IAV     -0.176400
     15 C8          3.7670   -3.0500   -2.5680 ca        1 IAV     -0.061200
     16 C6          4.1040   -4.1110   -3.4220 ca        1 IAV     -0.131000
     17 C7          2.3960   -2.6160   -2.4210 ca        1 IAV     -0.074800
     18 C3          1.3930   -3.2600   -3.1460 ca        1 IAV     -0.101000
     19 C4          1.7410   -4.3080   -3.9860 ca        1 IAV     -0.141000
     20 C5          3.0770   -4.7260   -4.1200 ca        1 IAV     -0.118000
     21 HN2         2.3480   -1.7440    1.0910 hn        1 IAV      0.464300
     22 H11         0.5470    0.3280    1.9010 hx        1 IAV      0.090700
     23 H13         1.2990    0.2380    4.2730 hc        1 IAV      0.110700
     24 H141        3.1050   -1.5500    3.8700 hc        1 IAV      0.042533
     25 H142        1.7830   -2.8010    3.8970 hc        1 IAV      0.042533
     26 H143        2.0740   -1.7710    5.3490 hc        1 IAV      0.042533
     27 H151       -0.5780   -2.1020    3.4420 hc        1 IAV      0.042533
     28 H152       -0.4960   -1.3020    5.0600 hc        1 IAV      0.042533
     29 H153       -1.0370   -0.3560    3.6130 hc        1 IAV      0.042533
     30 HC91        0.5320   -0.6030   -1.8840 hc        1 IAV      0.106200
     31 HC92        1.6110    0.3140   -0.7220 hc        1 IAV      0.106200
     32 HC1         4.1720   -0.5900   -0.3880 h4        1 IAV      0.233000
     33 HN1         5.5470   -2.3130   -1.6570 hn        1 IAV      0.310700
     34 HC6         5.1460   -4.4400   -3.5340 ha        1 IAV      0.137000
     35 HC3         0.3460   -2.9360   -3.0520 ha        1 IAV      0.134000
     36 HC4         0.9610   -4.8240   -4.5650 ha        1 IAV      0.134000
     37 HC5         3.3090   -5.5610   -4.7990 ha        1 IAV      0.135000
     38 H22         0.9890   -2.3920    1.8610 hn        1 IAV      0.464300
@<TRIPOS>BOND
     1    1    2 2   
     2    2    3 1   
     3    2   11 1   
     4    3    4 1   
     5    3   21 1   
     6    3   38 1   
     7    4    5 1   
     8    4    8 1   
     9    4   22 1   
    10    5    6 1   
    11    5    7 1   
    12    8    9 1   
    13    8   10 1   
    14    8   23 1   
    15    9   24 1   
    16    9   25 1   
    17    9   26 1   
    18   10   27 1   
    19   10   28 1   
    20   10   29 1   
    21   11   12 1   
    22   11   30 1   
    23   11   31 1   
    24   12   13 2   
    25   12   17 1   
    26   13   14 1   
    27   13   32 1   
    28   14   15 1   
    29   14   33 1   
    30   15   16 ar  
    31   15   17 ar  
    32   16   20 ar  
    33   16   34 1   
    34   17   18 ar  
    35   18   19 ar  
    36   18   35 1   
    37   19   20 ar  
    38   19   36 1   
    39   20   37 1   
@<TRIPOS>SUBSTRUCTURE
     1 IAV         1 TEMP              0 ****  ****    0 ROOT
