@<TRIPOS>MOLECULE
IAV
   38    39     1     0     0
SMALL
bcc


@<TRIPOS>ATOM
      1 O1         -0.6190   -1.7030    0.1220 o         1 IAV     -0.474100
      2 C10         0.5550   -1.3490    0.1160 c         1 IAV      0.555100
      3 N2          1.3400   -1.5910    1.3620 n4        1 IAV     -0.662800
      4 C11         1.3420   -0.3950    2.2740 c3        1 IAV     -0.041500
      5 C12         2.7510    0.3470    2.1850 c         1 IAV      0.928600
      6 O2          3.6970   -0.3390    1.7050 o         1 IAV     -0.774300
      7 O3          2.7610    1.5220    2.5870 o         1 IAV     -0.774300
      8 C13         1.0720   -0.7590    3.7350 c3        1 IAV     -0.079700
      9 C14         2.0260   -1.8160    4.2490 c3        1 IAV     -0.107100
     10 C15        -0.3670   -1.1660    3.9600 c3        1 IAV     -0.107100
     11 C9          1.2990   -0.7000   -1.0280 c3        1 IAV     -0.049200
     12 C2          2.4420   -1.5100   -1.4520 cc        1 IAV     -0.255400
     13 C1          3.7770   -1.3250   -1.0620 cd        1 IAV     -0.035100
     14 N1          4.5890   -2.2430   -1.7090 na        1 IAV     -0.176400
     15 C8          3.7930   -3.0370   -2.5460 ca        1 IAV     -0.061200
     16 C6          4.1330   -4.0920   -3.4060 ca        1 IAV     -0.131000
     17 C7          2.4230   -2.5960   -2.4090 ca        1 IAV     -0.074800
     18 C3          1.4230   -3.2270   -3.1520 ca        1 IAV     -0.101000
     19 C4          1.7740   -4.2680   -3.9980 ca        1 IAV     -0.141000
     20 C5          3.1090   -4.6940   -4.1220 ca        1 IAV     -0.118000
     21 HN2         2.3430   -1.7580    1.1110 hn        1 IAV      0.464300
     22 H11         0.5480    0.3200    1.9190 hx        1 IAV      0.090700
     23 H13         1.2710    0.2030    4.2990 hc        1 IAV      0.110700
     24 H141        1.7350   -2.8370    3.9020 hc        1 IAV      0.042533
     25 H142        2.0170   -1.8220    5.3660 hc        1 IAV      0.042533
     26 H143        3.0670   -1.5960    3.9020 hc        1 IAV      0.042533
     27 H151       -0.6150   -2.1140    3.4250 hc        1 IAV      0.042533
     28 H152       -0.5460   -1.3300    5.0510 hc        1 IAV      0.042533
     29 H153       -1.0620   -0.3660    3.6060 hc        1 IAV      0.042533
     30 HC91        0.5660   -0.5770   -1.8720 hc        1 IAV      0.105700
     31 HC92        1.6370    0.3210   -0.6910 hc        1 IAV      0.105700
     32 HC1         4.1890   -0.6020   -0.3370 h4        1 IAV      0.233000
     33 HN1         5.5670   -2.3210   -1.6080 hn        1 IAV      0.310700
     34 HC6         5.1730   -4.4270   -3.5100 ha        1 IAV      0.137000
     35 HC3         0.3780   -2.8970   -3.0660 ha        1 IAV      0.134000
     36 HC4         0.9970   -4.7740   -4.5910 ha        1 IAV      0.134000
     37 HC5         3.3440   -5.5240   -4.8060 ha        1 IAV      0.135000
     38 H22         0.9710   -2.4040    1.8610 hn        1 IAV      0.464300
@<TRIPOS>BOND
     1    1    2 2   
     2    2    3 1   
     3    2   11 1   
     4    3    4 1   
     5    3   21 1   
     6    3   38 1   
     7    4    5 1   
     8    4    8 1   
     9    4   22 1   
    10    5    6 1   
    11    5    7 1   
    12    8    9 1   
    13    8   10 1   
    14    8   23 1   
    15    9   24 1   
    16    9   25 1   
    17    9   26 1   
    18   10   27 1   
    19   10   28 1   
    20   10   29 1   
    21   11   12 1   
    22   11   30 1   
    23   11   31 1   
    24   12   13 2   
    25   12   17 1   
    26   13   14 1   
    27   13   32 1   
    28   14   15 1   
    29   14   33 1   
    30   15   16 ar  
    31   15   17 ar  
    32   16   20 ar  
    33   16   34 1   
    34   17   18 ar  
    35   18   19 ar  
    36   18   35 1   
    37   19   20 ar  
    38   19   36 1   
    39   20   37 1   
@<TRIPOS>SUBSTRUCTURE
     1 IAV         1 TEMP              0 ****  ****    0 ROOT
