@<TRIPOS>MOLECULE
IAV
   37    38     1     0     0
SMALL
bcc


@<TRIPOS>ATOM
      1 O1         48.2030   25.7780   11.0590 o         1 IAV     -0.643100
      2 C10        48.8860   26.0470   12.0730 c         1 IAV      0.642100
      3 N2         49.1220   27.3360   12.5000 n         1 IAV     -0.506900
      4 C11        49.0720   28.4630   11.5860 c3        1 IAV     -0.051300
      5 C12        50.4920   29.0550   11.2730 c         1 IAV      0.904600
      6 O2         50.5680   29.8690   10.3170 o         1 IAV     -0.839800
      7 O3         51.4780   28.6950   11.9850 o         1 IAV     -0.839800
      8 C13        48.1930   29.6160   12.1100 c3        1 IAV     -0.059700
      9 C14        48.6350   30.0870   13.4770 c3        1 IAV     -0.084100
     10 C15        46.7270   29.2450   12.1140 c3        1 IAV     -0.084100
     11 C9         49.3650   24.9050   12.9650 c3        1 IAV     -0.077200
     12 C2         50.8010   24.9100   13.2630 cc        1 IAV     -0.186400
     13 C1         51.7940   25.7850   12.8150 cd        1 IAV     -0.059100
     14 N1         53.0350   25.4020   13.3250 na        1 IAV     -0.186400
     15 C8         52.8590   24.2830   14.1420 ca        1 IAV     -0.060200
     16 C6         53.7760   23.5290   14.8870 ca        1 IAV     -0.146000
     17 C7         51.4530   23.9320   14.1130 ca        1 IAV     -0.077800
     18 C3         51.0130   22.8240   14.8360 ca        1 IAV     -0.093000
     19 C4         51.9340   22.0870   15.5700 ca        1 IAV     -0.169000
     20 C5         53.2940   22.4370   15.5940 ca        1 IAV     -0.135000
     21 HN2        49.8310   27.4440   13.1990 hn        1 IAV      0.307500
     22 H11        48.6340   28.1120   10.6060 h1        1 IAV      0.076700
     23 H13        48.3520   30.4580   11.3740 hc        1 IAV      0.071700
     24 H141       48.3440   29.3560   14.2690 hc        1 IAV      0.024533
     25 H142       48.1610   31.0690   13.7200 hc        1 IAV      0.024533
     26 H143       49.7470   30.2060   13.4920 hc        1 IAV      0.024533
     27 H151       46.1060   30.1250   12.4120 hc        1 IAV      0.024533
     28 H152       46.5280   28.4160   12.8350 hc        1 IAV      0.024533
     29 H153       46.4080   28.9110   11.0980 hc        1 IAV      0.024533
     30 HC91       49.0950   23.9440   12.4460 hc        1 IAV      0.059700
     31 HC92       48.7820   24.9420   13.9260 hc        1 IAV      0.059700
     32 HC1        51.7210   26.6860   12.1730 h4        1 IAV      0.249000
     33 HN1        53.8640   25.9280   13.2450 hn        1 IAV      0.301700
     34 HC6        54.8400   23.7950   14.9110 ha        1 IAV      0.122000
     35 HC3        49.9500   22.5450   14.8180 ha        1 IAV      0.126000
     36 HC4        51.5970   21.2130   16.1440 ha        1 IAV      0.114000
     37 HC5        53.9910   21.8290   16.1890 ha        1 IAV      0.114000
@<TRIPOS>BOND
     1    1    2 2   
     2    2    3 1   
     3    2   11 1   
     4    3    4 1   
     5    3   21 1   
     6    4    5 1   
     7    4    8 1   
     8    4   22 1   
     9    5    6 1   
    10    5    7 1   
    11    8    9 1   
    12    8   10 1   
    13    8   23 1   
    14    9   24 1   
    15    9   25 1   
    16    9   26 1   
    17   10   27 1   
    18   10   28 1   
    19   10   29 1   
    20   11   12 1   
    21   11   30 1   
    22   11   31 1   
    23   12   13 2   
    24   12   17 1   
    25   13   14 1   
    26   13   32 1   
    27   14   15 1   
    28   14   33 1   
    29   15   16 ar  
    30   15   17 ar  
    31   16   20 ar  
    32   16   34 1   
    33   17   18 ar  
    34   18   19 ar  
    35   18   35 1   
    36   19   20 ar  
    37   19   36 1   
    38   20   37 1   
@<TRIPOS>SUBSTRUCTURE
     1 IAV         1 TEMP              0 ****  ****    0 ROOT
