@<TRIPOS>MOLECULE
IB
   60    48     1     0     0
SMALL
bcc


@<TRIPOS>ATOM
      1 CYT        -4.0600   -1.9790   -8.7830 c1        1 IB       0.142000
      2 C1         -2.6930   -1.3990   -6.4710 c1        1 IB      -0.055750
      3 C2         -3.4740   -3.0160   -8.0680 c1        1 IB      -0.113250
      4 C3         -2.8040   -2.7530   -6.9400 c1        1 IB      -0.113250
      5 C4         -3.9520   -0.6940   -8.3350 c1        1 IB      -0.303000
      6 C5         -3.2520   -0.4160   -7.1550 c1        1 IB      -0.066000
      7 O          -4.9260   -2.2750   -9.9300 os        1 IB      -0.193000
      8 C6         -1.9300   -1.1050   -5.3120 c1        1 IB       0.097500
      9 C7         -1.1560   -0.6650   -3.3170 c1        1 IB      -0.042000
     10 C8         -0.1330   -0.5750   -4.1970 c1        1 IB      -0.042000
     11 C9          1.2020   -0.2620   -3.7260 c1        1 IB      -0.113250
     12 C10         1.4320   -0.0550   -2.3760 c1        1 IB      -0.113250
     13 C11         0.3410   -0.1500   -1.4300 c1        1 IB      -0.055750
     14 C12        -0.9060   -0.4410   -1.8610 c1        1 IB      -0.066000
     15 N1         -2.2650   -0.9920   -4.0050 n1        1 IB      -0.183500
     16 N2         -0.6150   -0.8470   -5.4280 n1        1 IB      -0.183500
     17 C13         0.6270    0.2410   -0.1330 c1        1 IB       0.097500
     18 C14         1.1820    0.3810    2.0060 c1        1 IB      -0.055750
     19 C15         0.7010    1.5860    1.6060 c1        1 IB      -0.055750
     20 C16         0.6370    2.6680    2.5300 c1        1 IB      -0.066000
     21 C17         1.0730    2.4840    3.8670 c1        1 IB      -0.177000
     22 C18         1.5670    1.2410    4.2770 c1        1 IB      -0.036000
     23 C19         1.6300    0.1940    3.3810 c1        1 IB      -0.066000
     24 N3          1.1400   -0.4580    0.9400 n1        1 IB      -0.183500
     25 N4          0.3590    1.4830    0.2670 n1        1 IB      -0.183500
     26 N6          1.9680    0.7670    5.5580 n3        1 IB      -0.218000
     27 N7          2.5950    1.3370    8.3580 n4        1 IB      -0.004000
     28 C20         0.9050    1.0150    6.5060 c3        1 IB      -0.091000
     29 C21         1.3190    0.6810    7.9620 c3        1 IB      -0.131000
     30 C22         3.6630    1.0860    7.4100 c3        1 IB      -0.131000
     31 C23         3.2480    1.4240    5.9500 c3        1 IB      -0.091000
     32 C24         2.9670    0.8620    9.5860 c3        1 IB      -0.192000
     33 I          -4.8840    0.9110   -9.4520 i         1 IB       0.179000
     34 CN2        -4.2310   -2.3650  -11.1510 c3        1 IB      -0.080000
     35 H2         -3.5530   -3.9910   -8.4080 ha        1 IB       0.149750
     36 H3         -2.3850   -3.4930   -6.4280 ha        1 IB       0.149750
     37 H5         -3.1800    0.4750   -6.8470 ha        1 IB       0.153750
     38 H9          1.9430   -0.1980   -4.3630 ha        1 IB       0.149750
     39 H10         2.3090    0.1540   -2.0720 ha        1 IB       0.149750
     40 H12        -1.7120   -0.5060   -1.1610 ha        1 IB       0.153750
     41 HN1        -3.1080   -1.0710   -3.6580 DU        1 IB       0.265500
     42 H16         0.2790    3.5850    2.2260 ha        1 IB       0.153750
     43 H17         1.0240    3.2240    4.5040 ha        1 IB       0.123000
     44 H19         1.9990   -0.7330    3.6870 ha        1 IB       0.153750
     45 HN3         1.4780   -1.3170    0.9130 DU        1 IB       0.265500
     46 HN7         2.4620    2.2210    8.4170 hn        1 IB       0.241000
     47 H201        0.6370    2.0180    6.4500 h1        1 IB       0.120000
     48 H202        0.1260    0.4630    6.2650 h1        1 IB       0.120000
     49 H211        1.4270   -0.3320    8.0500 hx        1 IB       0.147000
     50 H212        0.5760    0.9950    8.5980 hx        1 IB       0.147000
     51 H221        3.9120    0.1630    7.4580 hx        1 IB       0.147000
     52 H222        4.4400    1.6380    7.6490 hx        1 IB       0.147000
     53 H231        3.9340    1.1390    5.3620 h1        1 IB       0.120000
     54 H232        3.1350    2.4770    5.8630 h1        1 IB       0.120000
     55 H241        2.3010    1.1080   10.2420 hx        1 IB       0.144000
     56 H242        3.0380   -0.0580    9.5520 hx        1 IB       0.144000
     57 H243        3.8520    1.2570    9.8440 hx        1 IB       0.144000
     58 HN21       -3.8360   -3.2240  -11.2240 h1        1 IB       0.093333
     59 HN22       -4.8390   -2.2290  -11.8770 h1        1 IB       0.093333
     60 HN23       -3.5340   -1.6840  -11.1800 h1        1 IB       0.093333
@<TRIPOS>BOND
     1    1    5 1   
     2    1    7 1   
     3    2    6 1   
     4    3    4 1   
     5    3   35 1   
     6    4   36 1   
     7    5   33 1   
     8    6   37 1   
     9    7   34 1   
    10    8   15 1   
    11    8   16 1   
    12    9   10 1   
    13   11   12 1   
    14   11   38 1   
    15   12   39 1   
    16   13   14 1   
    17   14   40 1   
    18   17   24 1   
    19   17   25 1   
    20   18   23 1   
    21   19   20 1   
    22   20   42 1   
    23   21   22 1   
    24   21   43 1   
    25   22   26 1   
    26   23   44 1   
    27   26   28 1   
    28   26   31 1   
    29   27   29 1   
    30   27   30 1   
    31   27   32 1   
    32   27   46 1   
    33   28   29 1   
    34   28   47 1   
    35   28   48 1   
    36   29   49 1   
    37   29   50 1   
    38   30   31 1   
    39   30   51 1   
    40   30   52 1   
    41   31   53 1   
    42   31   54 1   
    43   32   55 1   
    44   32   56 1   
    45   32   57 1   
    46   34   58 1   
    47   34   59 1   
    48   34   60 1   
@<TRIPOS>SUBSTRUCTURE
     1 IB          1 TEMP              0 ****  ****    0 ROOT
