@<TRIPOS>MOLECULE
IB
   60    65     1     0     0
SMALL
bcc


@<TRIPOS>ATOM
      1 CYT        -0.0780    0.0990   -0.0130 ca        1 IB       0.187100
      2 C1          1.3760   -0.0100    2.3720 ca        1 IB      -0.175900
      3 C2          1.2510   -0.3560   -0.0180 ca        1 IB      -0.217000
      4 C3          1.9720   -0.4110    1.1680 ca        1 IB      -0.025000
      5 C4         -0.6900    0.4950    1.1940 ca        1 IB      -0.017100
      6 C5          0.0470    0.4310    2.3740 ca        1 IB      -0.051000
      7 O          -0.8510    0.1870   -1.1460 os        1 IB      -0.309900
      8 C6          2.1480   -0.0730    3.6140 cc        1 IB       0.502400
      9 C7          2.8380    0.4990    5.6830 ca        1 IB      -0.086200
     10 C8          3.5830   -0.6440    5.1780 ca        1 IB       0.096400
     11 C9          4.5810   -1.2190    5.9790 ca        1 IB      -0.072000
     12 C10         4.8160   -0.6780    7.2320 ca        1 IB      -0.139000
     13 C11         4.0790    0.4260    7.7170 ca        1 IB      -0.133900
     14 C12         3.0850    1.0350    6.9500 ca        1 IB      -0.070000
     15 N1          1.9320    0.8380    4.6760 na        1 IB      -0.273300
     16 N2          3.1260   -0.9710    3.8920 nd        1 IB      -0.565100
     17 C13         4.3610    0.9600    9.0520 cc        1 IB       0.511400
     18 C14         4.9510    0.9450   11.2300 ca        1 IB      -0.081200
     19 C15         4.6100    2.2880   10.7860 ca        1 IB       0.093400
     20 C16         4.6860    3.3490   11.6990 ca        1 IB      -0.056000
     21 C17         5.0830    3.0790   12.9970 ca        1 IB      -0.177000
     22 C18         5.4150    1.7660   13.4250 ca        1 IB       0.045600
     23 C19         5.3520    0.6800   12.5420 ca        1 IB      -0.087000
     24 N3          4.7850    0.1240   10.1150 na        1 IB      -0.273300
     25 N4          4.2480    2.2580    9.4300 nd        1 IB      -0.563100
     26 N6          5.8270    1.5000   14.7790 nh        1 IB      -0.617000
     27 N7          6.5130    1.9960   17.5740 n4        1 IB      -0.683400
     28 C20         4.7840    1.7770   15.7560 c3        1 IB       0.146300
     29 C21         5.2150    1.3550   17.1730 c3        1 IB       0.105800
     30 C22         7.5610    1.7340   16.5310 c3        1 IB       0.105800
     31 C23         7.0850    2.1480   15.1260 c3        1 IB       0.146300
     32 C24         6.9540    1.5240   18.9080 c3        1 IB       0.084100
     33 I          -2.5990    1.1530    1.3130 i         1 IB      -0.106900
     34 CN2        -0.2520   -0.2360   -2.3690 c3        1 IB       0.109700
     35 H2          1.7310   -0.6730   -0.9560 ha        1 IB       0.152000
     36 H3          3.0130   -0.7740    1.1590 ha        1 IB       0.162000
     37 H5         -0.4360    0.7180    3.3220 ha        1 IB       0.143000
     38 H9          5.1620   -2.0770    5.6100 ha        1 IB       0.158000
     39 H10         5.6170   -1.1130    7.8490 ha        1 IB       0.128000
     40 H12         2.5230    1.9030    7.3240 ha        1 IB       0.160000
     41 HN1         1.3120    1.6030    4.6750 hn        1 IB       0.314700
     42 H16         4.4340    4.3730   11.3820 ha        1 IB       0.162000
     43 H17         5.1430    3.9130   13.7130 ha        1 IB       0.123000
     44 H19         5.6060   -0.3410   12.8620 ha        1 IB       0.150000
     45 HN3         4.9160   -0.8520   10.0730 hn        1 IB       0.316700
     46 HN7         6.3600    3.0120   17.6160 hn        1 IB       0.444800
     47 H201        4.4730    2.8620   15.7710 h1        1 IB       0.080700
     48 H202        3.8780    1.1610   15.4830 h1        1 IB       0.080700
     49 H211        4.4240    1.6650   17.9120 hx        1 IB       0.107700
     50 H212        5.3520    0.2380   17.2210 hx        1 IB       0.107700
     51 H221        7.8010    0.6330   16.5500 hx        1 IB       0.107700
     52 H222        8.4830    2.3200   16.8010 hx        1 IB       0.107700
     53 H231        7.0270    3.2750   15.0720 h1        1 IB       0.080700
     54 H232        7.8690    1.8060   14.3910 h1        1 IB       0.080700
     55 H241        7.1250    0.4140   18.8780 hx        1 IB       0.104700
     56 H242        7.9100    2.0420   19.1870 hx        1 IB       0.104700
     57 H243        6.1600    1.7590   19.6660 hx        1 IB       0.104700
     58 HN21        0.6340    0.3990   -2.6130 h1        1 IB       0.054033
     59 HN22       -1.0710   -0.0790   -3.1180 h1        1 IB       0.054033
     60 HN23        0.0340   -1.3140   -2.3160 h1        1 IB       0.054033
@<TRIPOS>BOND
     1    1    3 ar  
     2    1    5 ar  
     3    1    7 1   
     4    2    4 ar  
     5    2    6 ar  
     6    2    8 1   
     7    3    4 ar  
     8    3   35 1   
     9    4   36 1   
    10    5    6 ar  
    11    5   33 1   
    12    6   37 1   
    13    7   34 1   
    14    8   15 1   
    15    8   16 2   
    16    9   10 ar  
    17    9   14 ar  
    18    9   15 1   
    19   10   11 ar  
    20   10   16 1   
    21   11   12 ar  
    22   11   38 1   
    23   12   13 ar  
    24   12   39 1   
    25   13   14 ar  
    26   13   17 1   
    27   14   40 1   
    28   15   41 1   
    29   17   24 1   
    30   17   25 2   
    31   18   19 ar  
    32   18   23 ar  
    33   18   24 1   
    34   19   20 ar  
    35   19   25 1   
    36   20   21 ar  
    37   20   42 1   
    38   21   22 ar  
    39   21   43 1   
    40   22   23 ar  
    41   22   26 1   
    42   23   44 1   
    43   24   45 1   
    44   26   28 1   
    45   26   31 1   
    46   27   29 1   
    47   27   30 1   
    48   27   32 1   
    49   27   46 1   
    50   28   29 1   
    51   28   47 1   
    52   28   48 1   
    53   29   49 1   
    54   29   50 1   
    55   30   31 1   
    56   30   51 1   
    57   30   52 1   
    58   31   53 1   
    59   31   54 1   
    60   32   55 1   
    61   32   56 1   
    62   32   57 1   
    63   34   58 1   
    64   34   59 1   
    65   34   60 1   
@<TRIPOS>SUBSTRUCTURE
     1 IB          1 TEMP              0 ****  ****    0 ROOT
