@<TRIPOS>MOLECULE
IB
   60    65     1     0     0
SMALL
bcc


@<TRIPOS>ATOM
      1 CYT         7.0770    0.9380   -0.5200 ca        1 IB       0.187100
      2 C1          4.3230    1.2460   -0.1470 ca        1 IB      -0.175900
      3 C2          6.5410    2.2060   -0.2370 ca        1 IB      -0.217000
      4 C3          5.1730    2.3570   -0.0500 ca        1 IB      -0.025000
      5 C4          6.2320   -0.1870   -0.6110 ca        1 IB      -0.017100
      6 C5          4.8630   -0.0170   -0.4190 ca        1 IB      -0.051000
      7 O           8.4170    0.7130   -0.7240 os        1 IB      -0.309900
      8 C6          2.8840    1.4200    0.0520 cc        1 IB       0.502400
      9 C7          0.6730    1.0540   -0.2060 ca        1 IB      -0.086200
     10 C8          0.9210    2.1440    0.7270 ca        1 IB       0.096400
     11 C9         -0.1700    2.8010    1.3160 ca        1 IB      -0.072000
     12 C10        -1.4490    2.3810    0.9920 ca        1 IB      -0.139000
     13 C11        -1.6770    1.3140    0.0930 ca        1 IB      -0.133900
     14 C12        -0.6230    0.6400   -0.5240 ca        1 IB      -0.070000
     15 N1          1.9320    0.6100   -0.6140 na        1 IB      -0.273300
     16 N2          2.3040    2.3410    0.8620 nd        1 IB      -0.565100
     17 C13        -3.0490    0.9020   -0.2140 cc        1 IB       0.511400
     18 C14        -5.2450    0.5120    0.1340 ca        1 IB      -0.081200
     19 C15        -4.8510    0.1410   -1.2180 ca        1 IB       0.093400
     20 C16        -5.8170   -0.3760   -2.0920 ca        1 IB      -0.056000
     21 C17        -7.1150   -0.5180   -1.6360 ca        1 IB      -0.177000
     22 C18        -7.4940   -0.1550   -0.3160 ca        1 IB       0.045600
     23 C19        -6.5590    0.3670    0.5870 ca        1 IB      -0.087000
     24 N3         -4.0870    0.9900    0.7480 na        1 IB      -0.273300
     25 N4         -3.4830    0.3970   -1.3960 nd        1 IB      -0.563100
     26 N6         -8.8500   -0.3070    0.1440 nh        1 IB      -0.617000
     27 N7        -11.6940   -0.9690    0.0970 n4        1 IB      -0.683400
     28 C20        -9.2840   -1.6970    0.1820 c3        1 IB       0.146300
     29 C21       -10.6870   -1.8300    0.8040 c3        1 IB       0.105800
     30 C22       -11.2040    0.4490    0.0310 c3        1 IB       0.105800
     31 C23        -9.7920    0.5380   -0.5760 c3        1 IB       0.146300
     32 C24       -13.0210   -1.0490    0.7510 c3        1 IB       0.084100
     33 I           6.9010   -2.0550   -1.0030 i         1 IB      -0.106900
     34 CN2         9.2840    1.8390   -0.6090 c3        1 IB       0.109700
     35 H2          7.1960    3.0860   -0.1580 ha        1 IB       0.152000
     36 H3          4.7590    3.3530    0.1770 ha        1 IB       0.162000
     37 H5          4.2020   -0.8990   -0.4660 ha        1 IB       0.143000
     38 H9         -0.0030    3.6340    2.0150 ha        1 IB       0.158000
     39 H10        -2.3040    2.9140    1.4350 ha        1 IB       0.128000
     40 H12        -0.8040   -0.1810   -1.2330 ha        1 IB       0.160000
     41 HN1         2.1220   -0.0850   -1.2860 hn        1 IB       0.314700
     42 H16        -5.5400   -0.6610   -3.1190 ha        1 IB       0.162000
     43 H17        -7.8730   -0.9250   -2.3240 ha        1 IB       0.123000
     44 H19        -6.8400    0.6510    1.6110 ha        1 IB       0.150000
     45 HN3        -3.9970    1.3080    1.6760 hn        1 IB       0.316700
     46 HN7       -11.7780   -1.3150   -0.8680 hn        1 IB       0.444800
     47 H201       -9.2830   -2.1850   -0.8360 h1        1 IB       0.080700
     48 H202       -8.5690   -2.2680    0.8410 h1        1 IB       0.080700
     49 H211      -11.0270   -2.9010    0.7350 hx        1 IB       0.107700
     50 H212      -10.6640   -1.5160    1.8860 hx        1 IB       0.107700
     51 H221      -11.9220    1.0420   -0.6020 hx        1 IB       0.107700
     52 H222      -11.2040    0.8630    1.0790 hx        1 IB       0.107700
     53 H231       -9.4490    1.6080   -0.4730 h1        1 IB       0.080700
     54 H232       -9.8460    0.2960   -1.6770 h1        1 IB       0.080700
     55 H241      -12.9450   -0.6740    1.8070 hx        1 IB       0.104700
     56 H242      -13.7550   -0.4160    0.1820 hx        1 IB       0.104700
     57 H243      -13.3680   -2.1170    0.7580 hx        1 IB       0.104700
     58 HN21       10.2960    1.3970   -0.8030 h1        1 IB       0.054033
     59 HN22        9.0350    2.6070   -1.3800 h1        1 IB       0.054033
     60 HN23        9.2320    2.2730    0.4180 h1        1 IB       0.054033
@<TRIPOS>BOND
     1    1    3 ar  
     2    1    5 ar  
     3    1    7 1   
     4    2    4 ar  
     5    2    6 ar  
     6    2    8 1   
     7    3    4 ar  
     8    3   35 1   
     9    4   36 1   
    10    5    6 ar  
    11    5   33 1   
    12    6   37 1   
    13    7   34 1   
    14    8   15 1   
    15    8   16 2   
    16    9   10 ar  
    17    9   14 ar  
    18    9   15 1   
    19   10   11 ar  
    20   10   16 1   
    21   11   12 ar  
    22   11   38 1   
    23   12   13 ar  
    24   12   39 1   
    25   13   14 ar  
    26   13   17 1   
    27   14   40 1   
    28   15   41 1   
    29   17   24 1   
    30   17   25 2   
    31   18   19 ar  
    32   18   23 ar  
    33   18   24 1   
    34   19   20 ar  
    35   19   25 1   
    36   20   21 ar  
    37   20   42 1   
    38   21   22 ar  
    39   21   43 1   
    40   22   23 ar  
    41   22   26 1   
    42   23   44 1   
    43   24   45 1   
    44   26   28 1   
    45   26   31 1   
    46   27   29 1   
    47   27   30 1   
    48   27   32 1   
    49   27   46 1   
    50   28   29 1   
    51   28   47 1   
    52   28   48 1   
    53   29   49 1   
    54   29   50 1   
    55   30   31 1   
    56   30   51 1   
    57   30   52 1   
    58   31   53 1   
    59   31   54 1   
    60   32   55 1   
    61   32   56 1   
    62   32   57 1   
    63   34   58 1   
    64   34   59 1   
    65   34   60 1   
@<TRIPOS>SUBSTRUCTURE
     1 IB          1 TEMP              0 ****  ****    0 ROOT
