@<TRIPOS>MOLECULE
IB
   60    65     1     0     0
SMALL
bcc


@<TRIPOS>ATOM
      1 CYT        -0.0620    0.1200   -0.0210 ca        1 IB       0.187100
      2 C1          1.3740   -0.0130    2.3740 ca        1 IB      -0.175900
      3 C2          1.2440   -0.3980   -0.0100 ca        1 IB      -0.217000
      4 C3          1.9560   -0.4650    1.1810 ca        1 IB      -0.025000
      5 C4         -0.6600    0.5680    1.1750 ca        1 IB      -0.017100
      6 C5          0.0670    0.4910    2.3600 ca        1 IB      -0.051000
      7 O          -0.8230    0.2240   -1.1600 os        1 IB      -0.309900
      8 C6          2.1350   -0.0900    3.6210 cc        1 IB       0.502400
      9 C7          2.8410    0.4870    5.6840 ca        1 IB      -0.086200
     10 C8          3.5340   -0.6990    5.2040 ca        1 IB       0.096400
     11 C9          4.4990   -1.3060    6.0210 ca        1 IB      -0.072000
     12 C10         4.7540   -0.7530    7.2660 ca        1 IB      -0.139000
     13 C11         4.0670    0.3930    7.7260 ca        1 IB      -0.133900
     14 C12         3.1080    1.0340    6.9420 ca        1 IB      -0.070000
     15 N1          1.9580    0.8500    4.6660 na        1 IB      -0.273300
     16 N2          3.0680   -1.0280    3.9210 nd        1 IB      -0.565100
     17 C13         4.3670    0.9380    9.0530 cc        1 IB       0.511400
     18 C14         4.9450    0.9350   11.2350 ca        1 IB      -0.081200
     19 C15         4.6700    2.2840   10.7640 ca        1 IB       0.093400
     20 C16         4.7900    3.3570   11.6580 ca        1 IB      -0.056000
     21 C17         5.1680    3.0930   12.9630 ca        1 IB      -0.177000
     22 C18         5.4360    1.7740   13.4170 ca        1 IB       0.045600
     23 C19         5.3270    0.6750   12.5530 ca        1 IB      -0.087000
     24 N3          4.7470    0.1020   10.1330 na        1 IB      -0.273300
     25 N4          4.3140    2.2460    9.4070 nd        1 IB      -0.563100
     26 N6          5.8290    1.5140   14.7780 nh        1 IB      -0.617000
     27 N7          6.5220    2.0280   17.5670 n4        1 IB      -0.683400
     28 C20         4.7950    1.8560   15.7430 c3        1 IB       0.146300
     29 C21         5.1980    1.4410   17.1700 c3        1 IB       0.105800
     30 C22         7.5620    1.6990   16.5350 c3        1 IB       0.105800
     31 C23         7.1130    2.1090   15.1210 c3        1 IB       0.146300
     32 C24         6.9340    1.5600   18.9120 c3        1 IB       0.084100
     33 I          -2.5360    1.3180    1.2700 i         1 IB      -0.106900
     34 CN2        -0.2390   -0.2500   -2.3720 c3        1 IB       0.109700
     35 H2          1.7130   -0.7550   -0.9380 ha        1 IB       0.152000
     36 H3          2.9780   -0.8770    1.1850 ha        1 IB       0.162000
     37 H5         -0.4060    0.8180    3.3000 ha        1 IB       0.143000
     38 H9          5.0410   -2.1970    5.6720 ha        1 IB       0.158000
     39 H10         5.5290   -1.2150    7.8950 ha        1 IB       0.128000
     40 H12         2.5850    1.9340    7.2970 ha        1 IB       0.160000
     41 HN1         1.3740    1.6430    4.6470 hn        1 IB       0.314700
     42 H16         4.5880    4.3850   11.3210 ha        1 IB       0.162000
     43 H17         5.2630    3.9360   13.6650 ha        1 IB       0.123000
     44 H19         5.5320   -0.3500   12.8930 ha        1 IB       0.150000
     45 HN3         4.8320   -0.8790   10.1100 hn        1 IB       0.316700
     46 HN7         6.4170    3.0500   17.5900 hn        1 IB       0.445800
     47 H201        3.8630    1.2780   15.4760 h1        1 IB       0.080700
     48 H202        4.5350    2.9550   15.7370 h1        1 IB       0.080700
     49 H211        5.2830    0.3190   17.2390 hx        1 IB       0.107700
     50 H212        4.4190    1.8000   17.8990 hx        1 IB       0.107700
     51 H221        7.7510    0.5890   16.5760 hx        1 IB       0.107700
     52 H222        8.5100    2.2470   16.8010 hx        1 IB       0.107700
     53 H231        7.8840    1.7180   14.3960 h1        1 IB       0.080700
     54 H232        7.1080    3.2360   15.0460 h1        1 IB       0.080700
     55 H241        7.9120    2.0390   19.1880 hx        1 IB       0.104700
     56 H242        7.0540    0.4440   18.9040 hx        1 IB       0.104700
     57 H243        6.1490    1.8460   19.6620 hx        1 IB       0.104700
     58 HN21       -1.0460   -0.0690   -3.1270 h1        1 IB       0.054033
     59 HN22        0.6770    0.3370   -2.6220 h1        1 IB       0.054033
     60 HN23       -0.0050   -1.3400   -2.2960 h1        1 IB       0.054033
@<TRIPOS>BOND
     1    1    3 ar  
     2    1    5 ar  
     3    1    7 1   
     4    2    4 ar  
     5    2    6 ar  
     6    2    8 1   
     7    3    4 ar  
     8    3   35 1   
     9    4   36 1   
    10    5    6 ar  
    11    5   33 1   
    12    6   37 1   
    13    7   34 1   
    14    8   15 1   
    15    8   16 2   
    16    9   10 ar  
    17    9   14 ar  
    18    9   15 1   
    19   10   11 ar  
    20   10   16 1   
    21   11   12 ar  
    22   11   38 1   
    23   12   13 ar  
    24   12   39 1   
    25   13   14 ar  
    26   13   17 1   
    27   14   40 1   
    28   15   41 1   
    29   17   24 1   
    30   17   25 2   
    31   18   19 ar  
    32   18   23 ar  
    33   18   24 1   
    34   19   20 ar  
    35   19   25 1   
    36   20   21 ar  
    37   20   42 1   
    38   21   22 ar  
    39   21   43 1   
    40   22   23 ar  
    41   22   26 1   
    42   23   44 1   
    43   24   45 1   
    44   26   28 1   
    45   26   31 1   
    46   27   29 1   
    47   27   30 1   
    48   27   32 1   
    49   27   46 1   
    50   28   29 1   
    51   28   47 1   
    52   28   48 1   
    53   29   49 1   
    54   29   50 1   
    55   30   31 1   
    56   30   51 1   
    57   30   52 1   
    58   31   53 1   
    59   31   54 1   
    60   32   55 1   
    61   32   56 1   
    62   32   57 1   
    63   34   58 1   
    64   34   59 1   
    65   34   60 1   
@<TRIPOS>SUBSTRUCTURE
     1 IB          1 TEMP              0 ****  ****    0 ROOT
