@<TRIPOS>MOLECULE
IB
   60    65     1     0     0
SMALL
bcc


@<TRIPOS>ATOM
      1 CYT        -0.0580    0.1100   -0.0230 ca        1 IB       0.187100
      2 C1          1.3760   -0.0200    2.3740 ca        1 IB      -0.175900
      3 C2          1.2480   -0.4060   -0.0110 ca        1 IB      -0.217000
      4 C3          1.9590   -0.4710    1.1810 ca        1 IB      -0.025000
      5 C4         -0.6580    0.5580    1.1720 ca        1 IB      -0.017100
      6 C5          0.0690    0.4820    2.3580 ca        1 IB      -0.051000
      7 O          -0.8190    0.2120   -1.1630 os        1 IB      -0.309900
      8 C6          2.1360   -0.0950    3.6210 cc        1 IB       0.502400
      9 C7          2.8410    0.4840    5.6840 ca        1 IB      -0.086200
     10 C8          3.5350   -0.7020    5.2050 ca        1 IB       0.096400
     11 C9          4.5010   -1.3060    6.0230 ca        1 IB      -0.072000
     12 C10         4.7540   -0.7540    7.2680 ca        1 IB      -0.139000
     13 C11         4.0650    0.3920    7.7270 ca        1 IB      -0.133900
     14 C12         3.1050    1.0320    6.9420 ca        1 IB      -0.070000
     15 N1          1.9570    0.8450    4.6650 na        1 IB      -0.273300
     16 N2          3.0710   -1.0320    3.9220 nd        1 IB      -0.565100
     17 C13         4.3630    0.9380    9.0540 cc        1 IB       0.511400
     18 C14         4.9400    0.9360   11.2360 ca        1 IB      -0.081200
     19 C15         4.6620    2.2850   10.7650 ca        1 IB       0.093400
     20 C16         4.7810    3.3580   11.6590 ca        1 IB      -0.056000
     21 C17         5.1580    3.0950   12.9640 ca        1 IB      -0.177000
     22 C18         5.4270    1.7760   13.4190 ca        1 IB       0.045600
     23 C19         5.3200    0.6780   12.5560 ca        1 IB      -0.087000
     24 N3          4.7430    0.1030   10.1350 na        1 IB      -0.273300
     25 N4          4.3080    2.2460    9.4080 nd        1 IB      -0.563100
     26 N6          5.8190    1.5180   14.7800 nh        1 IB      -0.617000
     27 N7          6.5090    2.0330   17.5700 nx        1 IB      -0.683400
     28 C20         4.7830    1.8580   15.7450 c3        1 IB       0.146300
     29 C21         5.1860    1.4440   17.1720 c3        1 IB       0.105800
     30 C22         7.5510    1.7060   16.5390 c3        1 IB       0.105800
     31 C23         7.1020    2.1150   15.1240 c3        1 IB       0.146300
     32 C24         6.9200    1.5660   18.9150 c3        1 IB       0.084100
     33 I          -2.5340    1.3060    1.2660 i         1 IB      -0.106900
     34 CN2        -0.2340   -0.2620   -2.3730 c3        1 IB       0.109700
     35 H2          1.7190   -0.7630   -0.9380 ha        1 IB       0.152000
     36 H3          2.9830   -0.8820    1.1860 ha        1 IB       0.162000
     37 H5         -0.4060    0.8100    3.2980 ha        1 IB       0.143000
     38 H9          5.0440   -2.1970    5.6750 ha        1 IB       0.158000
     39 H10         5.5290   -1.2130    7.8980 ha        1 IB       0.128000
     40 H12         2.5810    1.9310    7.2970 ha        1 IB       0.160000
     41 HN1         1.3720    1.6370    4.6460 hn        1 IB       0.314700
     42 H16         4.5780    4.3860   11.3220 ha        1 IB       0.162000
     43 H17         5.2510    3.9390   13.6650 ha        1 IB       0.123000
     44 H19         5.5260   -0.3470   12.8960 ha        1 IB       0.150000
     45 HN3         4.8300   -0.8780   10.1120 hn        1 IB       0.316700
     46 HN7         6.4010    3.0550   17.5930 hn        1 IB       0.444800
     47 H201        3.8530    1.2780   15.4760 h1        1 IB       0.080700
     48 H202        4.5210    2.9560   15.7370 h1        1 IB       0.080700
     49 H211        4.4060    1.8010   17.9000 hx        1 IB       0.107700
     50 H212        5.2730    0.3220   17.2410 hx        1 IB       0.107700
     51 H221        7.7410    0.5960   16.5810 hx        1 IB       0.107700
     52 H222        8.4970    2.2550   16.8050 hx        1 IB       0.107700
     53 H231        7.0950    3.2420   15.0490 h1        1 IB       0.080700
     54 H232        7.8750    1.7250   14.4000 h1        1 IB       0.080700
     55 H241        7.0420    0.4500   18.9070 hx        1 IB       0.104700
     56 H242        7.8970    2.0460   19.1920 hx        1 IB       0.104700
     57 H243        6.1330    1.8510   19.6640 hx        1 IB       0.104700
     58 HN21       -1.0400   -0.0820   -3.1300 h1        1 IB       0.054033
     59 HN22        0.0010   -1.3510   -2.2970 h1        1 IB       0.054033
     60 HN23        0.6820    0.3270   -2.6240 h1        1 IB       0.054033
@<TRIPOS>BOND
     1    1    3 ar  
     2    1    5 ar  
     3    1    7 1   
     4    2    4 ar  
     5    2    6 ar  
     6    2    8 1   
     7    3    4 ar  
     8    3   35 1   
     9    4   36 1   
    10    5    6 ar  
    11    5   33 1   
    12    6   37 1   
    13    7   34 1   
    14    8   15 1   
    15    8   16 2   
    16    9   10 ar  
    17    9   14 ar  
    18    9   15 1   
    19   10   11 ar  
    20   10   16 1   
    21   11   12 ar  
    22   11   38 1   
    23   12   13 ar  
    24   12   39 1   
    25   13   14 ar  
    26   13   17 1   
    27   14   40 1   
    28   15   41 1   
    29   17   24 1   
    30   17   25 2   
    31   18   19 ar  
    32   18   23 ar  
    33   18   24 1   
    34   19   20 ar  
    35   19   25 1   
    36   20   21 ar  
    37   20   42 1   
    38   21   22 ar  
    39   21   43 1   
    40   22   23 ar  
    41   22   26 1   
    42   23   44 1   
    43   24   45 1   
    44   26   28 1   
    45   26   31 1   
    46   27   29 1   
    47   27   30 1   
    48   27   32 1   
    49   27   46 1   
    50   28   29 1   
    51   28   47 1   
    52   28   48 1   
    53   29   49 1   
    54   29   50 1   
    55   30   31 1   
    56   30   51 1   
    57   30   52 1   
    58   31   53 1   
    59   31   54 1   
    60   32   55 1   
    61   32   56 1   
    62   32   57 1   
    63   34   58 1   
    64   34   59 1   
    65   34   60 1   
@<TRIPOS>SUBSTRUCTURE
     1 IB          1 TEMP              0 ****  ****    0 ROOT
