@<TRIPOS>MOLECULE
IB3
   36    32     1     0     0
SMALL
bcc


@<TRIPOS>ATOM
      1 C1          0.7200    1.4930    1.1580 c2        1 IB3     -0.167000
      2 C2          1.5590   -1.9470   -1.5560 c1        1 IB3      0.110000
      3 C3          1.9840   -1.4440   -0.4270 c2        1 IB3     -0.458000
      4 C4          0.4180   -1.3220    3.2230 c1        1 IB3     -0.231000
      5 C5          0.1200   -0.3850    2.5400 c1        1 IB3     -0.111000
      6 C6         -0.2180    0.7260    1.7360 c2        1 IB3     -0.069000
      7 P8          5.0900    1.9660    2.3850 p3        1 IB3      2.424000
      8 O11         3.9570    1.6180    1.5120 o         1 IB3     -1.135333
      9 O10         5.4010    3.3460    2.7640 o         1 IB3     -1.135333
     10 C7          3.3700   -1.4600    0.1120 c3        1 IB3     -0.096000
     11 C12         3.4550   -2.3610    1.3330 c3        1 IB3     -0.068000
     12 C13         4.8450   -2.4380    1.8410 c2        1 IB3     -0.362000
     13 C14         5.5280   -3.5560    1.8860 c1        1 IB3      0.240000
     14 N16         7.5310   -0.5800    4.4570 ny        1 IB3      0.262000
     15 C17         8.1450   -1.2040    5.5420 c2        1 IB3     -0.711000
     16 O18         7.9270   -1.1010    3.2040 oh        1 IB3     -0.410000
     17 O15         6.1500   -4.5750    1.9380 o         1 IB3     -0.192000
     18 C19        -1.6740    0.9890    1.5790 c3        1 IB3     -0.169000
     19 H1          1.8080    1.3190    1.2690 ha        1 IB3      0.154000
     20 H2          0.4460    2.3580    0.5380 ha        1 IB3      0.154000
     21 H3          1.2640   -0.9070    0.2350 ha        1 IB3      0.206000
     22 H4          0.6930   -2.1480    3.8250 ha        1 IB3      0.218000
     23 H7          3.6540   -0.4060    0.3970 hc        1 IB3      0.117500
     24 H8          4.0910   -1.8130   -0.6700 hc        1 IB3      0.117500
     25 H9          2.7940   -1.9440    2.1430 hc        1 IB3      0.078500
     26 H10         3.0650   -3.3820    1.0770 hc        1 IB3      0.078500
     27 H11         5.3140   -1.4970    2.1920 ha        1 IB3      0.219000
     28 H12         7.7470    0.4250    4.4390 hn        1 IB3      0.222500
     29 H13         9.1950   -0.9650    5.7180 hx        1 IB3      0.094500
     30 H14         7.8060   -2.2120    5.7870 hx        1 IB3      0.094500
     31 H15         7.4540   -0.6270    2.4980 ho        1 IB3      0.215000
     32 H16        -2.1830    0.1030    1.1230 hc        1 IB3      0.073667
     33 H17        -2.1420    1.1850    2.5760 hc        1 IB3      0.073667
     34 H18        -1.8510    1.8760    0.9230 hc        1 IB3      0.073667
     35 O9          5.9320    0.8540    2.8840 o         1 IB3     -1.135333
     36 H161        6.5070   -0.6780    4.5030 hn        1 IB3      0.222500
@<TRIPOS>BOND
     1    1    6 1   
     2    1   19 1   
     3    1   20 1   
     4    2    3 1   
     5    3   10 1   
     6    3   21 1   
     7    4    5 1   
     8    4   22 1   
     9    5    6 1   
    10    6   18 1   
    11    7    8 1   
    12    7    9 1   
    13    7   35 1   
    14   10   11 1   
    15   10   23 1   
    16   10   24 1   
    17   11   12 1   
    18   11   25 1   
    19   11   26 1   
    20   12   13 1   
    21   12   27 1   
    22   13   17 1   
    23   14   15 1   
    24   14   16 1   
    25   14   28 1   
    26   14   36 1   
    27   15   29 1   
    28   15   30 1   
    29   16   31 1   
    30   18   32 1   
    31   18   33 1   
    32   18   34 1   
@<TRIPOS>SUBSTRUCTURE
     1 IB3         1 TEMP              0 ****  ****    0 ROOT
