@<TRIPOS>MOLECULE
IB3
   36    34     1     0     0
SMALL
bcc


@<TRIPOS>ATOM
      1 C1         -0.1920    0.3300    2.4980 c3        1 IB3      0.058900
      2 C2          1.1540   -0.0950    2.7280 c1        1 IB3     -0.194100
      3 C3          2.3000   -0.4240    2.8460 c1        1 IB3     -0.053100
      4 C4         -0.2480    0.4140   -1.2100 c2        1 IB3     -0.233000
      5 C5          0.1720    0.0960    0.0160 ce        1 IB3     -0.130000
      6 C6         -0.7200   -0.0880    1.1560 ce        1 IB3     -0.052200
      7 P8          4.5370   -0.3300    1.5360 p5        1 IB3      1.366600
      8 O11         3.6830   -0.3310    0.3280 o         1 IB3     -0.872500
      9 O10         4.7740    1.2740    1.7750 oh        1 IB3     -0.797400
     10 C7          3.6550   -0.8410    2.9380 c3        1 IB3     -0.226800
     11 C12         4.3610   -0.3310    4.1830 c3        1 IB3      0.040800
     12 C13         5.1030   -1.4050    4.8930 c2        1 IB3     -0.409300
     13 C14         4.7750   -1.8580    6.0760 c1        1 IB3      0.521600
     14 N16         8.4190   -1.4960    2.7460 n3        1 IB3     -0.536700
     15 C17         8.8990   -1.3660    1.3700 c3        1 IB3      0.092100
     16 O18         7.7280   -2.6210    2.9280 oh        1 IB3     -0.448300
     17 O15         4.5080   -2.2730    7.1670 o         1 IB3     -0.445500
     18 C19        -1.9550   -0.5960    1.0370 c2        1 IB3     -0.251000
     19 H1         -0.8600   -0.0690    3.3130 hc        1 IB3      0.048200
     20 H2         -0.2390    1.4570    2.5530 hc        1 IB3      0.048200
     21 H3          0.4560    0.5400   -2.0420 ha        1 IB3      0.101000
     22 H4         -1.3050    0.5720   -1.4620 ha        1 IB3      0.101000
     23 H7          4.3190    1.8010    1.1280 ho        1 IB3      0.433000
     24 H8          3.6770   -1.9680    2.9410 hc        1 IB3      0.098700
     25 H9          5.1050    0.4610    3.8830 hc        1 IB3      0.052200
     26 H10         3.6260    0.1540    4.8810 hc        1 IB3      0.052200
     27 H11         5.9750   -1.8370    4.3620 ha        1 IB3      0.215000
     28 H12         9.5400   -2.2500    1.1250 h1        1 IB3      0.035700
     29 H13         8.0590   -1.3050    0.6260 h1        1 IB3      0.035700
     30 H14         9.5160   -0.4340    1.3110 h1        1 IB3      0.035700
     31 H15         6.9250   -2.6190    2.3610 ho        1 IB3      0.420000
     32 H16         1.2580   -0.0470    0.2230 ha        1 IB3      0.204000
     33 H17        -2.3720   -0.8940    0.0680 ha        1 IB3      0.104000
     34 H18        -2.6120   -0.7540    1.9000 ha        1 IB3      0.104000
     35 O9          5.8610   -1.0000    1.6150 o         1 IB3     -0.872500
     36 H161        7.7990   -0.6960    2.9040 hn        1 IB3      0.354800
@<TRIPOS>BOND
     1    1    2 1   
     2    1    6 1   
     3    1   19 1   
     4    1   20 1   
     5    2    3 3   
     6    3   10 1   
     7    4    5 2   
     8    4   21 1   
     9    4   22 1   
    10    5    6 1   
    11    5   32 1   
    12    6   18 2   
    13    7    8 1   
    14    7    9 1   
    15    7   10 1   
    16    7   35 1   
    17    9   23 1   
    18   10   11 1   
    19   10   24 1   
    20   11   12 1   
    21   11   25 1   
    22   11   26 1   
    23   12   13 2   
    24   12   27 1   
    25   13   17 2   
    26   14   15 1   
    27   14   16 1   
    28   14   36 1   
    29   15   28 1   
    30   15   29 1   
    31   15   30 1   
    32   16   31 1   
    33   18   33 1   
    34   18   34 1   
@<TRIPOS>SUBSTRUCTURE
     1 IB3         1 TEMP              0 ****  ****    0 ROOT
