@<TRIPOS>MOLECULE
IB8
   71    67     1     0     0
SMALL
bcc


@<TRIPOS>ATOM
      1 C28        -1.6500   -0.7830   -1.5670 c3        1 IB8     -0.014000
      2 C30        -0.6680   -2.6750   -3.2550 c3        1 IB8     -0.084000
      3 N3         -0.0430   -2.5040   -1.9270 n3        1 IB8     -0.261000
      4 C31         1.3430   -2.7880   -2.0190 c3        1 IB8     -0.121000
      5 C25        -0.3890   -4.5070   -6.1510 c3        1 IB8     -0.133500
      6 N2         -1.1750   -4.3810   -4.9350 n3        1 IB8     -0.265000
      7 C24        -1.8430   -5.5710   -4.6880 c3        1 IB8     -0.133500
      8 C22         0.2830   -1.0000   -0.0340 c3        1 IB8     -0.042000
      9 N1          0.5020    0.4010    0.3120 n3        1 IB8     -0.157000
     10 C1          1.4910    1.3970    0.0310 c1        1 IB8     -0.009000
     11 C6          2.3830    1.5360   -1.0170 c1        1 IB8     -0.134000
     12 C5          3.3230    2.6010   -1.0150 c1        1 IB8     -0.084000
     13 C8          4.3490    2.7080   -2.1400 c1        1 IB8      0.358000
     14 O2          4.0430    3.2890   -3.2210 o         1 IB8     -0.567500
     15 O1          5.5400    2.2940   -1.9550 o         1 IB8     -0.567500
     16 C4          3.3460    3.4980    0.0340 c2        1 IB8     -0.120000
     17 C3          2.4340    3.3530    1.1020 c1        1 IB8     -0.125000
     18 C2          1.5100    2.3000    1.0930 c1        1 IB8     -0.091000
     19 C7          0.5390    1.8820    2.0460 c1        1 IB8     -0.108000
     20 C16        -0.1940    2.7290    3.1810 c2        1 IB8     -0.032000
     21 C17         0.7250    2.8860    4.3330 c3        1 IB8     -0.152500
     22 C20         0.1790    3.8330    5.3910 c3        1 IB8     -0.153500
     23 C21        -0.2540    5.1780    4.8020 c3        1 IB8     -0.154000
     24 C19        -1.1810    5.0170    3.6380 c3        1 IB8     -0.153500
     25 C23        -0.2230   -1.1350   -1.4800 c3        1 IB8     -0.073000
     26 C18        -0.6330    4.0750    2.5890 c3        1 IB8     -0.152500
     27 C9         -0.0790    0.7070    1.5540 c2        1 IB8     -0.023000
     28 C10        -1.2600   -0.1240    1.8050 c1        1 IB8     -0.007000
     29 C11        -1.6610   -0.4910    3.1270 c1        1 IB8     -0.134000
     30 C12        -2.2840   -1.7250    3.3530 c1        1 IB8     -0.134000
     31 C13        -2.5160   -2.5980    2.2840 c1        1 IB8     -0.134000
     32 C14        -2.1290   -2.2430    0.9990 c1        1 IB8     -0.134000
     33 C15        -1.4900   -0.9810    0.7630 c1        1 IB8      0.059000
     34 O3         -2.1280   -0.3080   -0.3230 os        1 IB8     -0.223000
     35 C26        -0.3060   -4.0730   -3.8160 c3        1 IB8     -0.064000
     36 H281       -2.1480   -1.5590   -1.8200 h1        1 IB8      0.092000
     37 H282       -1.7770   -0.0530   -2.2780 h1        1 IB8      0.092000
     38 H23         0.3190   -0.5090   -2.0860 h1        1 IB8      0.136000
     39 H301       -0.3390   -1.9860   -3.8620 h1        1 IB8      0.099500
     40 H302       -1.6780   -2.5950   -3.1700 h1        1 IB8      0.099500
     41 H261        0.6210   -4.0730   -4.1110 h1        1 IB8      0.063000
     42 H262       -0.4260   -4.7440   -3.1200 h1        1 IB8      0.063000
     43 H311        1.6750   -2.5080   -2.8930 h1        1 IB8      0.066667
     44 H312        1.8230   -2.3030   -1.3190 h1        1 IB8      0.066667
     45 H313        1.4870   -3.7530   -1.9070 h1        1 IB8      0.066667
     46 H251       -0.9820   -4.7850   -6.9000 h1        1 IB8      0.078833
     47 H252        0.0340   -3.6200   -6.3700 h1        1 IB8      0.078833
     48 H253        0.3110   -5.1830   -6.0230 h1        1 IB8      0.078833
     49 H241       -2.3640   -5.4900   -3.8540 h1        1 IB8      0.078833
     50 H242       -2.4390   -5.7630   -5.4190 h1        1 IB8      0.078833
     51 H243       -1.1640   -6.3250   -4.5930 h1        1 IB8      0.078833
     52 H221       -0.3820   -1.3770    0.5750 h1        1 IB8      0.099500
     53 H222        1.1340   -1.4990    0.0650 h1        1 IB8      0.099500
     54 H6          2.3430    0.9140   -1.7820 ha        1 IB8      0.151000
     55 H4          3.9400    4.3020   -0.0090 ha        1 IB8      0.153000
     56 H3          2.3710    4.0670    1.8080 ha        1 IB8      0.113000
     57 H16        -0.9970    2.2360    3.4820 ha        1 IB8      0.082000
     58 H171        0.8770    2.0270    4.7300 hc        1 IB8      0.088500
     59 H172        1.5770    3.2390    4.0050 hc        1 IB8      0.088500
     60 H181        0.1420    4.4990    2.1500 hc        1 IB8      0.088500
     61 H182       -1.3300    3.9100    1.9130 hc        1 IB8      0.088500
     62 H201       -0.6090    3.4020    5.8370 hc        1 IB8      0.069750
     63 H202        0.8800    3.9910    6.0660 hc        1 IB8      0.069750
     64 H211       -0.7050    5.6880    5.4880 hc        1 IB8      0.072000
     65 H212        0.5630    5.6840    4.5060 hc        1 IB8      0.072000
     66 H191       -1.3240    5.8810    3.2390 hc        1 IB8      0.069750
     67 H192       -2.0100    4.6800    3.9480 hc        1 IB8      0.069750
     68 H11        -1.5020    0.1030    3.8570 ha        1 IB8      0.133000
     69 H12        -2.5640   -1.9820    4.2760 ha        1 IB8      0.133000
     70 H13        -2.9430   -3.4440    2.4400 ha        1 IB8      0.133000
     71 H14        -2.2960   -2.8690    0.2370 ha        1 IB8      0.133000
@<TRIPOS>BOND
     1    1   25 1   
     2    1   34 1   
     3    1   36 1   
     4    1   37 1   
     5    2    3 1   
     6    2   35 1   
     7    2   39 1   
     8    2   40 1   
     9    3    4 1   
    10    3   25 1   
    11    4   43 1   
    12    4   44 1   
    13    4   45 1   
    14    5    6 1   
    15    5   46 1   
    16    5   47 1   
    17    5   48 1   
    18    6    7 1   
    19    6   35 1   
    20    7   49 1   
    21    7   50 1   
    22    7   51 1   
    23    8    9 1   
    24    8   25 1   
    25    8   52 1   
    26    8   53 1   
    27    9   10 1   
    28    9   27 1   
    29   10   18 1   
    30   11   12 1   
    31   11   54 1   
    32   12   16 1   
    33   13   14 1   
    34   13   15 1   
    35   16   17 1   
    36   16   55 1   
    37   17   56 1   
    38   19   27 1   
    39   20   21 1   
    40   20   26 1   
    41   20   57 1   
    42   21   22 1   
    43   21   58 1   
    44   21   59 1   
    45   22   23 1   
    46   22   62 1   
    47   22   63 1   
    48   23   24 1   
    49   23   64 1   
    50   23   65 1   
    51   24   26 1   
    52   24   66 1   
    53   24   67 1   
    54   25   38 1   
    55   26   60 1   
    56   26   61 1   
    57   27   28 1   
    58   28   33 1   
    59   29   30 1   
    60   29   68 1   
    61   30   69 1   
    62   31   32 1   
    63   31   70 1   
    64   32   71 1   
    65   33   34 1   
    66   35   41 1   
    67   35   42 1   
@<TRIPOS>SUBSTRUCTURE
     1 IB8         1 TEMP              0 ****  ****    0 ROOT
