@<TRIPOS>MOLECULE
IB8
   71    75     1     0     0
SMALL
bcc


@<TRIPOS>ATOM
      1 C28        -2.1440    1.6620   -1.6110 c3        1 IB8      0.098400
      2 C30        -4.4260    0.1280   -0.4510 c3        1 IB8      0.178800
      3 N3         -3.3380   -0.5080   -1.1730 n3        1 IB8     -0.746600
      4 C31        -3.6960   -0.9700   -2.4900 c3        1 IB8      0.170100
      5 C25        -7.5180    0.1640    0.2260 c3        1 IB8      0.161100
      6 N2         -6.3960   -0.2890    1.0130 n3        1 IB8     -0.746600
      7 C24        -6.7950   -1.0900    2.1470 c3        1 IB8      0.161100
      8 C22        -1.4630    0.1600    0.3200 c3        1 IB8      0.052300
      9 N1         -0.0420    0.0290    0.3650 na        1 IB8     -0.070400
     10 C1          0.6580   -1.1900    0.3570 ca        1 IB8     -0.045200
     11 C6          0.1860   -2.5110    0.4490 ca        1 IB8     -0.129000
     12 C5          1.1160   -3.5410    0.4610 ca        1 IB8     -0.104600
     13 C8          0.6460   -4.9870    0.5610 c         1 IB8      0.907200
     14 O2          1.5230   -5.8960    0.5420 o         1 IB8     -0.830300
     15 O1         -0.5960   -5.2010    0.6580 o         1 IB8     -0.830300
     16 C4          2.4990   -3.2620    0.3850 ca        1 IB8     -0.120000
     17 C3          2.9780   -1.9670    0.2960 ca        1 IB8     -0.130000
     18 C2          2.0690   -0.9020    0.2790 ca        1 IB8     -0.106800
     19 C7          2.1970    0.5380    0.2090 cc        1 IB8     -0.103400
     20 C16         3.4480    1.3180    0.1020 c3        1 IB8      0.012500
     21 C17         4.3240    1.1220    1.3370 c3        1 IB8     -0.073900
     22 C20         5.6160    1.9050    1.2250 c3        1 IB8     -0.074900
     23 C21         6.3730    1.5440   -0.0360 c3        1 IB8     -0.075400
     24 C19         5.5100    1.7390   -1.2650 c3        1 IB8     -0.074900
     25 C23        -2.0660    0.2010   -1.1200 c3        1 IB8      0.141500
     26 C18         4.2180    0.9540   -1.1630 c3        1 IB8     -0.073900
     27 C9          0.9000    1.0720    0.2440 cd        1 IB8     -0.041300
     28 C10         0.5170    2.4750    0.2120 ca        1 IB8     -0.012800
     29 C11         1.0600    3.3620    1.1550 ca        1 IB8     -0.108000
     30 C12         0.7050    4.7080    1.1570 ca        1 IB8     -0.145000
     31 C13        -0.2030    5.1980    0.2180 ca        1 IB8     -0.130000
     32 C14        -0.7510    4.3420   -0.7330 ca        1 IB8     -0.154000
     33 C15        -0.3830    2.9880   -0.7420 ca        1 IB8      0.099100
     34 O3         -0.8280    2.1930   -1.7910 os        1 IB8     -0.332900
     35 C26        -5.3520   -0.9200    0.2140 c3        1 IB8      0.162800
     36 H281       -2.5880    1.7000   -2.6440 h1        1 IB8      0.045700
     37 H282       -2.7500    2.2990   -0.9180 h1        1 IB8      0.045700
     38 H23        -1.3570   -0.3470   -1.8140 h1        1 IB8      0.097700
     39 H301       -3.9980    0.7830    0.3600 h1        1 IB8      0.031200
     40 H302       -5.0390    0.7880   -1.1320 h1        1 IB8      0.031200
     41 H261       -5.7940   -1.5850   -0.5840 h1        1 IB8      0.047700
     42 H262       -4.7190   -1.5720    0.8810 h1        1 IB8      0.047700
     43 H311       -3.9150   -0.1340   -3.2110 h1        1 IB8      0.031033
     44 H312       -2.8570   -1.5900   -2.9020 h1        1 IB8      0.031033
     45 H313       -4.6100   -1.6150   -2.4100 h1        1 IB8      0.031033
     46 H251       -8.2140    0.7470    0.8850 h1        1 IB8      0.027867
     47 H252       -7.1460    0.8390   -0.5890 h1        1 IB8      0.027867
     48 H253       -8.0990   -0.6750   -0.2480 h1        1 IB8      0.027867
     49 H241       -7.2630   -2.0710    1.8570 h1        1 IB8      0.027867
     50 H242       -5.8940   -1.2990    2.7820 h1        1 IB8      0.027867
     51 H243       -7.5370   -0.5100    2.7570 h1        1 IB8      0.027867
     52 H221       -1.8980   -0.7190    0.8810 h1        1 IB8      0.065700
     53 H222       -1.7500    1.1100    0.8540 h1        1 IB8      0.065700
     54 H6         -0.8860   -2.7520    0.5060 ha        1 IB8      0.160000
     55 H4          3.1860   -4.1250    0.4000 ha        1 IB8      0.153000
     56 H3          4.0570   -1.7700    0.2430 ha        1 IB8      0.111000
     57 H16         3.1840    2.4160    0.0380 hc        1 IB8      0.040700
     58 H171        3.7600    1.4550    2.2460 hc        1 IB8      0.049200
     59 H172        4.5480    0.0300    1.4600 hc        1 IB8      0.049200
     60 H181        4.4400   -0.1460   -1.1580 hc        1 IB8      0.049200
     61 H182        3.5780    1.1640   -2.0580 hc        1 IB8      0.049200
     62 H201        5.3900    3.0030    1.2220 hc        1 IB8      0.029950
     63 H202        6.2580    1.6960    2.1210 hc        1 IB8      0.029950
     64 H211        7.2950    2.1770   -0.1170 hc        1 IB8      0.032700
     65 H212        6.7030    0.4730    0.0210 hc        1 IB8      0.032700
     66 H191        5.2770    2.8290   -1.3870 hc        1 IB8      0.029950
     67 H192        6.0740    1.4110   -2.1760 hc        1 IB8      0.029950
     68 H11         1.7720    2.9730    1.9000 ha        1 IB8      0.147000
     69 H12         1.1400    5.3860    1.9050 ha        1 IB8      0.126000
     70 H13        -0.4850    6.2610    0.2250 ha        1 IB8      0.124000
     71 H14        -1.4580    4.7130   -1.4870 ha        1 IB8      0.135000
@<TRIPOS>BOND
     1    1   25 1   
     2    1   34 1   
     3    1   36 1   
     4    1   37 1   
     5    2    3 1   
     6    2   35 1   
     7    2   39 1   
     8    2   40 1   
     9    3    4 1   
    10    3   25 1   
    11    4   43 1   
    12    4   44 1   
    13    4   45 1   
    14    5    6 1   
    15    5   46 1   
    16    5   47 1   
    17    5   48 1   
    18    6    7 1   
    19    6   35 1   
    20    7   49 1   
    21    7   50 1   
    22    7   51 1   
    23    8    9 1   
    24    8   25 1   
    25    8   52 1   
    26    8   53 1   
    27    9   10 1   
    28    9   27 1   
    29   10   11 ar  
    30   10   18 ar  
    31   11   12 ar  
    32   11   54 1   
    33   12   13 1   
    34   12   16 ar  
    35   13   14 1   
    36   13   15 1   
    37   16   17 ar  
    38   16   55 1   
    39   17   18 ar  
    40   17   56 1   
    41   18   19 1   
    42   19   20 1   
    43   19   27 2   
    44   20   21 1   
    45   20   26 1   
    46   20   57 1   
    47   21   22 1   
    48   21   58 1   
    49   21   59 1   
    50   22   23 1   
    51   22   62 1   
    52   22   63 1   
    53   23   24 1   
    54   23   64 1   
    55   23   65 1   
    56   24   26 1   
    57   24   66 1   
    58   24   67 1   
    59   25   38 1   
    60   26   60 1   
    61   26   61 1   
    62   27   28 1   
    63   28   29 ar  
    64   28   33 ar  
    65   29   30 ar  
    66   29   68 1   
    67   30   31 ar  
    68   30   69 1   
    69   31   32 ar  
    70   31   70 1   
    71   32   33 ar  
    72   32   71 1   
    73   33   34 1   
    74   35   41 1   
    75   35   42 1   
@<TRIPOS>SUBSTRUCTURE
     1 IB8         1 TEMP              0 ****  ****    0 ROOT
