@<TRIPOS>MOLECULE
IB8
   73    77     1     0     0
SMALL
bcc


@<TRIPOS>ATOM
      1 C28        -0.8910    0.0550    0.1890 c3        1 IB8      0.102400
      2 C30         0.8930   -2.4200   -0.5290 c3        1 IB8      0.172800
      3 N3          1.0740   -1.0520   -0.9570 n3        1 IB8     -0.761600
      4 C31         0.7040   -0.8130   -2.3330 c3        1 IB8      0.162100
      5 C25         1.5330   -5.4710   -1.1660 c3        1 IB8      0.081600
      6 N2          2.1780   -4.5870   -0.1610 n4        1 IB8     -0.678400
      7 C24         3.5360   -5.0920    0.1800 c3        1 IB8      0.081600
      8 C22         1.3410   -0.1540    1.3640 c3        1 IB8      0.057300
      9 N1          1.7020    1.0860    1.9660 na        1 IB8     -0.082400
     10 C1          2.9000    1.7780    1.7390 ca        1 IB8     -0.044200
     11 C6          4.0270    1.4200    0.9930 ca        1 IB8     -0.134000
     12 C5          5.1160    2.2910    1.0020 ca        1 IB8     -0.151600
     13 C8          6.3300    1.9270    0.2470 c         1 IB8      0.636700
     14 O2          7.4990    1.9870    0.6220 o         1 IB8     -0.466000
     15 O1          6.1870    1.4290   -1.0230 oh        1 IB8     -0.589100
     16 C4          5.0900    3.4920    1.7340 ca        1 IB8     -0.102000
     17 C3          3.9650    3.8640    2.4580 ca        1 IB8     -0.078000
     18 C2          2.8510    3.0250    2.4720 ca        1 IB8     -0.055800
     19 C7          1.5490    3.0800    3.1110 cc        1 IB8     -0.083400
     20 C16         1.0160    4.1760    3.9480 c3        1 IB8     -0.005500
     21 C17         1.8280    4.3370    5.2310 c3        1 IB8     -0.069900
     22 C20         1.2790    5.4600    6.0860 c3        1 IB8     -0.078400
     23 C21         1.2180    6.7630    5.3160 c3        1 IB8     -0.078400
     24 C19         0.4190    6.6080    4.0380 c3        1 IB8     -0.078400
     25 C23         0.6360   -0.0210   -0.0230 c3        1 IB8      0.129500
     26 C18         0.9670    5.4910    3.1750 c3        1 IB8     -0.069900
     27 C9          0.8730    1.9010    2.7740 cd        1 IB8      0.014700
     28 C10        -0.4620    1.4810    3.1780 ca        1 IB8     -0.053800
     29 C11        -0.7980    1.4600    4.5410 ca        1 IB8     -0.097000
     30 C12        -2.0700    1.0690    4.9520 ca        1 IB8     -0.129000
     31 C13        -3.0300    0.6920    4.0120 ca        1 IB8     -0.105000
     32 C14        -2.7220    0.7090    2.6540 ca        1 IB8     -0.146000
     33 C15        -1.4440    1.1090    2.2410 ca        1 IB8      0.086100
     34 O3         -1.2030    1.2640    0.8780 os        1 IB8     -0.318900
     35 C26         2.2510   -3.1680   -0.6400 c3        1 IB8      0.083800
     36 H281       -1.4160    0.1630   -0.8000 h1        1 IB8      0.054700
     37 H282       -1.2800   -0.8450    0.7290 h1        1 IB8      0.054700
     38 H23         0.9510    0.9630   -0.4910 h1        1 IB8      0.110700
     39 H301        0.1320   -2.9620   -1.1630 h1        1 IB8      0.051200
     40 H302        0.5430   -2.4620    0.5410 h1        1 IB8      0.051200
     41 H261        2.6030   -3.1780   -1.7100 hx        1 IB8      0.111700
     42 H262        3.0230   -2.6310   -0.0140 hx        1 IB8      0.111700
     43 H311       -0.3930   -0.9640   -2.5280 h1        1 IB8      0.049700
     44 H312        1.2840   -1.5150   -2.9870 h1        1 IB8      0.049700
     45 H313        0.9760    0.2410   -2.6070 h1        1 IB8      0.049700
     46 H251        2.1560   -5.4970   -2.1000 hx        1 IB8      0.106867
     47 H252        1.4460   -6.5100   -0.7470 hx        1 IB8      0.106867
     48 H253        0.5100   -5.0770   -1.4090 hx        1 IB8      0.106867
     49 H241        3.4630   -6.1640    0.5060 hx        1 IB8      0.106867
     50 H242        3.9670   -4.4730    1.0130 hx        1 IB8      0.106867
     51 H243        4.2000   -5.0180   -0.7230 hx        1 IB8      0.106867
     52 H221        0.6420   -0.6930    2.0680 h1        1 IB8      0.053200
     53 H222        2.2840   -0.7640    1.2550 h1        1 IB8      0.053200
     54 H6          4.0640    0.4800    0.4250 ha        1 IB8      0.126000
     55 H4          5.9850    4.1350    1.7300 ha        1 IB8      0.161000
     56 H3          3.9550    4.8100    3.0220 ha        1 IB8      0.156000
     57 H16        -0.0450    3.9150    4.2420 hc        1 IB8      0.059700
     58 H171        2.8980    4.5470    4.9710 hc        1 IB8      0.042700
     59 H172        1.8030    3.3770    5.8090 hc        1 IB8      0.042700
     60 H181        0.3210    5.3640    2.2680 hc        1 IB8      0.042700
     61 H182        1.9970    5.7570    2.8220 hc        1 IB8      0.042700
     62 H201        1.9280    5.5880    6.9910 hc        1 IB8      0.043950
     63 H202        0.2510    5.1900    6.4440 hc        1 IB8      0.043950
     64 H211        2.2590    7.1000    5.0680 hc        1 IB8      0.044700
     65 H212        0.7510    7.5560    5.9570 hc        1 IB8      0.044700
     66 H191       -0.6530    6.3950    4.2910 hc        1 IB8      0.043950
     67 H192        0.4440    7.5690    3.4610 hc        1 IB8      0.043950
     68 H11        -0.0430    1.7630    5.2850 ha        1 IB8      0.154000
     69 H12        -2.3190    1.0630    6.0240 ha        1 IB8      0.149000
     70 H13        -4.0360    0.3910    4.3420 ha        1 IB8      0.147000
     71 H14        -3.4750    0.4370    1.9000 ha        1 IB8      0.148000
     72 H31         5.2730    1.5420   -1.3150 ho        1 IB8      0.424000
     73 H21         1.6050   -4.6050    0.6950 hn        1 IB8      0.447800
@<TRIPOS>BOND
     1    1   25 1   
     2    1   34 1   
     3    1   36 1   
     4    1   37 1   
     5    2    3 1   
     6    2   35 1   
     7    2   39 1   
     8    2   40 1   
     9    3    4 1   
    10    3   25 1   
    11    4   43 1   
    12    4   44 1   
    13    4   45 1   
    14    5    6 1   
    15    5   46 1   
    16    5   47 1   
    17    5   48 1   
    18    6    7 1   
    19    6   35 1   
    20    6   73 1   
    21    7   49 1   
    22    7   50 1   
    23    7   51 1   
    24    8    9 1   
    25    8   25 1   
    26    8   52 1   
    27    8   53 1   
    28    9   10 1   
    29    9   27 1   
    30   10   11 ar  
    31   10   18 ar  
    32   11   12 ar  
    33   11   54 1   
    34   12   13 1   
    35   12   16 ar  
    36   13   14 2   
    37   13   15 1   
    38   15   72 1   
    39   16   17 ar  
    40   16   55 1   
    41   17   18 ar  
    42   17   56 1   
    43   18   19 1   
    44   19   20 1   
    45   19   27 2   
    46   20   21 1   
    47   20   26 1   
    48   20   57 1   
    49   21   22 1   
    50   21   58 1   
    51   21   59 1   
    52   22   23 1   
    53   22   62 1   
    54   22   63 1   
    55   23   24 1   
    56   23   64 1   
    57   23   65 1   
    58   24   26 1   
    59   24   66 1   
    60   24   67 1   
    61   25   38 1   
    62   26   60 1   
    63   26   61 1   
    64   27   28 1   
    65   28   29 ar  
    66   28   33 ar  
    67   29   30 ar  
    68   29   68 1   
    69   30   31 ar  
    70   30   69 1   
    71   31   32 ar  
    72   31   70 1   
    73   32   33 ar  
    74   32   71 1   
    75   33   34 1   
    76   35   41 1   
    77   35   42 1   
@<TRIPOS>SUBSTRUCTURE
     1 IB8         1 TEMP              0 ****  ****    0 ROOT
