@<TRIPOS>MOLECULE
IB8
   73    77     1     0     0
SMALL
bcc


@<TRIPOS>ATOM
      1 C28        -0.8680    0.0140    0.1920 c3        1 IB8      0.102400
      2 C30         0.9670   -2.4220   -0.5380 c3        1 IB8      0.172800
      3 N3          1.1200   -1.0490   -0.9570 n3        1 IB8     -0.761600
      4 C31         0.7460   -0.8090   -2.3320 c3        1 IB8      0.162100
      5 C25         1.6710   -5.4560   -1.1910 c3        1 IB8      0.081600
      6 N2          2.2950   -4.5650   -0.1780 nx        1 IB8     -0.678400
      7 C24         3.6620   -5.0430    0.1640 c3        1 IB8      0.081600
      8 C22         1.3660   -0.1590    1.3690 c3        1 IB8      0.057300
      9 N1          1.7030    1.0840    1.9780 na        1 IB8     -0.082400
     10 C1          2.8890    1.8000    1.7560 ca        1 IB8     -0.044200
     11 C6          4.0240    1.4660    1.0100 ca        1 IB8     -0.134000
     12 C5          5.0960    2.3580    1.0250 ca        1 IB8     -0.151600
     13 C8          6.3180    2.0210    0.2710 c         1 IB8      0.636700
     14 O2          7.4850    2.1000    0.6480 o         1 IB8     -0.466000
     15 O1          6.1860    1.5270   -1.0030 oh        1 IB8     -0.589100
     16 C4          5.0470    3.5540    1.7630 ca        1 IB8     -0.102000
     17 C3          3.9130    3.9020    2.4860 ca        1 IB8     -0.078000
     18 C2          2.8150    3.0420    2.4950 ca        1 IB8     -0.055800
     19 C7          1.5110    3.0700    3.1320 cc        1 IB8     -0.083400
     20 C16         0.9560    4.1520    3.9740 c3        1 IB8     -0.005500
     21 C17         1.7640    4.3220    5.2580 c3        1 IB8     -0.069900
     22 C20         1.1920    5.4300    6.1170 c3        1 IB8     -0.078400
     23 C21         1.1080    6.7360    5.3540 c3        1 IB8     -0.078400
     24 C19         0.3140    6.5720    4.0740 c3        1 IB8     -0.078400
     25 C23         0.6620   -0.0320   -0.0180 c3        1 IB8      0.129500
     26 C18         0.8840    5.4690    3.2060 c3        1 IB8     -0.069900
     27 C9          0.8580    1.8800    2.7890 cd        1 IB8      0.014700
     28 C10        -0.4690    1.4330    3.1890 ca        1 IB8     -0.053800
     29 C11        -0.8060    1.3990    4.5500 ca        1 IB8     -0.097000
     30 C12        -2.0710    0.9830    4.9580 ca        1 IB8     -0.129000
     31 C13        -3.0230    0.5920    4.0150 ca        1 IB8     -0.105000
     32 C14        -2.7140    0.6210    2.6570 ca        1 IB8     -0.146000
     33 C15        -1.4420    1.0470    2.2480 ca        1 IB8      0.086100
     34 O3         -1.2030    1.2130    0.8860 os        1 IB8     -0.318900
     35 C26         2.3400   -3.1410   -0.6490 c3        1 IB8      0.083800
     36 H281       -1.3930    0.1170   -0.7980 h1        1 IB8      0.054700
     37 H282       -1.2400   -0.8960    0.7260 h1        1 IB8      0.054700
     38 H23         0.9580    0.9610   -0.4810 h1        1 IB8      0.110700
     39 H301        0.2180   -2.9760   -1.1750 h1        1 IB8      0.051200
     40 H302        0.6150   -2.4770    0.5320 h1        1 IB8      0.051200
     41 H261        2.6940   -3.1380   -1.7180 hx        1 IB8      0.111700
     42 H262        3.0990   -2.5930   -0.0180 hx        1 IB8      0.111700
     43 H311       -0.3470   -0.9810   -2.5290 h1        1 IB8      0.049700
     44 H312        0.9970    0.2510   -2.6000 h1        1 IB8      0.049700
     45 H313        1.3420   -1.4960   -2.9900 h1        1 IB8      0.049700
     46 H251        0.6420   -5.0810   -1.4350 hx        1 IB8      0.106867
     47 H252        2.2980   -5.4630   -2.1230 hx        1 IB8      0.106867
     48 H253        1.6040   -6.4990   -0.7780 hx        1 IB8      0.106867
     49 H241        3.6100   -6.1180    0.4840 hx        1 IB8      0.106867
     50 H242        4.0780   -4.4200    1.0020 hx        1 IB8      0.106867
     51 H243        4.3270   -4.9500   -0.7360 hx        1 IB8      0.106867
     52 H221        0.6770   -0.7140    2.0690 h1        1 IB8      0.053200
     53 H222        2.3210   -0.7510    1.2580 h1        1 IB8      0.053200
     54 H6          4.0790    0.5300    0.4380 ha        1 IB8      0.126000
     55 H4          5.9290    4.2150    1.7630 ha        1 IB8      0.161000
     56 H3          3.8840    4.8450    3.0550 ha        1 IB8      0.156000
     57 H16        -0.0990    3.8690    4.2650 hc        1 IB8      0.059700
     58 H171        2.8300    4.5530    5.0010 hc        1 IB8      0.042700
     59 H172        1.7560    3.3580    5.8310 hc        1 IB8      0.042700
     60 H181        1.9100    5.7560    2.8560 hc        1 IB8      0.042700
     61 H182        0.2410    5.3350    2.2980 hc        1 IB8      0.042700
     62 H201        0.1690    5.1390    6.4730 hc        1 IB8      0.043950
     63 H202        1.8380    5.5660    7.0240 hc        1 IB8      0.043950
     64 H211        2.1430    7.0930    5.1090 hc        1 IB8      0.044700
     65 H212        0.6260    7.5160    5.9980 hc        1 IB8      0.044700
     66 H191        0.3220    7.5360    3.5010 hc        1 IB8      0.043950
     67 H192       -0.7540    6.3380    4.3240 hc        1 IB8      0.043950
     68 H11        -0.0580    1.7130    5.2970 ha        1 IB8      0.154000
     69 H12        -2.3220    0.9670    6.0300 ha        1 IB8      0.149000
     70 H13        -4.0240    0.2710    4.3420 ha        1 IB8      0.147000
     71 H14        -3.4610    0.3400    1.9010 ha        1 IB8      0.148000
     72 H31         5.2700    1.6250   -1.2960 ho        1 IB8      0.424000
     73 H21         1.7200   -4.5990    0.6750 hn        1 IB8      0.447800
@<TRIPOS>BOND
     1    1   25 1   
     2    1   34 1   
     3    1   36 1   
     4    1   37 1   
     5    2    3 1   
     6    2   35 1   
     7    2   39 1   
     8    2   40 1   
     9    3    4 1   
    10    3   25 1   
    11    4   43 1   
    12    4   44 1   
    13    4   45 1   
    14    5    6 1   
    15    5   46 1   
    16    5   47 1   
    17    5   48 1   
    18    6    7 1   
    19    6   35 1   
    20    6   73 1   
    21    7   49 1   
    22    7   50 1   
    23    7   51 1   
    24    8    9 1   
    25    8   25 1   
    26    8   52 1   
    27    8   53 1   
    28    9   10 1   
    29    9   27 1   
    30   10   11 ar  
    31   10   18 ar  
    32   11   12 ar  
    33   11   54 1   
    34   12   13 1   
    35   12   16 ar  
    36   13   14 2   
    37   13   15 1   
    38   15   72 1   
    39   16   17 ar  
    40   16   55 1   
    41   17   18 ar  
    42   17   56 1   
    43   18   19 1   
    44   19   20 1   
    45   19   27 2   
    46   20   21 1   
    47   20   26 1   
    48   20   57 1   
    49   21   22 1   
    50   21   58 1   
    51   21   59 1   
    52   22   23 1   
    53   22   62 1   
    54   22   63 1   
    55   23   24 1   
    56   23   64 1   
    57   23   65 1   
    58   24   26 1   
    59   24   66 1   
    60   24   67 1   
    61   25   38 1   
    62   26   60 1   
    63   26   61 1   
    64   27   28 1   
    65   28   29 ar  
    66   28   33 ar  
    67   29   30 ar  
    68   29   68 1   
    69   30   31 ar  
    70   30   69 1   
    71   31   32 ar  
    72   31   70 1   
    73   32   33 ar  
    74   32   71 1   
    75   33   34 1   
    76   35   41 1   
    77   35   42 1   
@<TRIPOS>SUBSTRUCTURE
     1 IB8         1 TEMP              0 ****  ****    0 ROOT
