@<TRIPOS>MOLECULE
IB8
   73    77     1     0     0
SMALL
bcc


@<TRIPOS>ATOM
      1 C28        -0.8840    0.0270    0.1970 c3        1 IB8      0.102400
      2 C30         0.9290   -2.4270   -0.5260 c3        1 IB8      0.172800
      3 N3          1.0920   -1.0570   -0.9530 n3        1 IB8     -0.761600
      4 C31         0.7150   -0.8210   -2.3280 c3        1 IB8      0.162100
      5 C25         1.6080   -5.4690   -1.1670 c3        1 IB8      0.081600
      6 N2          2.2420   -4.5780   -0.1610 n4        1 IB8     -0.678400
      7 C24         3.6070   -5.0650    0.1780 c3        1 IB8      0.081600
      8 C22         1.3530   -0.1570    1.3680 c3        1 IB8      0.057300
      9 N1          1.7010    1.0870    1.9690 na        1 IB8     -0.082400
     10 C1          2.8910    1.7920    1.7400 ca        1 IB8     -0.044200
     11 C6          4.0210    1.4460    0.9920 ca        1 IB8     -0.134000
     12 C5          5.1000    2.3300    0.9990 ca        1 IB8     -0.151600
     13 C8          6.3170    1.9800    0.2420 c         1 IB8      0.636700
     14 O2          7.4860    2.0520    0.6150 o         1 IB8     -0.466000
     15 O1          6.1770    1.4800   -1.0280 oh        1 IB8     -0.589100
     16 C4          5.0620    3.5300    1.7310 ca        1 IB8     -0.102000
     17 C3          3.9340    3.8900    2.4560 ca        1 IB8     -0.078000
     18 C2          2.8290    3.0380    2.4730 ca        1 IB8     -0.055800
     19 C7          1.5280    3.0800    3.1140 cc        1 IB8     -0.083400
     20 C16         0.9840    4.1700    3.9520 c3        1 IB8     -0.005500
     21 C17         1.7970    4.3400    5.2330 c3        1 IB8     -0.069900
     22 C20         1.2370    5.4570    6.0890 c3        1 IB8     -0.078400
     23 C21         1.1600    6.7590    5.3190 c3        1 IB8     -0.078400
     24 C19         0.3610    6.5950    4.0430 c3        1 IB8     -0.078400
     25 C23         0.6440   -0.0310   -0.0180 c3        1 IB8      0.129500
     26 C18         0.9190    5.4840    3.1780 c3        1 IB8     -0.069900
     27 C9          0.8640    1.8930    2.7790 cd        1 IB8      0.014700
     28 C10        -0.4640    1.4580    3.1860 ca        1 IB8     -0.053800
     29 C11        -0.7970    1.4340    4.5480 ca        1 IB8     -0.097000
     30 C12        -2.0640    1.0280    4.9630 ca        1 IB8     -0.129000
     31 C13        -3.0220    0.6410    4.0240 ca        1 IB8     -0.105000
     32 C14        -2.7170    0.6610    2.6660 ca        1 IB8     -0.146000
     33 C15        -1.4440    1.0750    2.2510 ca        1 IB8      0.086100
     34 O3         -1.2080    1.2320    0.8870 os        1 IB8     -0.318900
     35 C26         2.2960   -3.1570   -0.6390 c3        1 IB8      0.083800
     36 H281       -1.4120    0.1290   -0.7910 h1        1 IB8      0.054700
     37 H282       -1.2610   -0.8770    0.7380 h1        1 IB8      0.054700
     38 H23         0.9460    0.9570   -0.4870 h1        1 IB8      0.110700
     39 H301        0.5810   -2.4740    0.5450 h1        1 IB8      0.051200
     40 H302        0.1740   -2.9780   -1.1590 h1        1 IB8      0.051200
     41 H261        3.0620   -2.6110   -0.0140 hx        1 IB8      0.111700
     42 H262        2.6470   -3.1610   -1.7090 hx        1 IB8      0.111700
     43 H311       -0.3800   -0.9860   -2.5210 h1        1 IB8      0.049700
     44 H312        0.9730    0.2360   -2.6020 h1        1 IB8      0.049700
     45 H313        1.3030   -1.5160   -2.9850 h1        1 IB8      0.049700
     46 H251        1.5340   -6.5090   -0.7490 hx        1 IB8      0.106867
     47 H252        0.5800   -5.0870   -1.4090 hx        1 IB8      0.106867
     48 H253        2.2310   -5.4860   -2.1010 hx        1 IB8      0.106867
     49 H241        3.5480   -6.1380    0.5040 hx        1 IB8      0.106867
     50 H242        4.0300   -4.4410    1.0120 hx        1 IB8      0.106867
     51 H243        4.2690   -4.9810   -0.7250 hx        1 IB8      0.106867
     52 H221        2.3030   -0.7560    1.2570 h1        1 IB8      0.053200
     53 H222        0.6610   -0.7030    2.0730 h1        1 IB8      0.053200
     54 H6          4.0680    0.5070    0.4240 ha        1 IB8      0.126000
     55 H4          5.9500    4.1840    1.7250 ha        1 IB8      0.161000
     56 H3          3.9140    4.8360    3.0200 ha        1 IB8      0.156000
     57 H16        -0.0720    3.8970    4.2480 hc        1 IB8      0.059700
     58 H171        1.7840    3.3790    5.8110 hc        1 IB8      0.042700
     59 H172        2.8640    4.5620    4.9710 hc        1 IB8      0.042700
     60 H181        1.9460    5.7610    2.8230 hc        1 IB8      0.042700
     61 H182        0.2730    5.3500    2.2730 hc        1 IB8      0.042700
     62 H201        0.2130    5.1750    6.4490 hc        1 IB8      0.043950
     63 H202        1.8860    5.5920    6.9930 hc        1 IB8      0.043950
     64 H211        2.1970    7.1080    5.0690 hc        1 IB8      0.044700
     65 H212        0.6860    7.5470    5.9610 hc        1 IB8      0.044700
     66 H191        0.3740    7.5560    3.4650 hc        1 IB8      0.043950
     67 H192       -0.7080    6.3700    4.2980 hc        1 IB8      0.043950
     68 H11        -0.0440    1.7450    5.2910 ha        1 IB8      0.154000
     69 H12        -2.3110    1.0200    6.0350 ha        1 IB8      0.149000
     70 H13        -4.0240    0.3290    4.3560 ha        1 IB8      0.147000
     71 H14        -3.4690    0.3810    1.9140 ha        1 IB8      0.148000
     72 H31         5.2610    1.5830   -1.3190 ho        1 IB8      0.424000
     73 H21         1.6700   -4.6030    0.6950 hn        1 IB8      0.447800
@<TRIPOS>BOND
     1    1   25 1   
     2    1   34 1   
     3    1   36 1   
     4    1   37 1   
     5    2    3 1   
     6    2   35 1   
     7    2   39 1   
     8    2   40 1   
     9    3    4 1   
    10    3   25 1   
    11    4   43 1   
    12    4   44 1   
    13    4   45 1   
    14    5    6 1   
    15    5   46 1   
    16    5   47 1   
    17    5   48 1   
    18    6    7 1   
    19    6   35 1   
    20    6   73 1   
    21    7   49 1   
    22    7   50 1   
    23    7   51 1   
    24    8    9 1   
    25    8   25 1   
    26    8   52 1   
    27    8   53 1   
    28    9   10 1   
    29    9   27 1   
    30   10   11 ar  
    31   10   18 ar  
    32   11   12 ar  
    33   11   54 1   
    34   12   13 1   
    35   12   16 ar  
    36   13   14 2   
    37   13   15 1   
    38   15   72 1   
    39   16   17 ar  
    40   16   55 1   
    41   17   18 ar  
    42   17   56 1   
    43   18   19 1   
    44   19   20 1   
    45   19   27 2   
    46   20   21 1   
    47   20   26 1   
    48   20   57 1   
    49   21   22 1   
    50   21   58 1   
    51   21   59 1   
    52   22   23 1   
    53   22   62 1   
    54   22   63 1   
    55   23   24 1   
    56   23   64 1   
    57   23   65 1   
    58   24   26 1   
    59   24   66 1   
    60   24   67 1   
    61   25   38 1   
    62   26   60 1   
    63   26   61 1   
    64   27   28 1   
    65   28   29 ar  
    66   28   33 ar  
    67   29   30 ar  
    68   29   68 1   
    69   30   31 ar  
    70   30   69 1   
    71   31   32 ar  
    72   31   70 1   
    73   32   33 ar  
    74   32   71 1   
    75   33   34 1   
    76   35   41 1   
    77   35   42 1   
@<TRIPOS>SUBSTRUCTURE
     1 IB8         1 TEMP              0 ****  ****    0 ROOT
