@<TRIPOS>MOLECULE
IBA
   53    54     1     0     0
SMALL
bcc


@<TRIPOS>ATOM
      1 C6          0.2690    0.0900   -0.1930 ca        1 IBA     -0.164000
      2 C5          1.6760    0.0910   -0.1590 ca        1 IBA     -0.009400
      3 C4          2.3060    0.0060    1.1280 ca        1 IBA     -0.063400
      4 C3          1.5390    0.1840    2.2830 ca        1 IBA     -0.082000
      5 C2          0.1570    0.3740    2.2000 ca        1 IBA     -0.106600
      6 C7         -0.4820    0.2460    0.9700 ca        1 IBA     -0.067000
      7 C1         -0.6160    0.7430    3.4920 c         1 IBA      0.921200
      8 O21         0.0880    0.8040    4.5290 o         1 IBA     -0.765800
      9 O20        -1.8360    0.9720    3.3470 o         1 IBA     -0.765800
     10 N4          3.7200   -0.3640    1.2110 n4        1 IBA     -0.629400
     11 C8          4.3590   -0.3300    2.5770 c3        1 IBA      0.125500
     12 C11         4.5690    1.0970    3.0870 c3        1 IBA     -0.111900
     13 C9          5.6790   -1.1140    2.5610 c3        1 IBA     -0.111900
     14 C12         5.4790    1.9420    2.2370 c3        1 IBA     -0.113600
     15 C10         5.4840   -2.5860    2.3060 c3        1 IBA     -0.113600
     16 N5          2.4350    0.2010   -1.3510 n         1 IBA     -0.415000
     17 C13         2.2470    1.3110   -2.2940 c3        1 IBA      0.079400
     18 C14         3.2950    1.0700   -3.4290 c3        1 IBA     -0.107400
     19 C15         3.8210   -0.3450   -3.2260 c3        1 IBA     -0.157400
     20 C16         3.3260   -0.7620   -1.8550 c         1 IBA      0.706500
     21 O13         3.6930   -1.7580   -1.2180 o         1 IBA     -0.604500
     22 C18         0.8360    1.3940   -2.9510 c3        1 IBA      0.103400
     23 O18         0.0110    2.3310   -2.2970 oh        1 IBA     -0.643800
     24 C17         2.5520    2.6540   -1.5550 c3        1 IBA      0.093800
     25 N17         2.3000    3.8600   -2.3870 n4        1 IBA     -0.833600
     26 H7         -1.5880    0.2810    0.9480 ha        1 IBA      0.199000
     27 H6         -0.2590   -0.0590   -1.1480 ha        1 IBA      0.135000
     28 H151        4.9390   -0.3960   -3.2630 hc        1 IBA      0.112700
     29 H152        3.4190   -1.0580   -3.9930 hc        1 IBA      0.112700
     30 H141        2.8340    1.1770   -4.4420 hc        1 IBA      0.067700
     31 H142        4.1320    1.8080   -3.3510 hc        1 IBA      0.067700
     32 H181        0.3630    0.3800   -3.0160 h1        1 IBA      0.083700
     33 H182        0.9390    1.8010   -3.9980 h1        1 IBA      0.083700
     34 H18        -0.5120    1.8890   -1.6130 ho        1 IBA      0.459000
     35 H171        1.8830    2.7270   -0.6440 hx        1 IBA      0.117700
     36 H172        3.6310    2.6760   -1.2300 hx        1 IBA      0.117700
     37 H11         2.7650    3.7720   -3.2950 hn        1 IBA      0.470133
     38 H12         2.6480    4.6940   -1.9040 hn        1 IBA      0.470133
     39 HN4         4.2690    0.2380    0.5920 hn        1 IBA      0.448800
     40 H8          3.6500   -0.8660    3.2820 hx        1 IBA      0.128700
     41 H111        5.0020    1.0050    4.1220 hc        1 IBA      0.084950
     42 H112        3.5730    1.6070    3.2010 hc        1 IBA      0.084950
     43 H121        6.4690    1.4480    2.0800 hc        1 IBA      0.049533
     44 H122        5.6610    2.9200    2.7500 hc        1 IBA      0.049533
     45 H123        5.0280    2.1620    1.2390 hc        1 IBA      0.049533
     46 H91         6.3890   -0.6830    1.8070 hc        1 IBA      0.084950
     47 H92         6.1450   -0.9700    3.5740 hc        1 IBA      0.084950
     48 H101        4.6710   -3.0030    2.9490 hc        1 IBA      0.049533
     49 H102        5.2390   -2.7960    1.2360 hc        1 IBA      0.049533
     50 H103        6.4290   -3.1350    2.5470 hc        1 IBA      0.049533
     51 H3          1.9530    0.1860    3.3120 ha        1 IBA      0.202000
     52 H42         3.7900   -1.3370    0.8530 hn        1 IBA      0.448800
     53 H173        1.2820    3.9630   -2.5430 hn        1 IBA      0.470133
@<TRIPOS>BOND
     1    1    2 ar  
     2    1    6 ar  
     3    1   27 1   
     4    2    3 ar  
     5    2   16 1   
     6    3    4 ar  
     7    3   10 1   
     8    4    5 ar  
     9    4   51 1   
    10    5    6 ar  
    11    5    7 1   
    12    6   26 1   
    13    7    8 1   
    14    7    9 1   
    15   10   11 1   
    16   10   39 1   
    17   10   52 1   
    18   11   12 1   
    19   11   13 1   
    20   11   40 1   
    21   12   14 1   
    22   12   41 1   
    23   12   42 1   
    24   13   15 1   
    25   13   46 1   
    26   13   47 1   
    27   14   43 1   
    28   14   44 1   
    29   14   45 1   
    30   15   48 1   
    31   15   49 1   
    32   15   50 1   
    33   16   17 1   
    34   16   20 1   
    35   17   18 1   
    36   17   22 1   
    37   17   24 1   
    38   18   19 1   
    39   18   30 1   
    40   18   31 1   
    41   19   20 1   
    42   19   28 1   
    43   19   29 1   
    44   20   21 2   
    45   22   23 1   
    46   22   32 1   
    47   22   33 1   
    48   23   34 1   
    49   24   25 1   
    50   24   35 1   
    51   24   36 1   
    52   25   37 1   
    53   25   38 1   
    54   25   53 1   
@<TRIPOS>SUBSTRUCTURE
     1 IBA         1 TEMP              0 ****  ****    0 ROOT
