@<TRIPOS>MOLECULE
IBA
   52    53     1     0     0
SMALL
bcc


@<TRIPOS>ATOM
      1 C6          0.0120   -0.1410   -0.2200 ca        1 IBA     -0.143000
      2 C5          1.4240   -0.1260   -0.2390 ca        1 IBA     -0.092400
      3 C4          2.1480   -0.0380    0.9940 ca        1 IBA      0.086600
      4 C3          1.4090    0.2120    2.1670 ca        1 IBA     -0.157000
      5 C2          0.0230    0.3260    2.1470 ca        1 IBA     -0.086600
      6 C7         -0.6780    0.0900    0.9590 ca        1 IBA     -0.127000
      7 C1         -0.7220    0.7590    3.4160 c         1 IBA      0.908200
      8 O21        -0.0150    1.0450    4.4180 o         1 IBA     -0.801800
      9 O20        -1.9760    0.8340    3.3440 o         1 IBA     -0.801800
     10 N4          3.5660   -0.1090    0.9630 nu        1 IBA     -0.740600
     11 C8          4.2750   -0.0910    2.2430 c3        1 IBA      0.176500
     12 C11         4.4680    1.3340    2.7880 c3        1 IBA     -0.087400
     13 C9          5.6400   -0.7970    2.1480 c3        1 IBA     -0.087400
     14 C12         5.3380    2.2140    1.9310 c3        1 IBA     -0.090100
     15 C10         5.5050   -2.2920    2.0230 c3        1 IBA     -0.090100
     16 N5          2.0760   -0.1440   -1.5040 n         1 IBA     -0.349000
     17 C13         2.2960    1.1460   -2.1710 c3        1 IBA      0.066400
     18 C14         3.2930    0.8630   -3.3360 c3        1 IBA     -0.094400
     19 C15         3.7920   -0.5610   -3.1250 c3        1 IBA     -0.167400
     20 C16         3.0350   -1.0890   -1.9120 c         1 IBA      0.695500
     21 O13         3.2190   -2.1940   -1.3910 o         1 IBA     -0.573500
     22 C18         0.9790    1.7210   -2.7590 c3        1 IBA      0.118400
     23 O18         0.3130    2.5630   -1.8440 oh        1 IBA     -0.647800
     24 C17         2.9320    2.1600   -1.1670 c3        1 IBA      0.068800
     25 N17         2.8790    3.5760   -1.6170 nz        1 IBA     -0.833600
     26 H7         -1.7810    0.1040    0.9930 ha        1 IBA      0.175000
     27 H6         -0.5430   -0.3280   -1.1530 ha        1 IBA      0.123000
     28 H151        4.8900   -0.5960   -2.9170 hc        1 IBA      0.091700
     29 H152        3.5800   -1.2140   -4.0080 hc        1 IBA      0.091700
     30 H141        2.7730    0.9510   -4.3220 hc        1 IBA      0.052200
     31 H142        4.1390    1.5920   -3.3250 hc        1 IBA      0.052200
     32 H181        1.2170    2.3850   -3.6360 h1        1 IBA      0.068700
     33 H182        0.3090    0.8890   -3.1020 h1        1 IBA      0.068700
     34 H18        -0.1190    2.0070   -1.1740 ho        1 IBA      0.462000
     35 H171        2.3730    2.1130   -0.1800 hx        1 IBA      0.136200
     36 H172        4.0090    1.8800   -0.9830 hx        1 IBA      0.136200
     37 H11         3.4080    4.1600   -0.9650 hn        1 IBA      0.458133
     38 H12         3.2670    3.6700   -2.5560 hn        1 IBA      0.458133
     39 HN4         3.8550   -0.9170    0.4350 hn        1 IBA      0.390800
     40 H8          3.6800   -0.6550    3.0300 h1        1 IBA      0.062700
     41 H111        4.9260    1.2410    3.8090 hc        1 IBA      0.051950
     42 H112        3.4620    1.8160    2.9210 hc        1 IBA      0.051950
     43 H121        4.8860    2.3640    0.9200 hc        1 IBA      0.030200
     44 H122        5.4580    3.2160    2.4120 hc        1 IBA      0.030200
     45 H123        6.3520    1.7660    1.7960 hc        1 IBA      0.030200
     46 H91         6.2120   -0.5530    3.0830 hc        1 IBA      0.051950
     47 H92         6.2300   -0.3940    1.2840 hc        1 IBA      0.051950
     48 H101        5.0350   -2.5830    1.0520 hc        1 IBA      0.030200
     49 H102        6.5130   -2.7710    2.0750 hc        1 IBA      0.030200
     50 H103        4.8770   -2.7030    2.8510 hc        1 IBA      0.030200
     51 H3          1.8970    0.3460    3.1510 ha        1 IBA      0.178000
     52 H173        1.8920    3.8850   -1.6280 hn        1 IBA      0.458133
@<TRIPOS>BOND
     1    1    2 ar  
     2    1    6 ar  
     3    1   27 1   
     4    2    3 ar  
     5    2   16 1   
     6    3    4 ar  
     7    3   10 1   
     8    4    5 ar  
     9    4   51 1   
    10    5    6 ar  
    11    5    7 1   
    12    6   26 1   
    13    7    8 1   
    14    7    9 1   
    15   10   11 1   
    16   10   39 1   
    17   11   12 1   
    18   11   13 1   
    19   11   40 1   
    20   12   14 1   
    21   12   41 1   
    22   12   42 1   
    23   13   15 1   
    24   13   46 1   
    25   13   47 1   
    26   14   43 1   
    27   14   44 1   
    28   14   45 1   
    29   15   48 1   
    30   15   49 1   
    31   15   50 1   
    32   16   17 1   
    33   16   20 1   
    34   17   18 1   
    35   17   22 1   
    36   17   24 1   
    37   18   19 1   
    38   18   30 1   
    39   18   31 1   
    40   19   20 1   
    41   19   28 1   
    42   19   29 1   
    43   20   21 2   
    44   22   23 1   
    45   22   32 1   
    46   22   33 1   
    47   23   34 1   
    48   24   25 1   
    49   24   35 1   
    50   24   36 1   
    51   25   37 1   
    52   25   38 1   
    53   25   52 1   
@<TRIPOS>SUBSTRUCTURE
     1 IBA         1 TEMP              0 ****  ****    0 ROOT
