@<TRIPOS>MOLECULE
IBA
   51    52     1     0     0
SMALL
bcc


@<TRIPOS>ATOM
      1 C6          4.5740    0.7780    0.1720 ca        1 IBA     -0.143000
      2 C5          3.8690    0.1780    1.2390 ca        1 IBA     -0.055400
      3 C4          4.4850    0.1090    2.5300 ca        1 IBA      0.136600
      4 C3          5.8090    0.5900    2.6560 ca        1 IBA     -0.165000
      5 C2          6.4980    1.1410    1.5820 ca        1 IBA     -0.086600
      6 C7          5.8670    1.2460    0.3380 ca        1 IBA     -0.136000
      7 C1          7.9390    1.6110    1.7590 c         1 IBA      0.907200
      8 O21         8.4740    1.4540    2.8920 o         1 IBA     -0.824300
      9 O20         8.5160    2.1220    0.7590 o         1 IBA     -0.824300
     10 N4          3.7470   -0.3490    3.6400 nh        1 IBA     -0.717600
     11 C8          4.4230   -0.6080    4.8980 c3        1 IBA      0.192500
     12 C11         5.3880   -1.8070    4.8950 c3        1 IBA     -0.097900
     13 C9          3.4080   -0.7760    6.0440 c3        1 IBA     -0.097900
     14 C12         4.7090   -3.1390    4.7210 c3        1 IBA     -0.092600
     15 C10         2.7020    0.5140    6.3700 c3        1 IBA     -0.092600
     16 N5          2.5590   -0.3160    1.0130 n         1 IBA     -0.385000
     17 C13         2.3170   -1.6380    0.4230 c3        1 IBA      0.045400
     18 C14         0.7670   -1.7620    0.2900 c3        1 IBA     -0.091400
     19 C15         0.1840   -0.4650    0.8280 c3        1 IBA     -0.168400
     20 C16         1.3820    0.3950    1.2280 c         1 IBA      0.706500
     21 O13         1.2860    1.5480    1.6690 o         1 IBA     -0.610500
     22 C18         2.9390   -1.7920   -0.9900 c3        1 IBA      0.125400
     23 O18         4.2850   -2.2100   -0.9550 oh        1 IBA     -0.614800
     24 C17         2.8570   -2.7810    1.3410 c3        1 IBA      0.147800
     25 N17         2.8300   -4.1070    0.7870 n3        1 IBA     -0.902800
     26 H7          6.4230    1.7070   -0.4940 ha        1 IBA      0.158000
     27 H6          4.0850    0.8790   -0.8090 ha        1 IBA      0.113000
     28 H151       -0.4600   -0.6330    1.7240 hc        1 IBA      0.070700
     29 H152       -0.4150    0.0780    0.0580 hc        1 IBA      0.070700
     30 H141        0.3940   -2.6380    0.8750 hc        1 IBA      0.047700
     31 H142        0.4740   -1.9140   -0.7780 hc        1 IBA      0.047700
     32 H181        2.8400   -0.8360   -1.5710 h1        1 IBA      0.043700
     33 H182        2.4080   -2.6130   -1.5460 h1        1 IBA      0.043700
     34 H18         4.7950   -1.5190   -0.5040 ho        1 IBA      0.434000
     35 H171        2.2440   -2.7910    2.2870 h1        1 IBA      0.063200
     36 H172        3.9250   -2.5380    1.6130 h1        1 IBA      0.063200
     37 H11         1.9420   -4.3000    0.3660 hn        1 IBA      0.348300
     38 H12         3.5440   -4.2080    0.0880 hn        1 IBA      0.348300
     39 HN4         3.1040   -1.0800    3.4100 hn        1 IBA      0.378800
     40 H8          5.0390    0.3130    5.1360 h1        1 IBA      0.078700
     41 H111        6.1430   -1.6610    4.0760 hc        1 IBA      0.043700
     42 H112        5.9490   -1.7980    5.8660 hc        1 IBA      0.043700
     43 H121        4.0160   -3.3490    5.5720 hc        1 IBA      0.032033
     44 H122        4.1200   -3.1730    3.7720 hc        1 IBA      0.032033
     45 H123        5.4710   -3.9550    4.6840 hc        1 IBA      0.032033
     46 H91         3.9700   -1.1370    6.9460 hc        1 IBA      0.043700
     47 H92         2.6540   -1.5650    5.7850 hc        1 IBA      0.043700
     48 H101        3.4390    1.3050    6.6510 hc        1 IBA      0.032033
     49 H102        2.1170    0.8810    5.4930 hc        1 IBA      0.032033
     50 H103        2.0020    0.3630    7.2280 hc        1 IBA      0.032033
     51 H3          6.3510    0.5470    3.6170 ha        1 IBA      0.163000
@<TRIPOS>BOND
     1    1    2 ar  
     2    1    6 ar  
     3    1   27 1   
     4    2    3 ar  
     5    2   16 1   
     6    3    4 ar  
     7    3   10 1   
     8    4    5 ar  
     9    4   51 1   
    10    5    6 ar  
    11    5    7 1   
    12    6   26 1   
    13    7    8 1   
    14    7    9 1   
    15   10   11 1   
    16   10   39 1   
    17   11   12 1   
    18   11   13 1   
    19   11   40 1   
    20   12   14 1   
    21   12   41 1   
    22   12   42 1   
    23   13   15 1   
    24   13   46 1   
    25   13   47 1   
    26   14   43 1   
    27   14   44 1   
    28   14   45 1   
    29   15   48 1   
    30   15   49 1   
    31   15   50 1   
    32   16   17 1   
    33   16   20 1   
    34   17   18 1   
    35   17   22 1   
    36   17   24 1   
    37   18   19 1   
    38   18   30 1   
    39   18   31 1   
    40   19   20 1   
    41   19   28 1   
    42   19   29 1   
    43   20   21 2   
    44   22   23 1   
    45   22   32 1   
    46   22   33 1   
    47   23   34 1   
    48   24   25 1   
    49   24   35 1   
    50   24   36 1   
    51   25   37 1   
    52   25   38 1   
@<TRIPOS>SUBSTRUCTURE
     1 IBA         1 TEMP              0 ****  ****    0 ROOT
