@<TRIPOS>MOLECULE
IBA
   52    53     1     0     0
SMALL
bcc


@<TRIPOS>ATOM
      1 C6          0.0130   -0.1310   -0.2470 ca        1 IBA     -0.143000
      2 C5          1.4250   -0.1190   -0.2560 ca        1 IBA     -0.092400
      3 C4          2.1400   -0.0440    0.9830 ca        1 IBA      0.086600
      4 C3          1.3940    0.1970    2.1530 ca        1 IBA     -0.157000
      5 C2          0.0070    0.3140    2.1240 ca        1 IBA     -0.086600
      6 C7         -0.6850    0.0910    0.9290 ca        1 IBA     -0.127000
      7 C1         -0.7460    0.7380    3.3910 c         1 IBA      0.908200
      8 O21        -0.0450    1.0120    4.4010 o         1 IBA     -0.801800
      9 O20        -1.9990    0.8160    3.3110 o         1 IBA     -0.801800
     10 N4          3.5580   -0.1180    0.9620 nh        1 IBA     -0.740600
     11 C8          4.2580   -0.1120    2.2470 c3        1 IBA      0.176500
     12 C11         4.4490    1.3080    2.8050 c3        1 IBA     -0.087400
     13 C9          5.6230   -0.8190    2.1560 c3        1 IBA     -0.087400
     14 C12         5.3260    2.1950    1.9630 c3        1 IBA     -0.090100
     15 C10         5.4870   -2.3120    2.0170 c3        1 IBA     -0.090100
     16 N5          2.0870   -0.1280   -1.5160 n         1 IBA     -0.349000
     17 C13         2.3150    1.1670   -2.1710 c3        1 IBA      0.066400
     18 C14         3.3190    0.8910   -3.3300 c3        1 IBA     -0.094400
     19 C15         3.8130   -0.5350   -3.1280 c3        1 IBA     -0.167400
     20 C16         3.0460   -1.0720   -1.9250 c         1 IBA      0.695500
     21 O13         3.2230   -2.1820   -1.4120 o         1 IBA     -0.573500
     22 C18         1.0040    1.7510   -2.7630 c3        1 IBA      0.118400
     23 O18         0.3330    2.5860   -1.8450 oh        1 IBA     -0.647800
     24 C17         2.9460    2.1700   -1.1540 c3        1 IBA      0.068800
     25 N17         2.9000    3.5900   -1.5910 n4        1 IBA     -0.833600
     26 H7         -1.7890    0.1070    0.9540 ha        1 IBA      0.175000
     27 H6         -0.5350   -0.3080   -1.1860 ha        1 IBA      0.123000
     28 H151        4.9090   -0.5760   -2.9130 hc        1 IBA      0.091700
     29 H152        3.6060   -1.1800   -4.0180 hc        1 IBA      0.091700
     30 H141        2.8060    0.9890   -4.3200 hc        1 IBA      0.052200
     31 H142        4.1660    1.6180   -3.3080 hc        1 IBA      0.052200
     32 H181        1.2490    2.4220   -3.6320 h1        1 IBA      0.068700
     33 H182        0.3330    0.9230   -3.1180 h1        1 IBA      0.068700
     34 H18        -0.1050    2.0260   -1.1830 ho        1 IBA      0.462000
     35 H171        2.3800    2.1160   -0.1710 hx        1 IBA      0.136200
     36 H172        4.0210    1.8860   -0.9650 hx        1 IBA      0.136200
     37 H11         3.2940    3.6920   -2.5270 hn        1 IBA      0.458133
     38 H12         3.4270    4.1670   -0.9310 hn        1 IBA      0.458133
     39 HN4         3.8490   -0.9220    0.4300 hn        1 IBA      0.390800
     40 H8          3.6560   -0.6820    3.0250 h1        1 IBA      0.062700
     41 H111        4.9000    1.2060    3.8290 hc        1 IBA      0.051950
     42 H112        3.4430    1.7900    2.9360 hc        1 IBA      0.051950
     43 H121        5.4440    3.1920    2.4530 hc        1 IBA      0.030200
     44 H122        6.3400    1.7460    1.8300 hc        1 IBA      0.030200
     45 H123        4.8800    2.3540    0.9510 hc        1 IBA      0.030200
     46 H91         6.1880   -0.5840    3.0960 hc        1 IBA      0.051950
     47 H92         6.2190   -0.4100    1.2990 hc        1 IBA      0.051950
     48 H101        5.0230   -2.5940    1.0400 hc        1 IBA      0.030200
     49 H102        4.8530   -2.7300    2.8360 hc        1 IBA      0.030200
     50 H103        6.4930   -2.7940    2.0720 hc        1 IBA      0.030200
     51 H3          1.8740    0.3200    3.1410 ha        1 IBA      0.178000
     52 H173        1.9140    3.9020   -1.6070 hn        1 IBA      0.458133
@<TRIPOS>BOND
     1    1    2 ar  
     2    1    6 ar  
     3    1   27 1   
     4    2    3 ar  
     5    2   16 1   
     6    3    4 ar  
     7    3   10 1   
     8    4    5 ar  
     9    4   51 1   
    10    5    6 ar  
    11    5    7 1   
    12    6   26 1   
    13    7    8 1   
    14    7    9 1   
    15   10   11 1   
    16   10   39 1   
    17   11   12 1   
    18   11   13 1   
    19   11   40 1   
    20   12   14 1   
    21   12   41 1   
    22   12   42 1   
    23   13   15 1   
    24   13   46 1   
    25   13   47 1   
    26   14   43 1   
    27   14   44 1   
    28   14   45 1   
    29   15   48 1   
    30   15   49 1   
    31   15   50 1   
    32   16   17 1   
    33   16   20 1   
    34   17   18 1   
    35   17   22 1   
    36   17   24 1   
    37   18   19 1   
    38   18   30 1   
    39   18   31 1   
    40   19   20 1   
    41   19   28 1   
    42   19   29 1   
    43   20   21 2   
    44   22   23 1   
    45   22   32 1   
    46   22   33 1   
    47   23   34 1   
    48   24   25 1   
    49   24   35 1   
    50   24   36 1   
    51   25   37 1   
    52   25   38 1   
    53   25   52 1   
@<TRIPOS>SUBSTRUCTURE
     1 IBA         1 TEMP              0 ****  ****    0 ROOT
