@<TRIPOS>MOLECULE
IBB
   50    55     1     0     0
SMALL
bcc


@<TRIPOS>ATOM
      1 C1          0.6230    0.1920   -0.2120 c3        1 IBB      0.421000
      2 C2          0.4540   -0.0120    2.1430 c3        1 IBB      0.120800
      3 C3         -0.5410   -1.0040    1.4710 c3        1 IBB      0.120800
      4 C4         -0.0650    1.3540   -0.9070 ca        1 IBB     -0.035300
      5 C5          0.4110    1.7510   -2.1750 ca        1 IBB     -0.146000
      6 C6         -0.1580    2.8010   -2.8750 ca        1 IBB     -0.074000
      7 C7         -1.2390    3.4830   -2.2960 ca        1 IBB      0.067400
      8 C8         -1.7220    3.0650   -0.9910 ca        1 IBB     -0.074200
      9 C9         -1.1330    2.0000   -0.2980 ca        1 IBB     -0.092000
     10 C10        -2.9190    4.8040   -1.7830 cc        1 IBB      0.465400
     11 C11        -4.6420    8.0440   -2.4420 ca        1 IBB     -0.081200
     12 C12        -5.9350    7.8240   -1.8130 ca        1 IBB      0.080400
     13 C13        -6.1920    6.5930   -1.1930 ca        1 IBB     -0.075000
     14 C14        -5.1980    5.6280   -1.1990 ca        1 IBB     -0.142000
     15 C15        -5.9690    9.8550   -2.6530 cc        1 IBB      0.483400
     16 C16        -6.3780   11.2000   -3.0610 ca        1 IBB     -0.157900
     17 C17        -7.7240   11.4490   -3.3600 ca        1 IBB     -0.061500
     18 C18        -8.1330   12.7210   -3.7490 ca        1 IBB     -0.191000
     19 C19        -7.1860   13.7520   -3.8370 ca        1 IBB      0.142100
     20 C20        -5.8340   13.5160   -3.5310 ca        1 IBB     -0.191000
     21 C21        -5.4410   12.2410   -3.1430 ca        1 IBB     -0.061500
     22 C22        -3.9420    5.8550   -1.8060 ca        1 IBB     -0.100900
     23 C23        -3.6460    7.0620   -2.4390 ca        1 IBB     -0.085000
     24 N1          1.2210    0.6330    1.0810 n7        1 IBB     -0.800200
     25 N2         -0.3400   -0.9220    0.0270 n7        1 IBB     -0.800200
     26 N3         -2.7890    3.9120   -0.6910 na        1 IBB     -0.277300
     27 N4         -2.0070    4.5680   -2.7560 nd        1 IBB     -0.564100
     28 N5         -6.7310    8.9720   -1.9640 nd        1 IBB     -0.566100
     29 N6         -4.6860    9.3400   -2.9590 na        1 IBB     -0.276300
     30 O1         -7.5130   15.0310   -4.2170 oh        1 IBB     -0.492100
     31 H1          1.4490   -0.1700   -0.9020 h2        1 IBB      0.040700
     32 H21A       -0.1140    0.7870    2.6900 h1        1 IBB      0.051700
     33 H22         1.1100   -0.5430    2.8800 h1        1 IBB      0.051700
     34 H31        -1.5970   -0.6920    1.6890 h1        1 IBB      0.051700
     35 H32        -0.3930   -2.0430    1.8630 h1        1 IBB      0.051700
     36 H5          1.2600    1.2100   -2.6210 ha        1 IBB      0.127000
     37 H6          0.2200    3.0990   -3.8630 ha        1 IBB      0.145000
     38 H9         -1.4970    1.6840    0.6890 ha        1 IBB      0.141000
     39 H13        -7.1650    6.4030   -0.7180 ha        1 IBB      0.151000
     40 H14        -5.4070    4.6520   -0.7350 ha        1 IBB      0.133000
     41 H17        -8.4660   10.6370   -3.2850 ha        1 IBB      0.147500
     42 H18        -9.1890   12.9160   -3.9840 ha        1 IBB      0.148500
     43 H20        -5.1110   14.3410   -3.5980 ha        1 IBB      0.148500
     44 H21        -4.3850   12.0660   -2.8850 ha        1 IBB      0.147500
     45 H23        -2.6730    7.2310   -2.9200 ha        1 IBB      0.160000
     46 HN1         2.1830    0.3550    1.1180 hn        1 IBB      0.353800
     47 HN2         0.0410   -1.7780   -0.3280 hn        1 IBB      0.353800
     48 HN3        -3.3180    3.9250    0.1390 hn        1 IBB      0.306700
     49 HN6        -3.9930    9.7790   -3.5030 hn        1 IBB      0.309700
     50 HO1        -8.4670   15.0610   -4.3840 ho        1 IBB      0.424000
@<TRIPOS>BOND
     1    1    4 1   
     2    1   24 1   
     3    1   25 1   
     4    1   31 1   
     5    2    3 1   
     6    2   24 1   
     7    2   32 1   
     8    2   33 1   
     9    3   25 1   
    10    3   34 1   
    11    3   35 1   
    12    4    5 ar  
    13    4    9 ar  
    14    5    6 ar  
    15    5   36 1   
    16    6    7 ar  
    17    6   37 1   
    18    7    8 ar  
    19    7   27 1   
    20    8    9 ar  
    21    8   26 1   
    22    9   38 1   
    23   10   22 1   
    24   10   26 1   
    25   10   27 2   
    26   11   12 ar  
    27   11   23 ar  
    28   11   29 1   
    29   12   13 ar  
    30   12   28 1   
    31   13   14 ar  
    32   13   39 1   
    33   14   22 ar  
    34   14   40 1   
    35   15   16 1   
    36   15   28 2   
    37   15   29 1   
    38   16   17 ar  
    39   16   21 ar  
    40   17   18 ar  
    41   17   41 1   
    42   18   19 ar  
    43   18   42 1   
    44   19   20 ar  
    45   19   30 1   
    46   20   21 ar  
    47   20   43 1   
    48   21   44 1   
    49   22   23 ar  
    50   23   45 1   
    51   24   46 1   
    52   25   47 1   
    53   26   48 1   
    54   29   49 1   
    55   30   50 1   
@<TRIPOS>SUBSTRUCTURE
     1 IBB         1 TEMP              0 ****  ****    0 ROOT
