@<TRIPOS>MOLECULE
IBB
   50    55     1     0     0
SMALL
bcc


@<TRIPOS>ATOM
      1 C1          0.6080    0.1780   -0.2260 c3        1 IBB      0.421000
      2 C2          0.5130    0.0230    2.1370 c3        1 IBB      0.120800
      3 C3         -0.5130   -0.9720    1.5170 c3        1 IBB      0.120800
      4 C4         -0.0900    1.3340   -0.9220 ca        1 IBB     -0.035300
      5 C5          0.3480    1.7000   -2.2120 ca        1 IBB     -0.146000
      6 C6         -0.2330    2.7420   -2.9150 ca        1 IBB     -0.074000
      7 C7         -1.2870    3.4470   -2.3150 ca        1 IBB      0.067400
      8 C8         -1.7320    3.0600   -0.9870 ca        1 IBB     -0.074200
      9 C9         -1.1320    2.0030   -0.2920 ca        1 IBB     -0.092000
     10 C10        -2.9370    4.7960   -1.7750 cc        1 IBB      0.465400
     11 C11        -4.6470    8.0400   -2.4420 ca        1 IBB     -0.081200
     12 C12        -5.9210    7.8470   -1.7690 ca        1 IBB      0.080400
     13 C13        -6.1710    6.6300   -1.1170 ca        1 IBB     -0.075000
     14 C14        -5.1880    5.6550   -1.1360 ca        1 IBB     -0.142000
     15 C15        -5.9620    9.8610   -2.6470 cc        1 IBB      0.483400
     16 C16        -6.3700   11.2030   -3.0680 ca        1 IBB     -0.157900
     17 C17        -7.7230   11.4600   -3.3290 ca        1 IBB     -0.061500
     18 C18        -8.1310   12.7290   -3.7300 ca        1 IBB     -0.191000
     19 C19        -7.1770   13.7480   -3.8680 ca        1 IBB      0.142100
     20 C20        -5.8180   13.5030   -3.6010 ca        1 IBB     -0.191000
     21 C21        -5.4260   12.2320   -3.2010 ca        1 IBB     -0.061500
     22 C22        -3.9490    5.8570   -1.7860 ca        1 IBB     -0.100900
     23 C23        -3.6620    7.0480   -2.4520 ca        1 IBB     -0.085000
     24 N1          1.2520    0.6380    1.0380 n3        1 IBB     -0.800200
     25 N2         -0.3580   -0.9200    0.0660 n3        1 IBB     -0.800200
     26 N3         -2.7810    3.9240   -0.6700 na        1 IBB     -0.277300
     27 N4         -2.0580    4.5310   -2.7720 nd        1 IBB     -0.564100
     28 N5         -6.7110    9.0000   -1.9170 nd        1 IBB     -0.566100
     29 N6         -4.6940    9.3270   -2.9830 na        1 IBB     -0.276300
     30 O1         -7.5030   15.0220   -4.2630 oh        1 IBB     -0.492100
     31 H1          1.4080   -0.2070   -0.9350 h2        1 IBB      0.040700
     32 H21A        1.1880   -0.5010    2.8630 h1        1 IBB      0.051700
     33 H22        -0.0290    0.8390    2.6850 h1        1 IBB      0.051700
     34 H31        -0.3630   -2.0050    1.9250 h1        1 IBB      0.051700
     35 H32        -1.5580   -0.6450    1.7630 h1        1 IBB      0.051700
     36 H5          1.1770    1.1410   -2.6740 ha        1 IBB      0.127000
     37 H6          0.1170    3.0170   -3.9200 ha        1 IBB      0.145000
     38 H9         -1.4670    1.7100    0.7120 ha        1 IBB      0.141000
     39 H13        -7.1310    6.4600   -0.6080 ha        1 IBB      0.151000
     40 H14        -5.3910    4.6910   -0.6460 ha        1 IBB      0.133000
     41 H17        -8.4700   10.6570   -3.2140 ha        1 IBB      0.147500
     42 H18        -9.1920   12.9300   -3.9340 ha        1 IBB      0.148500
     43 H20        -5.0890   14.3190   -3.7070 ha        1 IBB      0.148500
     44 H21        -4.3640   12.0500   -2.9730 ha        1 IBB      0.147500
     45 H23        -2.7020    7.1980   -2.9670 ha        1 IBB      0.160000
     46 HN1         2.2120    0.3500    1.0500 hn        1 IBB      0.353800
     47 HN2         0.0030   -1.7870   -0.2840 hn        1 IBB      0.353800
     48 HN3        -3.2820    3.9590    0.1760 hn        1 IBB      0.306700
     49 HN6        -4.0150    9.7480   -3.5580 hn        1 IBB      0.309700
     50 HO1        -8.4610   15.0590   -4.3990 ho        1 IBB      0.424000
@<TRIPOS>BOND
     1    1    4 1   
     2    1   24 1   
     3    1   25 1   
     4    1   31 1   
     5    2    3 1   
     6    2   24 1   
     7    2   32 1   
     8    2   33 1   
     9    3   25 1   
    10    3   34 1   
    11    3   35 1   
    12    4    5 ar  
    13    4    9 ar  
    14    5    6 ar  
    15    5   36 1   
    16    6    7 ar  
    17    6   37 1   
    18    7    8 ar  
    19    7   27 1   
    20    8    9 ar  
    21    8   26 1   
    22    9   38 1   
    23   10   22 1   
    24   10   26 1   
    25   10   27 2   
    26   11   12 ar  
    27   11   23 ar  
    28   11   29 1   
    29   12   13 ar  
    30   12   28 1   
    31   13   14 ar  
    32   13   39 1   
    33   14   22 ar  
    34   14   40 1   
    35   15   16 1   
    36   15   28 2   
    37   15   29 1   
    38   16   17 ar  
    39   16   21 ar  
    40   17   18 ar  
    41   17   41 1   
    42   18   19 ar  
    43   18   42 1   
    44   19   20 ar  
    45   19   30 1   
    46   20   21 ar  
    47   20   43 1   
    48   21   44 1   
    49   22   23 ar  
    50   23   45 1   
    51   24   46 1   
    52   25   47 1   
    53   26   48 1   
    54   29   49 1   
    55   30   50 1   
@<TRIPOS>SUBSTRUCTURE
     1 IBB         1 TEMP              0 ****  ****    0 ROOT
