@<TRIPOS>MOLECULE
IBB
   50    55     1     0     0
SMALL
bcc


@<TRIPOS>ATOM
      1 C1         -0.1530   -0.2870   -7.3790 c3        1 IBB      0.421000
      2 C2         -1.0960    1.4590   -8.6840 c3        1 IBB      0.124300
      3 C3          0.4120    1.7510   -8.4550 c3        1 IBB      0.124300
      4 C4         -0.2620   -0.5470   -5.8860 ca        1 IBB     -0.090300
      5 C5         -1.1610   -1.5690   -5.4960 ca        1 IBB     -0.150000
      6 C6         -1.3540   -1.9170   -4.1720 ca        1 IBB     -0.075000
      7 C7         -0.6260   -1.2270   -3.1890 ca        1 IBB      0.069400
      8 C8          0.2960   -0.1830   -3.5990 ca        1 IBB     -0.082200
      9 C9          0.4740    0.1590   -4.9470 ca        1 IBB     -0.097000
     10 C10         0.2910   -0.4310   -1.3570 cc        1 IBB      0.468400
     11 C11         0.0530   -0.1000    2.3480 ca        1 IBB     -0.081200
     12 C12         1.4000    0.3230    2.6950 ca        1 IBB      0.081400
     13 C13         2.3510    0.4770    1.6740 ca        1 IBB     -0.074000
     14 C14         1.9670    0.2240    0.3680 ca        1 IBB     -0.142000
     15 C15         0.2650    0.2050    4.5730 cc        1 IBB      0.484400
     16 C16        -0.1260    0.2390    5.9840 ca        1 IBB     -0.158900
     17 C17         0.8270   -0.0580    6.9680 ca        1 IBB     -0.061500
     18 C18         0.4760   -0.0310    8.3140 ca        1 IBB     -0.191000
     19 C19        -0.8380    0.2980    8.6770 ca        1 IBB      0.143100
     20 C20        -1.8000    0.6050    7.6980 ca        1 IBB     -0.191000
     21 C21        -1.4350    0.5750    6.3590 ca        1 IBB     -0.061500
     22 C22         0.6510   -0.1780    0.0420 ca        1 IBB     -0.103900
     23 C23        -0.3220   -0.3500    1.0250 ca        1 IBB     -0.084000
     24 N1         -1.4230    0.2350   -7.9570 n3        1 IBB     -0.805700
     25 N2          0.9780    0.6120   -7.7370 n3        1 IBB     -0.805700
     26 N3          0.8660    0.3050   -2.4220 na        1 IBB     -0.275300
     27 N4         -0.6040   -1.3520   -1.7890 nd        1 IBB     -0.564100
     28 N5          1.4930    0.5040    4.0850 nd        1 IBB     -0.566100
     29 N6         -0.6490   -0.1580    3.5540 na        1 IBB     -0.276300
     30 O1         -1.2600    0.3410    9.9830 oh        1 IBB     -0.492100
     31 H1          0.0060   -1.3020   -7.8670 h2        1 IBB      0.063700
     32 H21A       -1.2950    1.2720   -9.7740 h1        1 IBB      0.050450
     33 H22        -1.7200    2.3320   -8.3600 h1        1 IBB      0.050450
     34 H31         0.9320    1.9400   -9.4300 h1        1 IBB      0.050450
     35 H32         0.5360    2.6610   -7.8090 h1        1 IBB      0.050450
     36 H5         -1.7220   -2.1030   -6.2800 ha        1 IBB      0.140000
     37 H6         -2.0550   -2.7130   -3.8860 ha        1 IBB      0.148000
     38 H9          1.1770    0.9550   -5.2320 ha        1 IBB      0.156000
     39 H13         3.3770    0.7880    1.9160 ha        1 IBB      0.151000
     40 H14         2.7180    0.3200   -0.4300 ha        1 IBB      0.132000
     41 H17         1.8600   -0.3100    6.6780 ha        1 IBB      0.147500
     42 H18         1.2230   -0.2640    9.0860 ha        1 IBB      0.148500
     43 H20        -2.8210    0.8690    8.0060 ha        1 IBB      0.148500
     44 H21        -2.1860    0.8370    5.5970 ha        1 IBB      0.147500
     45 H23        -1.3410   -0.6750    0.7690 ha        1 IBB      0.160000
     46 HN1        -2.0860    0.4190   -7.2270 hn        1 IBB      0.363300
     47 HN2         1.6250    0.1120   -8.3160 hn        1 IBB      0.363300
     48 HN3         1.5220    1.0340   -2.3410 hn        1 IBB      0.307700
     49 HN6        -1.5730   -0.4730    3.6810 hn        1 IBB      0.309700
     50 HO1        -0.5050    0.1250   10.5510 ho        1 IBB      0.424000
@<TRIPOS>BOND
     1    1    4 1   
     2    1   24 1   
     3    1   25 1   
     4    1   31 1   
     5    2    3 1   
     6    2   24 1   
     7    2   32 1   
     8    2   33 1   
     9    3   25 1   
    10    3   34 1   
    11    3   35 1   
    12    4    5 ar  
    13    4    9 ar  
    14    5    6 ar  
    15    5   36 1   
    16    6    7 ar  
    17    6   37 1   
    18    7    8 ar  
    19    7   27 1   
    20    8    9 ar  
    21    8   26 1   
    22    9   38 1   
    23   10   22 1   
    24   10   26 1   
    25   10   27 2   
    26   11   12 ar  
    27   11   23 ar  
    28   11   29 1   
    29   12   13 ar  
    30   12   28 1   
    31   13   14 ar  
    32   13   39 1   
    33   14   22 ar  
    34   14   40 1   
    35   15   16 1   
    36   15   28 2   
    37   15   29 1   
    38   16   17 ar  
    39   16   21 ar  
    40   17   18 ar  
    41   17   41 1   
    42   18   19 ar  
    43   18   42 1   
    44   19   20 ar  
    45   19   30 1   
    46   20   21 ar  
    47   20   43 1   
    48   21   44 1   
    49   22   23 ar  
    50   23   45 1   
    51   24   46 1   
    52   25   47 1   
    53   26   48 1   
    54   29   49 1   
    55   30   50 1   
@<TRIPOS>SUBSTRUCTURE
     1 IBB         1 TEMP              0 ****  ****    0 ROOT
