@<TRIPOS>MOLECULE
IBC
   31    32     1     0     0
SMALL
bcc


@<TRIPOS>ATOM
      1 O4          0.4010    0.3160   -0.2330 o         1 IBC     -0.758300
      2 C11         1.5260   -0.1920   -0.1130 c         1 IBC      0.935600
      3 O3          2.2770   -0.7220   -0.9750 o         1 IBC     -0.758300
      4 C10         2.1240   -0.1830    1.3790 c3        1 IBC     -0.067500
      5 N2          3.3540   -1.0320    1.4120 n4        1 IBC     -0.837600
      6 C9          2.3740    1.2640    1.7750 c3        1 IBC     -0.054200
      7 C4          3.1390    1.4310    3.0510 ce        1 IBC     -0.025400
      8 C1          2.3940    1.5020    4.2790 cc        1 IBC     -0.294400
      9 C5          4.4830    1.5500    2.9980 c2        1 IBC     -0.204200
     10 C6          5.3990    1.7150    4.1490 c3        1 IBC     -0.048200
     11 C7          5.0560    2.9060    5.0240 c3        1 IBC     -0.073400
     12 C8          4.0230    2.5740    6.0780 c3        1 IBC     -0.126700
     13 C3          2.7970    1.9940    5.5160 cd        1 IBC      0.310000
     14 O1          1.7100    1.8950    6.4130 os        1 IBC     -0.112100
     15 N1          0.6570    1.3670    5.8120 nd        1 IBC     -0.432300
     16 C2          0.9940    1.1100    4.5240 cc        1 IBC      0.545600
     17 O2          0.2130    0.5440    3.5650 oh        1 IBC     -0.581300
     18 H10         1.3600   -0.6460    2.0620 hx        1 IBC      0.104700
     19 HN21        3.6210   -1.1910    0.4120 hn        1 IBC      0.443467
     20 HN22        4.1140   -0.5730    1.9110 hn        1 IBC      0.443467
     21 H91         1.3530    1.7340    1.8590 hc        1 IBC      0.096700
     22 H92         2.9120    1.7930    0.9410 hc        1 IBC      0.096700
     23 H5          4.9820    1.5560    2.0120 ha        1 IBC      0.124000
     24 H61         5.3910    0.7780    4.7730 hc        1 IBC      0.051200
     25 H62         6.4480    1.8440    3.7650 hc        1 IBC      0.051200
     26 H71         5.9850    3.2580    5.5470 hc        1 IBC      0.059700
     27 H72         4.6910    3.7520    4.3840 hc        1 IBC      0.059700
     28 H81         4.4500    1.8450    6.8230 hc        1 IBC      0.079700
     29 H82         3.7550    3.5080    6.6490 hc        1 IBC      0.079700
     30 HO2        -0.7050    0.4950    3.8860 ho        1 IBC      0.452000
     31 H23         3.1500   -1.9290    1.8440 hn        1 IBC      0.443467
@<TRIPOS>BOND
     1    1    2 1   
     2    2    3 1   
     3    2    4 1   
     4    4    5 1   
     5    4    6 1   
     6    4   18 1   
     7    5   19 1   
     8    5   20 1   
     9    5   31 1   
    10    6    7 1   
    11    6   21 1   
    12    6   22 1   
    13    7    8 1   
    14    7    9 2   
    15    8   13 2   
    16    8   16 1   
    17    9   10 1   
    18    9   23 1   
    19   10   11 1   
    20   10   24 1   
    21   10   25 1   
    22   11   12 1   
    23   11   26 1   
    24   11   27 1   
    25   12   13 1   
    26   12   28 1   
    27   12   29 1   
    28   13   14 1   
    29   14   15 1   
    30   15   16 2   
    31   16   17 1   
    32   17   30 1   
@<TRIPOS>SUBSTRUCTURE
     1 IBC         1 TEMP              0 ****  ****    0 ROOT
