@<TRIPOS>MOLECULE
IBC
   30    31     1     0     0
SMALL
bcc


@<TRIPOS>ATOM
      1 O4         -1.5550   -0.4920    3.0060 o         1 IBC     -0.831300
      2 C11        -0.4410    0.0310    3.3090 c         1 IBC      0.884600
      3 O3         -0.0100    0.1670    4.4840 o         1 IBC     -0.831300
      4 C10         0.4300    0.5530    2.1210 c3        1 IBC      0.014500
      5 N2          1.6720    1.1990    2.5220 n3        1 IBC     -0.884800
      6 C9          0.6510   -0.6130    1.1450 c3        1 IBC     -0.040200
      7 C4          0.7430   -0.1570   -0.2740 ce        1 IBC     -0.015400
      8 C1         -0.3940   -0.3600   -1.1370 cc        1 IBC     -0.300400
      9 C5          1.8920    0.3930   -0.7180 c2        1 IBC     -0.181200
     10 C6          2.1480    0.8450   -2.1040 c3        1 IBC     -0.041200
     11 C7          2.0390   -0.2940   -3.1030 c3        1 IBC     -0.070400
     12 C8          0.6220   -0.5090   -3.5890 c3        1 IBC     -0.110700
     13 C3         -0.3820   -0.5070   -2.5170 cd        1 IBC      0.265000
     14 O1         -1.7120   -0.6830   -2.9620 os        1 IBC     -0.150100
     15 N1         -2.5530   -0.6420   -1.9390 nd        1 IBC     -0.442300
     16 C2         -1.8350   -0.4450   -0.8010 cc        1 IBC      0.578600
     17 O2         -2.4830   -0.3150    0.3740 oh        1 IBC     -0.599300
     18 H10        -0.1910    1.3390    1.5980 h1        1 IBC      0.048700
     19 HN21        1.4370    1.9000    3.2040 hn        1 IBC      0.334300
     20 HN22        2.2400    0.5210    3.0000 hn        1 IBC      0.334300
     21 H91        -0.1940   -1.3460    1.2630 hc        1 IBC      0.057200
     22 H92         1.5900   -1.1690    1.4110 hc        1 IBC      0.057200
     23 H5          2.7220    0.5440   -0.0070 ha        1 IBC      0.140000
     24 H61         3.1780    1.2860   -2.1670 hc        1 IBC      0.042200
     25 H62         1.4220    1.6570   -2.3810 hc        1 IBC      0.042200
     26 H71         2.4260   -1.2380   -2.6360 hc        1 IBC      0.040200
     27 H72         2.6850   -0.0730   -3.9940 hc        1 IBC      0.040200
     28 H81         0.5600   -1.4880   -4.1410 hc        1 IBC      0.057700
     29 H82         0.3470    0.3000   -4.3230 hc        1 IBC      0.057700
     30 HO2        -1.8370   -0.2830    1.1230 ho        1 IBC      0.506000
@<TRIPOS>BOND
     1    1    2 1   
     2    2    3 1   
     3    2    4 1   
     4    4    5 1   
     5    4    6 1   
     6    4   18 1   
     7    5   19 1   
     8    5   20 1   
     9    6    7 1   
    10    6   21 1   
    11    6   22 1   
    12    7    8 1   
    13    7    9 2   
    14    8   13 2   
    15    8   16 1   
    16    9   10 1   
    17    9   23 1   
    18   10   11 1   
    19   10   24 1   
    20   10   25 1   
    21   11   12 1   
    22   11   26 1   
    23   11   27 1   
    24   12   13 1   
    25   12   28 1   
    26   12   29 1   
    27   13   14 1   
    28   14   15 1   
    29   15   16 2   
    30   16   17 1   
    31   17   30 1   
@<TRIPOS>SUBSTRUCTURE
     1 IBC         1 TEMP              0 ****  ****    0 ROOT
