@<TRIPOS>MOLECULE
IBC
   30    29     1     0     0
SMALL
bcc


@<TRIPOS>ATOM
      1 O4         -3.2780   -1.4240   -1.8420 o         1 IBC     -0.567500
      2 C11        -2.9310   -0.2340   -1.6250 c2        1 IBC      0.305000
      3 O3         -3.7760    0.6010   -1.2080 o         1 IBC     -0.567500
      4 C10        -1.5080    0.1990   -1.8890 c3        1 IBC     -0.130000
      5 N2         -1.4870    1.1320   -2.9630 n3        1 IBC     -0.314000
      6 C9         -0.9390    0.8480   -0.6470 c3        1 IBC     -0.124000
      7 C4          0.1440   -0.0370   -0.0650 c2        1 IBC      0.004000
      8 C1         -0.1000   -0.7810    1.2440 c2        1 IBC     -0.145000
      9 C5          1.4670   -0.1850   -0.7840 c1        1 IBC     -0.196000
     10 C6          2.6820    0.5710   -0.2940 c2        1 IBC     -0.119000
     11 C7          2.6840    0.4200    1.2100 c3        1 IBC     -0.152000
     12 C8          1.4100    0.9860    1.7980 c3        1 IBC     -0.093000
     13 C3          0.5070   -0.1410    2.2930 c2        1 IBC     -0.025000
     14 O1          0.1660   -0.7970    3.4420 os        1 IBC     -0.091000
     15 N1         -0.6660   -1.8600    3.1000 n2        1 IBC     -0.089000
     16 C2         -0.8280   -1.8500    1.7570 c1        1 IBC      0.075000
     17 O2         -1.5910   -2.7660    1.0080 o         1 IBC     -0.258000
     18 H10        -0.9680   -0.5810   -2.1250 h1        1 IBC      0.087000
     19 HN21       -1.1860    0.7170   -3.7220 hn        1 IBC      0.128500
     20 HN22       -2.3340    1.4520   -3.1050 hn        1 IBC      0.128500
     21 H91        -1.6510    0.9680    0.0130 hc        1 IBC      0.098000
     22 H92        -0.5590    1.7190   -0.8790 hc        1 IBC      0.098000
     23 H5          1.5300   -0.7500   -1.5780 ha        1 IBC      0.121000
     24 H61         3.5840    0.4310   -0.6470 ha        1 IBC      0.076000
     25 H62         2.5240    1.4970   -0.5740 ha        1 IBC      0.076000
     26 H71         2.7160   -0.5350    1.4190 hc        1 IBC      0.086000
     27 H72         3.4360    0.9340    1.5650 hc        1 IBC      0.086000
     28 H81         1.6510    1.5420    2.5660 hc        1 IBC      0.096000
     29 H82         0.9350    1.4650    1.0890 hc        1 IBC      0.096000
     30 HO2        -1.6320   -3.5420    1.4420 ho        1 IBC      0.308000
@<TRIPOS>BOND
     1    1    2 1   
     2    2    3 1   
     3    2    4 1   
     4    4    5 1   
     5    4    6 1   
     6    4   18 1   
     7    5   19 1   
     8    5   20 1   
     9    6    7 1   
    10    6   21 1   
    11    6   22 1   
    12    7    8 1   
    13    7    9 1   
    14    8   13 1   
    15    8   16 1   
    16    9   23 1   
    17   10   11 1   
    18   10   24 1   
    19   10   25 1   
    20   11   12 1   
    21   11   26 1   
    22   11   27 1   
    23   12   13 1   
    24   12   28 1   
    25   12   29 1   
    26   13   14 1   
    27   14   15 1   
    28   15   16 1   
    29   17   30 1   
@<TRIPOS>SUBSTRUCTURE
     1 IBC         1 TEMP              0 ****  ****    0 ROOT
