@<TRIPOS>MOLECULE
IBC
   31    32     1     0     0
SMALL
bcc


@<TRIPOS>ATOM
      1 O4          0.3820    0.3070   -0.2190 o         1 IBC     -0.758300
      2 C11         1.5100   -0.1950   -0.1060 c         1 IBC      0.935600
      3 O3          2.2600   -0.7210   -0.9730 o         1 IBC     -0.758300
      4 C10         2.1180   -0.1830    1.3830 c3        1 IBC     -0.067500
      5 N2          3.3520   -1.0260    1.4090 nz        1 IBC     -0.837600
      6 C9          2.3620    1.2650    1.7770 c3        1 IBC     -0.054200
      7 C4          3.1330    1.4350    3.0490 ce        1 IBC     -0.025400
      8 C1          2.3950    1.5020    4.2810 cc        1 IBC     -0.294400
      9 C5          4.4770    1.5610    2.9890 c2        1 IBC     -0.204200
     10 C6          5.3980    1.7310    4.1340 c3        1 IBC     -0.048200
     11 C7          5.0540    2.9210    5.0110 c3        1 IBC     -0.073400
     12 C8          4.0280    2.5840    6.0710 c3        1 IBC     -0.126700
     13 C3          2.8020    1.9970    5.5160 cd        1 IBC      0.310000
     14 O1          1.7220    1.8920    6.4190 os        1 IBC     -0.112100
     15 N1          0.6680    1.3590    5.8240 nd        1 IBC     -0.432300
     16 C2          0.9980    1.1030    4.5340 cc        1 IBC      0.545600
     17 O2          0.2150    0.5330    3.5800 oh        1 IBC     -0.581300
     18 H10         1.3600   -0.6500    2.0700 hx        1 IBC      0.104700
     19 HN21        3.6140   -1.1830    0.4070 hn        1 IBC      0.443467
     20 HN22        4.1120   -0.5630    1.9040 hn        1 IBC      0.443467
     21 H91         2.8920    1.7960    0.9400 hc        1 IBC      0.096700
     22 H92         1.3390    1.7300    1.8670 hc        1 IBC      0.096700
     23 H5          4.9690    1.5700    2.0000 ha        1 IBC      0.124000
     24 H61         6.4440    1.8660    3.7440 hc        1 IBC      0.051200
     25 H62         5.3980    0.7950    4.7580 hc        1 IBC      0.051200
     26 H71         4.6800    3.7650    4.3730 hc        1 IBC      0.059700
     27 H72         5.9840    3.2770    5.5290 hc        1 IBC      0.059700
     28 H81         3.7580    3.5160    6.6430 hc        1 IBC      0.079700
     29 H82         4.4630    1.8580    6.8140 hc        1 IBC      0.079700
     30 HO2        -0.7010    0.4790    3.9060 ho        1 IBC      0.452000
     31 H23         3.1550   -1.9240    1.8410 hn        1 IBC      0.443467
@<TRIPOS>BOND
     1    1    2 1   
     2    2    3 1   
     3    2    4 1   
     4    4    5 1   
     5    4    6 1   
     6    4   18 1   
     7    5   19 1   
     8    5   20 1   
     9    5   31 1   
    10    6    7 1   
    11    6   21 1   
    12    6   22 1   
    13    7    8 1   
    14    7    9 2   
    15    8   13 2   
    16    8   16 1   
    17    9   10 1   
    18    9   23 1   
    19   10   11 1   
    20   10   24 1   
    21   10   25 1   
    22   11   12 1   
    23   11   26 1   
    24   11   27 1   
    25   12   13 1   
    26   12   28 1   
    27   12   29 1   
    28   13   14 1   
    29   14   15 1   
    30   15   16 2   
    31   16   17 1   
    32   17   30 1   
@<TRIPOS>SUBSTRUCTURE
     1 IBC         1 TEMP              0 ****  ****    0 ROOT
