@<TRIPOS>MOLECULE
IBD
   58    54     1     0     0
SMALL
bcc


@<TRIPOS>ATOM
      1 N1          0.1690   -1.3790    0.8410 n2        1 IBD     -0.205000
      2 C2          1.5540   -1.3620    0.5160 c2        1 IBD      0.236000
      3 N3          2.5530   -0.8300    1.3310 n2        1 IBD     -0.214000
      4 C4          2.1320   -0.2990    2.4860 c2        1 IBD     -0.121000
      5 C5          0.7440   -0.2600    2.9040 c2        1 IBD     -0.284000
      6 C6         -0.2040   -0.8350    1.9920 c2        1 IBD      0.188000
      7 CAA         0.7990    2.2900    7.8580 c2        1 IBD     -0.134000
      8 CAB        -5.8940   -6.4420    0.0720 c1        1 IBD     -0.229000
      9 CAC        -9.4660   -4.6800    2.9540 c1        1 IBD      0.042000
     10 NAD         1.9210   -1.9120   -0.6760 nh        1 IBD     -0.291000
     11 CAH        -3.7750    0.2770    2.6650 ca        1 IBD     -0.091000
     12 CAI        -2.2720   -2.0840    2.5390 ca        1 IBD     -0.117000
     13 CAJ         0.5860    0.3610    4.1540 c2        1 IBD      0.091000
     14 CAK         0.2580    3.5000    8.0030 c2        1 IBD     -0.130000
     15 CAL        -6.1620   -5.5770   -0.7120 c1        1 IBD     -0.229000
     16 CAM       -10.7090   -4.9060    3.1830 c2        1 IBD     -0.372000
     17 CAN        -3.5800   -4.3800    3.5320 c2        1 IBD     -0.055000
     18 CAO        -3.7770   -5.6200    3.0790 c2        1 IBD     -0.241000
     19 SAT         3.1220    0.4160    3.6510 ss        1 IBD      0.620000
     20 CAW        -4.4000   -0.9510    2.8940 ca        1 IBD     -0.063000
     21 CAX        -2.4050    0.3300    2.3770 ca        1 IBD     -0.052000
     22 CAY        -3.6420   -2.1340    2.8180 ca        1 IBD      0.062000
     23 CAZ         1.8130    0.7860    4.6810 c2        1 IBD     -0.523000
     24 CBA        -1.6480   -0.8510    2.3290 ca        1 IBD     -0.034000
     25 NBE        -6.9520   -4.2220    2.3200 n4        1 IBD     -0.228000
     26 HAA         3.0030    2.9360    9.2840 ha        1 IBD      0.003667
     27 HAAA        3.6230    3.0450    9.5370 ha        1 IBD      0.003667
     28 HAAB        0.1380    3.9430    9.0050 ha        1 IBD      0.164000
     29 HAB        -4.5520   -8.1780    2.4300 ha        1 IBD      0.003667
     30 HABA       -5.6470   -7.2460    0.7240 ha        1 IBD      0.233500
     31 HABB       -4.6040   -8.8260    2.2390 ha        1 IBD      0.003667
     32 HAC       -11.1420   -5.2750    4.1370 ha        1 IBD      0.254000
     33 HACA      -11.5100   -4.7520    2.4240 ha        1 IBD      0.254000
     34 HACB       -8.0600   -4.4130    2.6110 hn        1 IBD      0.253250
     35 HNAD        1.2340   -2.2780   -1.2950 hn        1 IBD      0.271000
     36 HNAA        2.8760   -1.9090   -0.9560 hn        1 IBD      0.271000
     37 HAH        -4.3650    1.2100    2.7030 ha        1 IBD      0.186000
     38 HAI        -1.6940   -3.0200    2.4650 ha        1 IBD      0.172000
     39 HAJ        -0.3790    0.5050    4.6560 ha        1 IBD      0.184000
     40 HAK        -0.1080    4.1060    7.1610 ha        1 IBD      0.164000
     41 HAKA        3.1810    2.3400    7.3180 hn        1 IBD      0.280500
     42 HAL        -6.3870   -4.8320   -1.4370 ha        1 IBD      0.233500
     43 HALA       -6.7560   -3.2250    2.2910 hn        1 IBD      0.253250
     44 HAM        -8.1490   -5.3580    4.7790 ha        1 IBD      0.003667
     45 HAMA       -8.6540   -5.0700    5.1330 ha        1 IBD      0.003667
     46 HAN        -2.9350   -4.0810    4.3700 h4        1 IBD      0.163000
     47 HANA       -3.2980   -6.4830    3.5640 ha        1 IBD      0.142500
     48 HAO        -6.7570   -4.6280    1.4070 hn        1 IBD      0.253250
     49 HAOA       -4.4070   -5.8510    2.2090 ha        1 IBD      0.142500
     50 HNAR        1.1610    1.6120    8.6440 h4        1 IBD      0.179000
     51 CAU         1.9520    1.4640    5.9310 c2        1 IBD      0.400000
     52 CLAG       -1.7070    1.8400    2.0630 cl        1 IBD      0.041000
     53 NAR         3.1270    1.8590    6.4420 n3        1 IBD     -0.320000
     54 OAS        -4.3190   -3.3430    2.9430 os        1 IBD     -0.225000
     55 HBE1       -6.3300   -4.6450    3.0030 hn        1 IBD      0.253250
     56 HAR2        3.9780    1.6860    5.9490 hn        1 IBD      0.280500
     57 CLAF       -6.0630   -0.9690    3.2420 cl        1 IBD      0.009000
     58 OAE         0.7720    1.6880    6.5770 os        1 IBD     -0.144000
@<TRIPOS>BOND
     1    1    2 1   
     2    1    6 1   
     3    2    3 1   
     4    2   10 1   
     5    3    4 1   
     6    4    5 1   
     7    4   19 1   
     8    5    6 1   
     9    5   13 1   
    10    6   24 1   
    11    7   14 1   
    12    7   50 1   
    13    7   58 1   
    14    8   15 1   
    15    8   30 1   
    16    9   16 1   
    17   10   35 1   
    18   10   36 1   
    19   11   20 1   
    20   11   21 1   
    21   11   37 1   
    22   12   22 1   
    23   12   24 1   
    24   12   38 1   
    25   13   23 1   
    26   13   39 1   
    27   14   28 1   
    28   14   40 1   
    29   15   42 1   
    30   16   32 1   
    31   16   33 1   
    32   17   18 1   
    33   17   46 1   
    34   17   54 1   
    35   18   47 1   
    36   18   49 1   
    37   19   23 1   
    38   20   22 1   
    39   20   57 1   
    40   21   24 1   
    41   21   52 1   
    42   22   54 1   
    43   23   51 1   
    44   25   34 1   
    45   25   43 1   
    46   25   48 1   
    47   25   55 1   
    48   26   27 1   
    49   29   31 1   
    50   41   53 1   
    51   44   45 1   
    52   51   53 1   
    53   51   58 1   
    54   53   56 1   
@<TRIPOS>SUBSTRUCTURE
     1 IBD         1 TEMP              0 ****  ****    0 ROOT
