@<TRIPOS>MOLECULE
IBD
   56    54     1     0     0
SMALL
bcc


@<TRIPOS>ATOM
      1 N1         -0.1230   -0.0360   -0.3630 n2        1 IBD     -0.194000
      2 C2          1.2680   -0.2190   -0.5090 c2        1 IBD      0.184000
      3 N3          2.1880   -0.2270    0.5260 n2        1 IBD     -0.207000
      4 C4          1.6640   -0.0860    1.7600 c2        1 IBD     -0.170000
      5 C5          0.2610    0.0840    2.0150 c2        1 IBD     -0.239000
      6 C6         -0.5920    0.1130    0.8780 c2        1 IBD      0.128000
      7 CAA         1.9020    1.2890    9.6740 c2        1 IBD     -0.228000
      8 CAB        -4.5470   -7.2220    1.6780 c1        1 IBD      0.165000
      9 CAC        -8.9030   -7.2130    2.1820 c2        1 IBD     -0.228000
     10 NAD         1.7340   -0.4520   -1.7940 nh        1 IBD     -0.331000
     11 OAE         0.0920   -0.0350    6.2960 o         1 IBD     -0.375000
     12 CAH        -4.1240    1.5640    0.7530 c1        1 IBD     -0.034000
     13 CAI        -2.7240   -0.6690    1.8700 c2        1 IBD     -0.293000
     14 CAJ        -0.0150    0.2020    3.4110 c2        1 IBD     -0.022000
     15 CAK         1.2110    0.1760    9.4630 c2        1 IBD     -0.228000
     16 CAL        -5.2820   -7.0060    2.7310 c2        1 IBD     -0.575000
     17 CAM        -8.7700   -6.7860    3.4310 c2        1 IBD     -0.228000
     18 CAN        -4.1070   -2.5230    3.4700 c3        1 IBD     -0.081000
     19 CAO        -5.1610   -3.2710    4.3010 c3        1 IBD     -0.081000
     20 SAT         2.5300   -0.0880    3.2180 ss        1 IBD      0.560000
     21 CAW        -4.8650    0.5810    1.5540 c3        1 IBD     -0.094000
     22 CAX        -2.7380    1.3840    0.5450 c2        1 IBD     -0.171000
     23 CAY        -4.0630   -0.5560    2.1200 c2        1 IBD      0.111000
     24 CAZ         1.1340    0.1250    4.1620 c2        1 IBD     -0.429000
     25 CBA        -2.0480    0.3140    1.0760 c2        1 IBD      0.124000
     26 NBE        -6.2160   -3.9230    3.5810 n3        1 IBD     -0.346000
     27 HAA         2.6500    1.3840   10.4720 ha        1 IBD      0.115125
     28 HAAA        1.3460   -0.7270   10.0740 ha        1 IBD      0.115125
     29 HAAB        1.7600    2.1970    9.0720 ha        1 IBD      0.115125
     30 HAB        -3.6890   -6.1120    5.5760 ha        1 IBD      0.002000
     31 HABA       -6.3910   -7.0310    2.7180 ha        1 IBD      0.202000
     32 HABB       -4.2810   -6.1880    5.8970 ha        1 IBD      0.002000
     33 HAC        -8.6550   -6.5900    1.3120 ha        1 IBD      0.115125
     34 HACA       -9.0260   -7.4080    4.2990 ha        1 IBD      0.115125
     35 HACB       -9.2790   -8.2150    1.9330 ha        1 IBD      0.115125
     36 HNAD        1.1250   -0.2700   -2.5550 hn        1 IBD      0.240500
     37 HNAA        2.7120   -0.4090   -1.9540 hn        1 IBD      0.240500
     38 HAH        -5.6730    0.1540    0.8870 h1        1 IBD      0.187000
     39 HAI        -2.1270   -1.5050    2.2640 ha        1 IBD      0.160000
     40 HAJ        -1.0220    0.3320    3.8230 ha        1 IBD      0.181000
     41 HAK         2.3030    0.5890    7.2640 hn        1 IBD      0.232000
     42 HAKA        3.1030    0.7830    5.7700 hn        1 IBD      0.232000
     43 HAL        -5.8560   -4.5970    2.9320 hn        1 IBD      0.153000
     44 HALA       -4.8850   -6.7980    3.7390 ha        1 IBD      0.202000
     45 HAM        -6.7800   -3.2590    3.0890 hn        1 IBD      0.153000
     46 HAMA       -8.3970   -5.7820    3.6810 ha        1 IBD      0.115125
     47 HAN        -3.3110   -2.1050    4.1380 h1        1 IBD      0.096500
     48 HANA       -3.6480   -3.1780    2.6850 h1        1 IBD      0.096500
     49 HAO        -4.6050   -4.0490    4.9010 h1        1 IBD      0.109500
     50 HAOA       -5.6290   -2.5370    5.0180 h1        1 IBD      0.109500
     51 HNAR        0.4580    0.0820    8.6640 ha        1 IBD      0.115125
     52 CAU         1.1270    0.1940    5.6330 c2        1 IBD      0.379000
     53 CLAF       -5.7000    1.4660    2.8290 cl        1 IBD     -0.012000
     54 CLAG       -1.9510    2.5740   -0.3760 cl        1 IBD      0.023000
     55 NAR         2.3030    0.5030    6.2740 n         1 IBD     -0.434000
     56 OAS        -4.8110   -1.4460    2.8260 os        1 IBD     -0.192000
@<TRIPOS>BOND
     1    1    2 1   
     2    1    6 1   
     3    2    3 1   
     4    2   10 1   
     5    3    4 1   
     6    4    5 1   
     7    4   20 1   
     8    5    6 1   
     9    5   14 1   
    10    6   25 1   
    11    7   15 1   
    12    7   27 1   
    13    7   29 1   
    14    8   16 1   
    15    9   17 1   
    16    9   33 1   
    17    9   35 1   
    18   10   36 1   
    19   10   37 1   
    20   11   52 1   
    21   12   21 1   
    22   12   22 1   
    23   13   23 1   
    24   13   25 1   
    25   13   39 1   
    26   14   24 1   
    27   14   40 1   
    28   15   28 1   
    29   15   51 1   
    30   16   31 1   
    31   16   44 1   
    32   17   34 1   
    33   17   46 1   
    34   18   19 1   
    35   18   47 1   
    36   18   48 1   
    37   18   56 1   
    38   19   26 1   
    39   19   49 1   
    40   19   50 1   
    41   20   24 1   
    42   21   23 1   
    43   21   38 1   
    44   21   53 1   
    45   22   25 1   
    46   22   54 1   
    47   23   56 1   
    48   24   52 1   
    49   26   43 1   
    50   26   45 1   
    51   30   32 1   
    52   41   55 1   
    53   42   55 1   
    54   52   55 1   
@<TRIPOS>SUBSTRUCTURE
     1 IBD         1 TEMP              0 ****  ****    0 ROOT
