@<TRIPOS>MOLECULE
IBD
   58    58     1     0     0
SMALL
bcc


@<TRIPOS>ATOM
      1 N1         -0.0350   -1.2220    0.9940 n2        1 IBD     -0.211000
      2 C2          1.3310   -1.2730    0.5950 c2        1 IBD      0.236000
      3 N3          2.3920   -0.7480    1.3310 n2        1 IBD     -0.209000
      4 C4          2.0570   -0.1480    2.4810 c2        1 IBD     -0.122000
      5 C5          0.6970   -0.0330    2.9670 c2        1 IBD     -0.283000
      6 C6         -0.3210   -0.6090    2.1350 c2        1 IBD      0.172000
      7 CAA         1.0080    3.9460    9.3130 c2        1 IBD     -0.242000
      8 CAB        -7.8990   -5.9430    0.9650 c2        1 IBD     -0.022000
      9 CAC        -9.1020   -6.1960    1.7920 c3        1 IBD     -0.184000
     10 NAD         1.6120   -1.8890   -0.5890 nv        1 IBD     -0.293000
     11 CAH        -3.5970    0.7300    3.4910 c1        1 IBD      0.014000
     12 CAI        -2.4710   -1.7530    2.7050 c2        1 IBD     -0.226000
     13 CAJ         0.6290    0.6600    4.1880 c2        1 IBD      0.093000
     14 CAK         2.2830    3.8720    8.9450 c2        1 IBD     -0.242000
     15 CAL        -6.7590   -5.3560    1.3650 c2        1 IBD     -0.264000
     16 CAM        -8.9730   -7.4730    2.5910 c3        1 IBD     -0.216000
     17 CAN        -4.1140   -4.0720    2.7370 c3        1 IBD     -0.051000
     18 CAO        -5.1320   -5.1210    3.1940 c3        1 IBD     -0.130000
     19 SAT         3.1340    0.5860    3.5520 ss        1 IBD      0.635000
     20 CAW        -4.4050   -0.4770    3.6490 c3        1 IBD     -0.097000
     21 CAX        -2.3730    0.6840    2.7800 c2        1 IBD     -0.156000
     22 CAY        -3.7460   -1.7430    3.1790 c2        1 IBD      0.072000
     23 CAZ         1.8980    1.0680    4.6230 c2        1 IBD     -0.522000
     24 CBA        -1.7400   -0.5210    2.5560 c2        1 IBD      0.063000
     25 NBE        -6.5250   -4.8610    2.7160 ny        1 IBD      0.016000
     26 HAA         1.1580    2.6120    7.3450 ho        1 IBD      0.288000
     27 HAAA        0.5440    3.2190    9.9960 ha        1 IBD      0.126000
     28 HAAB        2.9640    3.1010    9.3330 ha        1 IBD      0.126000
     29 HAB        -3.8440   -6.0690    0.7180 ha        1 IBD      0.001000
     30 HABA       -7.9570   -6.2820   -0.0900 ha        1 IBD      0.190000
     31 HABB       -3.5680   -6.4220    0.2080 ha        1 IBD      0.001000
     32 HAC        -9.9990   -6.2800    1.1160 hc        1 IBD      0.119000
     33 HACA       -9.9150   -7.6520    3.1670 hc        1 IBD      0.095667
     34 HACB       -8.8040   -8.3490    1.9180 hc        1 IBD      0.095667
     35 HNAD        2.5500   -1.9230   -0.9230 hn        1 IBD      0.270500
     36 HNAA        0.8790   -2.2310   -1.1660 hn        1 IBD      0.270500
     37 HAH        -5.3720   -0.3110    3.0800 h1        1 IBD      0.200000
     38 HAI        -1.9740   -2.6790    2.3760 ha        1 IBD      0.165000
     39 HAJ        -0.3020    0.8750    4.7310 ha        1 IBD      0.191000
     40 HAK         2.7590    4.6400    8.3180 ha        1 IBD      0.126000
     41 HAKA        0.3400    4.7550    8.9810 ha        1 IBD      0.126000
     42 HAL        -5.8960   -5.1910    0.6910 hx        1 IBD      0.194000
     43 HALA       -6.6970   -3.8440    2.7340 hn        1 IBD      0.258000
     44 HAM        -8.1240   -7.4130    3.3140 hc        1 IBD      0.095667
     45 HAMA       -5.1650   -5.1320    4.3230 hx        1 IBD      0.163500
     46 HAN        -4.0150   -4.0260    1.6200 h1        1 IBD      0.128000
     47 HANA       -3.1230   -4.3240    3.2030 h1        1 IBD      0.128000
     48 HAO        -9.3080   -5.3310    2.4800 hc        1 IBD      0.119000
     49 HAOA       -4.8000   -6.1320    2.8170 hx        1 IBD      0.163500
     50 HNAR        4.1290    2.1010    5.6720 hn        1 IBD      0.282500
     51 CAU         2.1120    1.8220    5.8160 c2        1 IBD      0.412000
     52 ClAG       -1.6990    2.1660    2.3290 cl        1 IBD      0.065000
     53 NAR         3.3110    2.2750    6.2170 n8        1 IBD     -0.331000
     54 OAS        -4.6020   -2.8170    3.2240 os        1 IBD     -0.232000
     55 HBE1       -7.1860   -5.3130    3.3650 hn        1 IBD      0.258000
     56 HAR2        3.4160    2.8080    7.0590 hn        1 IBD      0.282500
     57 ClAF       -4.8590   -0.6100    5.3460 cl        1 IBD      0.005000
     58 OAE         0.9950    2.0600    6.5430 oh        1 IBD     -0.213000
@<TRIPOS>BOND
     1    1    2 1   
     2    1    6 1   
     3    2    3 1   
     4    2   10 1   
     5    3    4 1   
     6    4    5 1   
     7    4   19 1   
     8    5    6 1   
     9    5   13 1   
    10    6   24 1   
    11    7   14 1   
    12    7   27 1   
    13    7   41 1   
    14    8    9 1   
    15    8   15 1   
    16    8   30 1   
    17    9   16 1   
    18    9   32 1   
    19    9   48 1   
    20   10   35 1   
    21   10   36 1   
    22   11   20 1   
    23   11   21 1   
    24   12   22 1   
    25   12   24 1   
    26   12   38 1   
    27   13   23 1   
    28   13   39 1   
    29   14   28 1   
    30   14   40 1   
    31   15   25 1   
    32   15   42 1   
    33   16   33 1   
    34   16   34 1   
    35   16   44 1   
    36   17   18 1   
    37   17   46 1   
    38   17   47 1   
    39   17   54 1   
    40   18   25 1   
    41   18   45 1   
    42   18   49 1   
    43   19   23 1   
    44   20   22 1   
    45   20   37 1   
    46   20   57 1   
    47   21   24 1   
    48   21   52 1   
    49   22   54 1   
    50   23   51 1   
    51   25   43 1   
    52   25   55 1   
    53   26   58 1   
    54   29   31 1   
    55   50   53 1   
    56   51   53 1   
    57   51   58 1   
    58   53   56 1   
@<TRIPOS>SUBSTRUCTURE
     1 IBD         1 TEMP              0 ****  ****    0 ROOT
