@<TRIPOS>MOLECULE
IBD
   56    49     1     0     0
SMALL
bcc


@<TRIPOS>ATOM
      1 N1          0.7800   -2.2340    1.2880 n1        1 IBD     -0.209000
      2 C2          1.3000   -2.4280    2.6000 c1        1 IBD      0.186000
      3 N3          2.6050   -2.1270    2.8720 n1        1 IBD     -0.214000
      4 C4          3.4120   -1.6400    1.8870 c1        1 IBD     -0.206000
      5 C5          2.8920   -1.4460    0.5770 c1        1 IBD     -0.206000
      6 C6          1.5760   -1.7520    0.3080 c1        1 IBD      0.157000
      7 CAA         9.6240    0.5560    2.2000 c3        1 IBD     -0.241000
      8 CAB        -6.3250    3.5110    0.9250 c3        1 IBD     -0.212500
      9 CAC        -7.2650    0.6510   -0.9590 c3        1 IBD     -0.212500
     10 NAD         0.5460   -2.8320    3.7370 n3        1 IBD     -0.340000
     11 OAE         7.1820   -0.3040   -0.8740 o         1 IBD     -0.358000
     12 CLAF       -2.7770   -1.6280   -3.8390 cl        1 IBD      0.019000
     13 CLAG        1.2940   -4.1790   -1.2390 cl        1 IBD      0.017000
     14 CAH        -0.7530   -2.7970   -2.3920 c1        1 IBD     -0.119000
     15 CAI        -0.4030   -0.5800   -0.7210 c1        1 IBD     -0.124000
     16 CAJ         4.0710   -0.8650   -0.3580 c1        1 IBD     -0.014000
     17 CAK         9.0180   -0.3430    1.1320 c3        1 IBD     -0.033000
     18 CAL        -5.6190    3.5110   -0.4670 c3        1 IBD     -0.058000
     19 CAM        -6.3520    1.5940   -1.7440 c3        1 IBD     -0.058000
     20 CAN        -3.4740    0.6670   -1.5920 c3        1 IBD     -0.022000
     21 CAO        -4.0200    2.0770   -1.5830 c3        1 IBD     -0.061000
     22 NAR         7.6100   -0.4270    1.3290 n         1 IBD     -0.373000
     23 OAS        -2.0580    0.7030   -1.7410 os        1 IBD     -0.219000
     24 SAT         4.9270   -1.2030    1.8780 s         1 IBD      0.544000
     25 CAU         6.7550   -0.4860    0.2350 c2        1 IBD      0.375000
     26 CAW        -1.6130   -1.7090   -2.4990 c1        1 IBD     -0.055000
     27 CAX         0.2890   -2.7830   -1.4460 c2        1 IBD     -0.033000
     28 CAY        -1.4360   -0.5930   -1.6580 c1        1 IBD      0.064000
     29 CAZ         5.2660   -0.7330    0.4470 c2        1 IBD     -0.431000
     30 CBA         0.4600   -1.6750   -0.6150 c1        1 IBD     -0.032000
     31 NBE        -5.2990    2.1010   -0.8680 n3        1 IBD     -0.282000
     32 HAA         9.1660    1.4270    2.1930 hc        1 IBD      0.080667
     33 HAAA        9.5170    0.1490    3.0540 hc        1 IBD      0.080667
     34 HAAB       10.5740    0.6860    2.0160 hc        1 IBD      0.080667
     35 HAB        -6.9880    4.2410    0.9570 hc        1 IBD      0.077667
     36 HABA       -5.6410    3.6480    1.6480 hc        1 IBD      0.077667
     37 HABB       -6.7790    2.6500    1.0630 hc        1 IBD      0.077667
     38 HAC        -8.1770    0.7590   -1.2620 hc        1 IBD      0.077667
     39 HACA       -6.9760   -0.2860   -1.1060 hc        1 IBD      0.077667
     40 HACB       -7.2120    0.8620   -0.0130 hc        1 IBD      0.077667
     41 HNAD       -0.3850   -2.7020    3.7530 hn        1 IBD      0.240500
     42 HNAA        0.9740   -3.1670    4.4740 hn        1 IBD      0.240500
     43 HAH        -0.8530   -3.5670   -3.0050 ha        1 IBD      0.166000
     44 HAI        -0.3420    0.1430   -0.0830 ha        1 IBD      0.161000
     45 HAJ         3.9940   -0.6510   -1.2700 DU        1 IBD      0.185000
     46 HAK         9.4040   -1.2210    1.1960 h1        1 IBD      0.103500
     47 HAKA        9.2040    0.0290    0.2510 h1        1 IBD      0.103500
     48 HAL        -4.7870    4.0340   -0.4130 h1        1 IBD      0.070000
     49 HALA       -6.2330    3.9250   -1.1560 h1        1 IBD      0.070000
     50 HAM        -5.9480    1.1110   -2.4870 h1        1 IBD      0.070000
     51 HAMA       -6.8800    2.3470   -2.0910 h1        1 IBD      0.070000
     52 HAN        -3.7080    0.2090   -0.7240 h1        1 IBD      0.086000
     53 HANA       -3.8680    0.1700   -2.3390 h1        1 IBD      0.086000
     54 HAO        -4.1570    2.3770   -2.5060 h1        1 IBD      0.088000
     55 HAOA       -3.3850    2.6740   -1.1370 h1        1 IBD      0.088000
     56 HNAR        7.2700   -0.4540    2.1720 hn        1 IBD      0.215000
@<TRIPOS>BOND
     1    1    6 1   
     2    2    3 1   
     3    2   10 1   
     4    4    5 1   
     5    7   17 1   
     6    7   32 1   
     7    7   33 1   
     8    7   34 1   
     9    8   18 1   
    10    8   35 1   
    11    8   36 1   
    12    8   37 1   
    13    9   19 1   
    14    9   38 1   
    15    9   39 1   
    16    9   40 1   
    17   10   41 1   
    18   10   42 1   
    19   11   25 1   
    20   12   26 1   
    21   13   27 1   
    22   14   27 1   
    23   14   43 1   
    24   15   30 1   
    25   15   44 1   
    26   16   29 1   
    27   17   22 1   
    28   17   46 1   
    29   17   47 1   
    30   18   31 1   
    31   18   48 1   
    32   18   49 1   
    33   19   31 1   
    34   19   50 1   
    35   19   51 1   
    36   20   21 1   
    37   20   23 1   
    38   20   52 1   
    39   20   53 1   
    40   21   31 1   
    41   21   54 1   
    42   21   55 1   
    43   22   25 1   
    44   22   56 1   
    45   23   28 1   
    46   24   29 1   
    47   25   29 1   
    48   26   28 1   
    49   27   30 1   
@<TRIPOS>SUBSTRUCTURE
     1 IBD         1 TEMP              0 ****  ****    0 ROOT
