@<TRIPOS>MOLECULE
IBD
   56    58     1     0     0
SMALL
bcc


@<TRIPOS>ATOM
      1 N1         -1.6200    3.0190    0.8120 nb        1 IBD     -0.730000
      2 C2         -2.9020    3.0770    1.3940 ca        1 IBD      0.901900
      3 N3         -3.8620    2.0810    1.3240 nb        1 IBD     -0.739000
      4 C4         -3.4820    0.9670    0.6670 ca        1 IBD      0.488600
      5 C5         -2.1920    0.8020    0.0580 ca        1 IBD     -0.385400
      6 C6         -1.2910    1.8990    0.1620 cp        1 IBD      0.592800
      7 CAA        -5.2550   -5.4500   -0.2760 c3        1 IBD     -0.121100
      8 CAB         5.9140   -4.4390    1.1310 c3        1 IBD     -0.111600
      9 CAC         6.2130   -0.9030    2.6670 c3        1 IBD     -0.111600
     10 NAD        -3.1990    4.2120    2.1350 nh        1 IBD     -0.935500
     11 OAE        -2.3180   -3.2010   -1.4130 o         1 IBD     -0.606100
     12 CAH         1.7840    2.5800   -1.9580 ca        1 IBD     -0.101000
     13 CAI         0.8690    0.7250   -0.0780 ca        1 IBD     -0.174000
     14 CAJ        -2.0620   -0.4740   -0.5680 cc        1 IBD     -0.005200
     15 CAK        -4.7980   -4.5280   -1.3970 c3        1 IBD      0.086000
     16 CAL         5.0610   -3.6610    2.1200 c3        1 IBD      0.166300
     17 CAM         5.4530   -1.3480    1.4290 c3        1 IBD      0.166300
     18 CAN         2.4680   -1.4950    0.5070 c3        1 IBD      0.121400
     19 CAO         3.5550   -2.5780    0.5610 c3        1 IBD      0.171800
     20 SAT        -4.4250   -0.4230    0.4350 ss        1 IBD     -0.025900
     21 CAW         2.6090    1.5200   -1.5820 ca        1 IBD      0.004400
     22 CAX         0.5070    2.7190   -1.4030 ca        1 IBD      0.023400
     23 CAY         2.1460    0.5790   -0.6330 ca        1 IBD      0.141100
     24 CAZ        -3.2020   -1.2290   -0.4280 cd        1 IBD     -0.208600
     25 CBA         0.0480    1.7920   -0.4580 cp        1 IBD     -0.119500
     26 NBE         4.4820   -2.4080    1.6690 n3        1 IBD     -0.741600
     27 HAA        -4.4800   -5.5270    0.5240 hc        1 IBD      0.041700
     28 HAAA       -6.2060   -5.0900    0.1850 hc        1 IBD      0.041700
     29 HAAB       -5.4310   -6.4680   -0.6990 hc        1 IBD      0.041700
     30 HAB         5.3300   -4.6950    0.2140 hc        1 IBD      0.037700
     31 HABA        6.8110   -3.8510    0.8240 hc        1 IBD      0.037700
     32 HABB        6.2590   -5.3880    1.6080 hc        1 IBD      0.037700
     33 HAC         5.5190   -0.6890    3.5150 hc        1 IBD      0.037700
     34 HACA        6.9460   -1.6790    2.9950 hc        1 IBD      0.037700
     35 HACB        6.7760    0.0300    2.4220 hc        1 IBD      0.037700
     36 HNAD       -2.6050    5.0010    2.0420 hn        1 IBD      0.442800
     37 HNAA       -4.1430    4.3650    2.4000 hn        1 IBD      0.442800
     38 HAH         2.1410    3.3140   -2.7000 ha        1 IBD      0.165000
     39 HAI         0.4960    0.0070    0.6680 ha        1 IBD      0.159000
     40 HAJ        -1.1580   -0.8050   -1.0930 ha        1 IBD      0.181000
     41 HAK        -3.8440   -4.9330   -1.8440 h1        1 IBD      0.062700
     42 HAKA       -5.5870   -4.5240   -2.2050 h1        1 IBD      0.062700
     43 HAL         4.2080   -4.3190    2.4540 h1        1 IBD      0.044700
     44 HALA        5.6820   -3.4300    3.0320 h1        1 IBD      0.044700
     45 HAM         4.8820   -0.4610    1.0250 h1        1 IBD      0.044700
     46 HAMA        6.2020   -1.6500    0.6380 h1        1 IBD      0.044700
     47 HAN         1.5530   -1.9100    0.0090 h1        1 IBD      0.055700
     48 HANA        2.2110   -1.0940    1.5210 h1        1 IBD      0.055700
     49 HAO         3.0210   -3.5630    0.6870 h1        1 IBD      0.051200
     50 HAOA        4.0840   -2.5950   -0.4370 h1        1 IBD      0.051200
     51 HNAR       -5.3260   -2.7040   -0.5390 hn        1 IBD      0.304500
     52 CAU        -3.3160   -2.5960   -0.9680 c         1 IBD      0.704300
     53 CLAF        4.1490    1.4020   -2.2830 cl        1 IBD     -0.060400
     54 CLAG       -0.4600    4.0130   -1.9230 cl        1 IBD     -0.069400
     55 NAR        -4.5770   -3.1640   -0.9990 n         1 IBD     -0.565900
     56 OAS         3.0110   -0.4370   -0.3000 os        1 IBD     -0.319900
@<TRIPOS>BOND
     1    1    2 ar  
     2    1    6 ar  
     3    2    3 ar  
     4    2   10 1   
     5    3    4 ar  
     6    4    5 ar  
     7    4   20 1   
     8    5    6 ar  
     9    5   14 1   
    10    6   25 1   
    11    7   15 1   
    12    7   27 1   
    13    7   28 1   
    14    7   29 1   
    15    8   16 1   
    16    8   30 1   
    17    8   31 1   
    18    8   32 1   
    19    9   17 1   
    20    9   33 1   
    21    9   34 1   
    22    9   35 1   
    23   10   36 1   
    24   10   37 1   
    25   11   52 2   
    26   12   21 ar  
    27   12   22 ar  
    28   12   38 1   
    29   13   23 ar  
    30   13   25 ar  
    31   13   39 1   
    32   14   24 2   
    33   14   40 1   
    34   15   41 1   
    35   15   42 1   
    36   15   55 1   
    37   16   26 1   
    38   16   43 1   
    39   16   44 1   
    40   17   26 1   
    41   17   45 1   
    42   17   46 1   
    43   18   19 1   
    44   18   47 1   
    45   18   48 1   
    46   18   56 1   
    47   19   26 1   
    48   19   49 1   
    49   19   50 1   
    50   20   24 1   
    51   21   23 ar  
    52   21   53 1   
    53   22   25 ar  
    54   22   54 1   
    55   23   56 1   
    56   24   52 1   
    57   51   55 1   
    58   52   55 1   
@<TRIPOS>SUBSTRUCTURE
     1 IBD         1 TEMP              0 ****  ****    0 ROOT
