@<TRIPOS>MOLECULE
IBF
   12    10     1     0     0
SMALL
bcc


@<TRIPOS>ATOM
      1 F6         -2.6930    0.0010   -0.0550 f         1 IBF     -0.124000
      2 C6         -1.3540    0.0010   -0.0550 ce        1 IBF      0.076400
      3 C1         -0.6610    0.0010    1.1450 c1        1 IBF      0.010700
      4 I1         -1.7150   -0.0090    2.9700 i         1 IBF      0.226000
      5 C5         -0.6610    0.0010   -1.2560 ce        1 IBF      0.076400
      6 F5         -1.3310   -0.0040   -2.4150 f         1 IBF     -0.124000
      7 C4          0.7250    0.0010   -1.2560 c1        1 IBF      0.010700
      8 F4          1.3950    0.0030   -2.4150 f         1 IBF     -0.057000
      9 C3          1.4180    0.0010   -0.0550 ce        1 IBF      0.076400
     10 F3          2.7570   -0.0010   -0.0550 f         1 IBF     -0.124000
     11 C2          0.7250    0.0010    1.1450 ce        1 IBF      0.076400
     12 F2          1.3950    0.0040    2.3050 f         1 IBF     -0.124000
@<TRIPOS>BOND
     1    1    2 1   
     2    2    3 2   
     3    2    5 1   
     4    3   11 2   
     5    5    6 1   
     6    5    7 2   
     7    7    9 2   
     8    9   10 1   
     9    9   11 1   
    10   11   12 1   
@<TRIPOS>SUBSTRUCTURE
     1 IBF         1 TEMP              0 ****  ****    0 ROOT
