@<TRIPOS>MOLECULE
IBG
   51    52     1     0     0
SMALL
bcc


@<TRIPOS>ATOM
      1 N1          0.6370   -0.1850   -0.4960 n4        1 IBG     -0.054000
      2 CA1         0.7480    0.9740   -1.4370 c3        1 IBG     -0.204000
      3 C1          0.9850    0.4140   -2.8930 c2        1 IBG      0.342000
      4 O11         1.6000   -0.6690   -2.9870 o         1 IBG     -0.517500
      5 O12         0.5500    1.1310   -3.8370 o         1 IBG     -0.517500
      6 CB1         1.9030    1.9060   -1.0650 c3        1 IBG     -0.157000
      7 CG1         1.8450    3.1880   -1.8810 c3        1 IBG     -0.182000
      8 CD1         2.9680    3.2670   -2.8800 c2        1 IBG      0.264000
      9 OE1         4.1360    3.5370   -2.6350 o         1 IBG     -0.184000
     10 N2          2.6490    2.9730   -4.3160 n4        1 IBG     -0.137000
     11 CA2         2.1360    4.1610   -5.0690 c3        1 IBG     -0.069000
     12 C2          0.7250    4.6200   -4.6410 c2        1 IBG      0.275000
     13 O2          0.5990    5.7840   -4.2230 o         1 IBG     -0.314000
     14 CB2         2.1700    3.9140   -6.5730 c3        1 IBG     -0.372000
     15 SG2         3.7790    3.3400   -7.0540 s4        1 IBG      0.088000
     16 N3         -0.3450    3.7730   -4.8380 n         1 IBG     -0.341000
     17 CA3        -1.6670    4.1670   -4.4440 c3        1 IBG     -0.073000
     18 C3         -2.0670    3.7680   -3.0350 c2        1 IBG      0.294000
     19 O31        -1.3410    3.3120   -2.1470 o         1 IBG     -0.354000
     20 O32        -3.3650    3.9120   -2.6590 oh        1 IBG     -0.266000
     21 CS          3.4330    1.8800   -8.0270 c3        1 IBG     -0.237000
     22 C1S         4.5140    0.8690   -7.9230 ca        1 IBG     -0.055000
     23 C2S         5.8470    1.2050   -7.6540 ca        1 IBG     -0.263000
     24 C3S         6.8380    0.2260   -7.6450 ca        1 IBG     -0.084000
     25 I2S         6.3230    3.1360   -7.2480 i         1 IBG      0.226000
     26 C4S         6.5040   -1.1070   -7.8910 ca        1 IBG     -0.118000
     27 C5S         5.1780   -1.4550   -8.1440 ca        1 IBG     -0.096000
     28 C6S         4.1880   -0.4740   -8.1610 ca        1 IBG     -0.119000
     29 HN11        1.2580   -0.9360   -0.8540 hn        1 IBG      0.254333
     30 HN12       -0.3250   -0.5300   -0.5010 hn        1 IBG      0.254333
     31 HA1C       -0.2300    1.5420   -1.4170 hx        1 IBG      0.186000
     32 HCB1        2.8830    1.3790   -1.2170 hc        1 IBG      0.112500
     33 HCB2        1.8380    2.1870    0.0210 hc        1 IBG      0.112500
     34 HCG1        0.8380    3.2880   -2.3800 hc        1 IBG      0.167500
     35 HCG2        1.9690    4.0760   -1.1970 hc        1 IBG      0.167500
     36 HN2         1.9630    2.1880   -4.3660 hn        1 IBG      0.288500
     37 HA2C        2.8330    5.0270   -4.8270 hx        1 IBG      0.177000
     38 HB21        1.3740    3.2000   -6.8930 h1        1 IBG      0.144500
     39 HB22        1.9720    4.8940   -7.0790 h1        1 IBG      0.144500
     40 HN3        -3.8870    4.3010   -3.3770 ho        1 IBG      0.241000
     41 HC31       -2.3980    3.6900   -5.1630 h1        1 IBG      0.146000
     42 HC32       -1.7630    5.2920   -4.5170 h1        1 IBG      0.146000
     43 HCS1        2.4540    1.4400   -7.7110 h1        1 IBG      0.130500
     44 HCS2        3.3340    2.1970   -9.0990 h1        1 IBG      0.130500
     45 H3S         7.8880    0.4940   -7.4440 ha        1 IBG      0.156000
     46 H4S         7.2890   -1.8780   -7.8860 ha        1 IBG      0.154000
     47 H5S         4.9100   -2.5060   -8.3350 ha        1 IBG      0.152000
     48 H6S         3.1440   -0.7540   -8.3690 ha        1 IBG      0.145000
     49 H13         0.9080    0.0730    0.4520 hn        1 IBG      0.254333
     50 H22         3.5200    2.6770   -4.8170 hn        1 IBG      0.288500
     51 H32        -0.1890    2.7910   -4.9380 hn        1 IBG      0.270000
@<TRIPOS>BOND
     1    1    2 1   
     2    1   29 1   
     3    1   30 1   
     4    1   49 1   
     5    2    3 1   
     6    2    6 1   
     7    2   31 1   
     8    3    4 1   
     9    3    5 1   
    10    6    7 1   
    11    6   32 1   
    12    6   33 1   
    13    7    8 1   
    14    7   34 1   
    15    7   35 1   
    16    8    9 1   
    17    8   10 1   
    18   10   11 1   
    19   10   36 1   
    20   10   50 1   
    21   11   12 1   
    22   11   14 1   
    23   11   37 1   
    24   12   13 1   
    25   12   16 1   
    26   14   15 1   
    27   14   38 1   
    28   14   39 1   
    29   15   21 1   
    30   15   25 1   
    31   16   17 1   
    32   16   51 1   
    33   17   18 1   
    34   17   41 1   
    35   17   42 1   
    36   18   19 1   
    37   18   20 1   
    38   20   40 1   
    39   21   22 1   
    40   21   43 1   
    41   21   44 1   
    42   22   23 1   
    43   22   28 1   
    44   23   24 1   
    45   23   25 1   
    46   24   26 1   
    47   24   45 1   
    48   26   27 1   
    49   26   46 1   
    50   27   28 1   
    51   27   47 1   
    52   28   48 1   
@<TRIPOS>SUBSTRUCTURE
     1 IBG         1 TEMP              0 ****  ****    0 ROOT
