@<TRIPOS>MOLECULE
IBG
   48    48     1     0     0
SMALL
bcc


@<TRIPOS>ATOM
      1 N1          3.8440   -0.3200    4.6780 n3        1 IBG     -0.893800
      2 CA1         3.2190   -1.0230    3.5660 c3        1 IBG      0.025500
      3 C1          4.2280   -1.5980    2.5200 c         1 IBG      0.889600
      4 O11         5.4660   -1.4620    2.7360 o         1 IBG     -0.852800
      5 O12         3.7540   -2.1940    1.5100 o         1 IBG     -0.852800
      6 CB1         2.1840   -0.1820    2.8160 c3        1 IBG     -0.063400
      7 CG1         1.0260    0.2340    3.6980 c3        1 IBG     -0.144400
      8 CD1         0.0000    1.0130    2.8920 c         1 IBG      0.669100
      9 OE1         0.0470    2.2590    2.8140 o         1 IBG     -0.628100
     10 N2         -0.9970    0.2910    2.2610 n         1 IBG     -0.563900
     11 CA2        -1.9790    0.8920    1.4040 c3        1 IBG      0.040700
     12 C2         -3.4080    0.9120    2.0260 c         1 IBG      0.622100
     13 O2         -4.0070    2.0080    2.1010 o         1 IBG     -0.645100
     14 CB2        -2.1200    0.2130    0.0360 c3        1 IBG     -0.038300
     15 SG2        -0.7110    0.4660   -1.0060 ss        1 IBG     -0.293200
     16 N3         -3.9240   -0.2660    2.4940 n         1 IBG     -0.511900
     17 CA3        -5.3150   -0.4150    2.8430 c3        1 IBG     -0.057000
     18 C3         -5.9250   -1.7820    2.4210 c         1 IBG      0.904600
     19 O31        -7.1380   -1.9650    2.7150 o         1 IBG     -0.842800
     20 O32        -5.1940   -2.6230    1.8230 o         1 IBG     -0.842800
     21 CS         -0.2220   -1.2020   -1.3900 c3        1 IBG      0.032000
     22 C1S         1.1730   -1.1940   -1.8870 ca        1 IBG     -0.046300
     23 C2S         1.4990   -0.9310   -3.2240 ca        1 IBG      0.030900
     24 C3S         2.8330   -0.9440   -3.6340 ca        1 IBG     -0.125000
     25 I2S         0.1010   -0.5260   -4.6380 i         1 IBG     -0.190900
     26 C4S         3.8520   -1.2240   -2.7240 ca        1 IBG     -0.153000
     27 C5S         3.5380   -1.4960   -1.3940 ca        1 IBG     -0.087000
     28 C6S         2.2060   -1.4830   -0.9830 ca        1 IBG     -0.096000
     29 HN11        4.7030   -0.8010    4.8930 hn        1 IBG      0.332300
     30 HN12        4.1020    0.6020    4.3730 hn        1 IBG      0.332300
     31 HA1C        2.6900   -1.9150    4.0150 h1        1 IBG      0.044700
     32 HCB1        2.6710    0.7300    2.3820 hc        1 IBG      0.054700
     33 HCB2        1.8100   -0.8040    1.9590 hc        1 IBG      0.054700
     34 HCG1        0.5650   -0.6680    4.1780 hc        1 IBG      0.063200
     35 HCG2        1.3870    0.9080    4.5180 hc        1 IBG      0.063200
     36 HN2        -0.9970   -0.6980    2.3380 hn        1 IBG      0.310500
     37 HA2C       -1.6920    1.9790    1.2500 h1        1 IBG      0.118700
     38 HB21       -2.3360   -0.8770    0.1490 h1        1 IBG      0.082200
     39 HB22       -2.9970    0.6810   -0.4810 h1        1 IBG      0.082200
     40 HN3        -3.4940   -1.1200    2.2000 hn        1 IBG      0.317500
     41 HC31       -5.4110   -0.3190    3.9600 h1        1 IBG      0.041700
     42 HC32       -5.9250    0.4060    2.3740 h1        1 IBG      0.041700
     43 HCS1       -0.3010   -1.8370   -0.4710 h1        1 IBG      0.072200
     44 HCS2       -0.9220   -1.6260   -2.1520 h1        1 IBG      0.072200
     45 H3S         3.0910   -0.7310   -4.6830 ha        1 IBG      0.119000
     46 H4S         4.8990   -1.2280   -3.0580 ha        1 IBG      0.120000
     47 H5S         4.3130   -1.7250   -0.6350 ha        1 IBG      0.200000
     48 H6S         1.9920   -1.7070    0.0800 ha        1 IBG      0.189000
@<TRIPOS>BOND
     1    1    2 1   
     2    1   29 1   
     3    1   30 1   
     4    2    3 1   
     5    2    6 1   
     6    2   31 1   
     7    3    4 1   
     8    3    5 1   
     9    6    7 1   
    10    6   32 1   
    11    6   33 1   
    12    7    8 1   
    13    7   34 1   
    14    7   35 1   
    15    8    9 2   
    16    8   10 1   
    17   10   11 1   
    18   10   36 1   
    19   11   12 1   
    20   11   14 1   
    21   11   37 1   
    22   12   13 2   
    23   12   16 1   
    24   14   15 1   
    25   14   38 1   
    26   14   39 1   
    27   15   21 1   
    28   16   17 1   
    29   16   40 1   
    30   17   18 1   
    31   17   41 1   
    32   17   42 1   
    33   18   19 1   
    34   18   20 1   
    35   21   22 1   
    36   21   43 1   
    37   21   44 1   
    38   22   23 ar  
    39   22   28 ar  
    40   23   24 ar  
    41   23   25 1   
    42   24   26 ar  
    43   24   45 1   
    44   26   27 ar  
    45   26   46 1   
    46   27   28 ar  
    47   27   47 1   
    48   28   48 1   
@<TRIPOS>SUBSTRUCTURE
     1 IBG         1 TEMP              0 ****  ****    0 ROOT
