@<TRIPOS>MOLECULE
IBG
   51    52     1     0     0
SMALL
bcc


@<TRIPOS>ATOM
      1 N1          3.0880   -0.6600   -0.5330 nz        1 IBG     -0.053000
      2 CA1         1.9610    0.2360   -0.9380 c3        1 IBG     -0.189000
      3 C1          1.9070    0.2890   -2.5070 c2        1 IBG      0.308000
      4 O11         3.0210    0.3680   -3.0960 o         1 IBG     -0.513000
      5 O12         0.7760    0.3560   -3.0370 o         1 IBG     -0.513000
      6 CB1         2.1410    1.6640   -0.4130 c3        1 IBG     -0.164000
      7 CG1         1.2320    2.6450   -1.1370 c3        1 IBG     -0.179000
      8 CD1         1.9680    3.3870   -2.2280 c2        1 IBG      0.273000
      9 OE1         2.7290    4.3300   -2.0510 o         1 IBG     -0.201000
     10 N2          1.7540    2.9230   -3.6350 ny        1 IBG     -0.117000
     11 CA2         1.6320    4.0280   -4.6390 c3        1 IBG     -0.078000
     12 C2          0.2050    4.6220   -4.6210 c2        1 IBG      0.288000
     13 O2         -0.6750    4.1390   -3.8740 o         1 IBG     -0.388000
     14 CB2         1.9730    3.5270   -6.0420 c3        1 IBG     -0.379000
     15 SG2         3.4920    2.6210   -6.0570 s4        1 IBG      0.110000
     16 N3         -0.0340    5.7070   -5.4200 ns        1 IBG     -0.336000
     17 CA3        -1.3380    6.3070   -5.4940 c3        1 IBG     -0.077000
     18 C3         -2.3220    5.5180   -6.3480 c2        1 IBG      0.267000
     19 O31        -2.6480    5.7990   -7.4970 o         1 IBG     -0.268000
     20 O32        -2.9150    4.4100   -5.8310 oh        1 IBG     -0.276000
     21 CS          3.0060    0.9290   -6.3810 c3        1 IBG     -0.255000
     22 C1S         3.9890    0.2300   -7.2450 ca        1 IBG     -0.036000
     23 C2S         5.3470    0.5700   -7.2770 ca        1 IBG     -0.251000
     24 C3S         6.2430   -0.1500   -8.0630 ca        1 IBG     -0.085000
     25 I2S         6.0000    2.1600   -6.1920 i         1 IBG      0.215000
     26 C4S         5.7870   -1.2200   -8.8340 ca        1 IBG     -0.122000
     27 C5S         4.4360   -1.5630   -8.8180 ca        1 IBG     -0.097000
     28 C6S         3.5410   -0.8430   -8.0280 ca        1 IBG     -0.122000
     29 HN11        3.8590   -0.5100   -1.2090 hn        1 IBG      0.256333
     30 HN12        2.7840   -1.6350   -0.5980 hn        1 IBG      0.256333
     31 HA1C        0.9980   -0.2030   -0.5480 hx        1 IBG      0.163000
     32 HCB1        3.2100    1.9940   -0.5180 hc        1 IBG      0.116000
     33 HCB2        1.8850    1.6900    0.6800 hc        1 IBG      0.116000
     34 HCG1        0.8830    3.4330   -0.4100 hc        1 IBG      0.165500
     35 HCG2        0.3150    2.1230   -1.5340 hc        1 IBG      0.165500
     36 HN2         2.5750    2.3180   -3.9260 hn        1 IBG      0.305500
     37 HA2C        2.3690    4.8370   -4.3380 hx        1 IBG      0.176000
     38 HB21        1.1300    2.9300   -6.4670 h1        1 IBG      0.142500
     39 HB22        2.1310    4.4180   -6.7020 h1        1 IBG      0.142500
     40 HN3        -2.6190    4.2600   -4.9180 ho        1 IBG      0.246000
     41 HC31       -1.2300    7.3370   -5.9440 h1        1 IBG      0.142500
     42 HC32       -1.7640    6.4050   -4.4530 h1        1 IBG      0.142500
     43 HCS1        2.9360    0.3900   -5.3940 h1        1 IBG      0.141000
     44 HCS2        1.9940    0.9150   -6.8570 h1        1 IBG      0.141000
     45 H3S         7.3110    0.1200   -8.0880 ha        1 IBG      0.154000
     46 H4S         6.4960   -1.7870   -9.4580 ha        1 IBG      0.152000
     47 H5S         4.0720   -2.4020   -9.4310 ha        1 IBG      0.150000
     48 H6S         2.4750   -1.1190   -8.0170 ha        1 IBG      0.144000
     49 H13         3.4080   -0.4570    0.4130 hn        1 IBG      0.256333
     50 H22         0.9000    2.3290   -3.6720 hn        1 IBG      0.305500
     51 H32         0.6430    5.9890   -6.0920 hn        1 IBG      0.254000
@<TRIPOS>BOND
     1    1    2 1   
     2    1   29 1   
     3    1   30 1   
     4    1   49 1   
     5    2    3 1   
     6    2    6 1   
     7    2   31 1   
     8    3    4 1   
     9    3    5 1   
    10    6    7 1   
    11    6   32 1   
    12    6   33 1   
    13    7    8 1   
    14    7   34 1   
    15    7   35 1   
    16    8    9 1   
    17    8   10 1   
    18   10   11 1   
    19   10   36 1   
    20   10   50 1   
    21   11   12 1   
    22   11   14 1   
    23   11   37 1   
    24   12   13 1   
    25   12   16 1   
    26   14   15 1   
    27   14   38 1   
    28   14   39 1   
    29   15   21 1   
    30   15   25 1   
    31   16   17 1   
    32   16   51 1   
    33   17   18 1   
    34   17   41 1   
    35   17   42 1   
    36   18   19 1   
    37   18   20 1   
    38   20   40 1   
    39   21   22 1   
    40   21   43 1   
    41   21   44 1   
    42   22   23 1   
    43   22   28 1   
    44   23   24 1   
    45   23   25 1   
    46   24   26 1   
    47   24   45 1   
    48   26   27 1   
    49   26   46 1   
    50   27   28 1   
    51   27   47 1   
    52   28   48 1   
@<TRIPOS>SUBSTRUCTURE
     1 IBG         1 TEMP              0 ****  ****    0 ROOT
