@<TRIPOS>MOLECULE
IBG
   51    51     1     0     0
SMALL
bcc


@<TRIPOS>ATOM
      1 N1          1.0990    0.4540    1.1650 n4        1 IBG     -0.831600
      2 CA1         1.0820    0.6470   -0.3200 c3        1 IBG     -0.061500
      3 C1          2.4610    1.3070   -0.7680 c         1 IBG      0.955600
      4 O11         3.3470    1.3860    0.1070 o         1 IBG     -0.781300
      5 O12         2.5310    1.6550   -1.9750 o         1 IBG     -0.781300
      6 CB1        -0.1270    1.4580   -0.7750 c3        1 IBG     -0.081400
      7 CG1        -0.2150    1.5360   -2.2890 c3        1 IBG     -0.121400
      8 CD1         0.5760    2.7050   -2.8100 c         1 IBG      0.647100
      9 OE1         0.6620    3.8270   -2.3220 o         1 IBG     -0.497100
     10 N2          1.2730    2.4900   -4.1380 n4        1 IBG     -0.675800
     11 CA2         2.2800    3.5340   -4.4960 c3        1 IBG      0.100500
     12 C2          1.8860    4.9880   -4.1990 c         1 IBG      0.539100
     13 O2          2.4420    5.6750   -3.3560 o         1 IBG     -0.378100
     14 CB2         2.7070    3.4050   -5.9570 c3        1 IBG     -0.090300
     15 SG2         3.4730    1.8240   -6.1430 ss        1 IBG     -0.267200
     16 N3          0.8720    5.6800   -5.0570 n4        1 IBG     -0.654800
     17 CA3        -0.5350    5.4420   -4.6100 c3        1 IBG     -0.041200
     18 C3         -0.9650    4.0130   -5.0510 c         1 IBG      0.899600
     19 O31        -1.6050    3.3200   -4.2300 o         1 IBG     -0.796300
     20 O32        -0.4640    3.5930   -6.1390 o         1 IBG     -0.796300
     21 CS          3.0280    1.3390   -7.8030 c3        1 IBG      0.045000
     22 C1S         4.1570    0.5590   -8.3540 ca        1 IBG     -0.067300
     23 C2S         5.2180    1.1650   -9.0420 ca        1 IBG      0.048900
     24 C3S         6.2540    0.3810   -9.5530 ca        1 IBG     -0.093000
     25 I2S         5.3190    3.1660   -9.3430 i         1 IBG     -0.143900
     26 C4S         6.2420   -1.0040   -9.3870 ca        1 IBG     -0.109000
     27 C5S         5.1870   -1.6120   -8.7070 ca        1 IBG     -0.107000
     28 C6S         4.1510   -0.8350   -8.1950 ca        1 IBG     -0.115000
     29 HN11        2.1000    0.4900    1.4620 hn        1 IBG      0.459133
     30 HN12        0.6880   -0.4390    1.4280 hn        1 IBG      0.459133
     31 HA1C        1.0590   -0.3780   -0.7900 hx        1 IBG      0.101700
     32 HCB1       -0.0810    2.4960   -0.3470 hc        1 IBG      0.077200
     33 HCB2       -1.0730    0.9750   -0.4070 hc        1 IBG      0.077200
     34 HCG1       -1.2860    1.7280   -2.6060 hc        1 IBG      0.120700
     35 HCG2        0.1220    0.5710   -2.7490 hc        1 IBG      0.120700
     36 HN2         1.8170    1.6050   -4.0570 hn        1 IBG      0.505300
     37 HA2C        3.1760    3.3400   -3.8030 hx        1 IBG      0.190700
     38 HB21        3.4460    4.2130   -6.1880 h1        1 IBG      0.112700
     39 HB22        1.8350    3.5020   -6.6580 h1        1 IBG      0.112700
     40 HN3         0.9350    5.3110   -6.0250 hn        1 IBG      0.469300
     41 HC31       -1.2000    6.2000   -5.1050 hx        1 IBG      0.120700
     42 HC32       -0.5970    5.5440   -3.4920 hx        1 IBG      0.120700
     43 HCS1        2.0990    0.7150   -7.7550 h1        1 IBG      0.089700
     44 HCS2        2.8030    2.2390   -8.4290 h1        1 IBG      0.089700
     45 H3S         7.0910    0.8510  -10.0960 ha        1 IBG      0.157000
     46 H4S         7.0630   -1.6130   -9.7940 ha        1 IBG      0.152000
     47 H5S         5.1700   -2.7050   -8.5760 ha        1 IBG      0.148000
     48 H6S         3.3170   -1.3190   -7.6650 ha        1 IBG      0.137000
     49 H13         0.5980    1.2120    1.6300 hn        1 IBG      0.459133
     50 H22         0.5690    2.3750   -4.8960 hn        1 IBG      0.505300
     51 H32         1.0660    6.6880   -5.0520 hn        1 IBG      0.469300
@<TRIPOS>BOND
     1    1    2 1   
     2    1   29 1   
     3    1   30 1   
     4    1   49 1   
     5    2    3 1   
     6    2    6 1   
     7    2   31 1   
     8    3    4 1   
     9    3    5 1   
    10    6    7 1   
    11    6   32 1   
    12    6   33 1   
    13    7    8 1   
    14    7   34 1   
    15    7   35 1   
    16    8    9 2   
    17    8   10 1   
    18   10   11 1   
    19   10   36 1   
    20   10   50 1   
    21   11   12 1   
    22   11   14 1   
    23   11   37 1   
    24   12   13 2   
    25   12   16 1   
    26   14   15 1   
    27   14   38 1   
    28   14   39 1   
    29   15   21 1   
    30   16   17 1   
    31   16   40 1   
    32   16   51 1   
    33   17   18 1   
    34   17   41 1   
    35   17   42 1   
    36   18   19 1   
    37   18   20 1   
    38   21   22 1   
    39   21   43 1   
    40   21   44 1   
    41   22   23 ar  
    42   22   28 ar  
    43   23   24 ar  
    44   23   25 1   
    45   24   26 ar  
    46   24   45 1   
    47   26   27 ar  
    48   26   46 1   
    49   27   28 ar  
    50   27   47 1   
    51   28   48 1   
@<TRIPOS>SUBSTRUCTURE
     1 IBG         1 TEMP              0 ****  ****    0 ROOT
