@<TRIPOS>MOLECULE
IBG
   48    46     1     0     0
SMALL
bcc


@<TRIPOS>ATOM
      1 N1         -4.5730   -5.0830   -0.1450 n3        1 IBG     -0.327000
      2 CA1        -3.6590   -4.6210    0.8720 c3        1 IBG     -0.128000
      3 C1         -4.3680   -4.4830    2.1290 c2        1 IBG      0.308000
      4 O11        -5.6790   -4.3210    2.1350 o         1 IBG     -0.580000
      5 O12        -3.7340   -4.4190    3.1860 o         1 IBG     -0.580000
      6 CB1        -3.0870   -3.2670    0.4670 c3        1 IBG     -0.142000
      7 CG1        -1.5320   -3.3410    0.4470 c3        1 IBG     -0.173000
      8 CD1        -0.9770   -2.0510   -0.0750 c2        1 IBG      0.307000
      9 OE1        -1.7440   -1.1740   -0.4980 o         1 IBG     -0.409000
     10 N2          0.4490   -1.8540   -0.1420 n         1 IBG     -0.372000
     11 CA2         0.9770   -0.5920   -0.6140 c3        1 IBG      0.012000
     12 C2          1.8680   -0.8320   -1.7570 c2        1 IBG      0.281000
     13 O2          2.9560   -1.3150   -1.5790 o         1 IBG     -0.411000
     14 CB2         1.7780    0.1120    0.5340 c3        1 IBG     -0.300000
     15 SG2         1.5780    1.8960    0.4030 ss        1 IBG      0.081000
     16 N3          1.4440   -0.4300   -3.1390 n         1 IBG     -0.319000
     17 CA3         2.3420   -0.6750   -4.2840 c3        1 IBG     -0.113000
     18 C3          1.8980    0.1820   -5.4810 c2        1 IBG      0.329000
     19 O31         2.2080    1.3310   -5.5370 o         1 IBG     -0.582000
     20 O32         1.1330   -0.3100   -6.3650 o         1 IBG     -0.582000
     21 CS          1.5380    2.6100    2.0390 c3        1 IBG     -0.248000
     22 C1S         1.5500    4.1330    1.9260 c2        1 IBG     -0.031000
     23 C2S         0.3690    4.8180    1.6400 c2        1 IBG     -0.249000
     24 C3S         0.3620    6.2010    1.6130 c1        1 IBG     -0.127000
     25 I2S        -1.4260    3.7690    1.4830 i         1 IBG      0.105000
     26 C4S         1.5270    6.9080    1.8710 c1        1 IBG     -0.128500
     27 C5S         2.7150    6.2240    2.1590 c1        1 IBG     -0.128500
     28 C6S         2.7260    4.8470    2.1860 c1        1 IBG     -0.099000
     29 HN11       -5.1230   -5.7310    0.2070 hn        1 IBG      0.126500
     30 HN12       -4.1240   -5.4150   -0.8120 hn        1 IBG      0.126500
     31 HA1C       -2.9440   -5.2530    0.9740 h1        1 IBG      0.080000
     32 HCB1       -3.4310   -3.0160   -0.4660 hc        1 IBG      0.095000
     33 HCB2       -3.3800   -2.5760    1.1240 hc        1 IBG      0.095000
     34 HCG1       -1.2140   -3.4880    1.3160 hc        1 IBG      0.105000
     35 HCG2       -1.2410   -4.0920   -0.1440 hc        1 IBG      0.105000
     36 HN2         1.0270   -2.5140    0.1640 hn        1 IBG      0.245000
     37 HA2C        0.2330   -0.0140   -0.8940 h1        1 IBG      0.124000
     38 HB21        2.7390   -0.1190    0.4550 h1        1 IBG      0.126500
     39 HB22        1.4310   -0.1970    1.4210 h1        1 IBG      0.126500
     40 HN3         0.5720   -0.1040   -3.2870 hn        1 IBG      0.236000
     41 HC31        2.3040   -1.5780   -4.5190 h1        1 IBG      0.082500
     42 HC32        3.2390   -0.4450   -4.0420 h1        1 IBG      0.082500
     43 HCS1        0.7180    2.3200    2.5040 h1        1 IBG      0.118500
     44 HCS2        2.3560    2.3010    2.5660 h1        1 IBG      0.118500
     45 H3S        -0.4560    6.6750    1.4160 ha        1 IBG      0.122000
     46 H4S         1.5320    7.8900    1.7930 ha        1 IBG      0.134000
     47 H5S         3.5550    6.7370    2.3450 ha        1 IBG      0.134000
     48 H6S         3.5650    4.3590    2.4080 ha        1 IBG      0.222000
@<TRIPOS>BOND
     1    1    2 1   
     2    1   29 1   
     3    1   30 1   
     4    2    3 1   
     5    2    6 1   
     6    2   31 1   
     7    3    4 1   
     8    3    5 1   
     9    6    7 1   
    10    6   32 1   
    11    6   33 1   
    12    7    8 1   
    13    7   34 1   
    14    7   35 1   
    15    8    9 1   
    16    8   10 1   
    17   10   11 1   
    18   10   36 1   
    19   11   12 1   
    20   11   14 1   
    21   11   37 1   
    22   12   13 1   
    23   12   16 1   
    24   14   15 1   
    25   14   38 1   
    26   14   39 1   
    27   15   21 1   
    28   16   17 1   
    29   16   40 1   
    30   17   18 1   
    31   17   41 1   
    32   17   42 1   
    33   18   19 1   
    34   18   20 1   
    35   21   22 1   
    36   21   43 1   
    37   21   44 1   
    38   22   23 1   
    39   22   28 1   
    40   23   24 1   
    41   23   25 1   
    42   24   45 1   
    43   26   27 1   
    44   26   46 1   
    45   27   47 1   
    46   28   48 1   
@<TRIPOS>SUBSTRUCTURE
     1 IBG         1 TEMP              0 ****  ****    0 ROOT
