@<TRIPOS>MOLECULE
IBH
   40    42     1     0     0
SMALL
bcc


@<TRIPOS>ATOM
      1 F1         -0.4390   -0.2910   -0.7850 f         1 IBH     -0.134400
      2 C11         0.8180   -0.2340   -0.2840 ca        1 IBH      0.164400
      3 C12         1.0180   -0.4790    1.0870 ca        1 IBH     -0.180000
      4 C13         2.3040   -0.4350    1.6130 ca        1 IBH     -0.077000
      5 C14         3.3970   -0.1590    0.7970 ca        1 IBH     -0.180000
      6 C15         3.1970    0.0850   -0.5740 ca        1 IBH      0.164400
      7 F           4.2710    0.3420   -1.3580 f         1 IBH     -0.134400
      8 C10         1.9040    0.0570   -1.1390 ca        1 IBH     -0.146300
      9 C9          1.6940    0.3010   -2.5880 c3        1 IBH     -0.082100
     10 C8          1.4560    1.7640   -2.9160 c         1 IBH      0.712500
     11 O           1.4420    2.6630   -2.0550 o         1 IBH     -0.578100
     12 N3          1.2510    2.0140   -4.2880 ne        1 IBH     -0.749100
     13 C7          1.0460    3.2220   -4.7450 cd        1 IBH      0.661100
     14 N2          0.7920    3.4700   -6.1250 na        1 IBH     -0.512300
     15 N1          0.6460    4.7380   -6.4930 n2        1 IBH     -0.334400
     16 S1          0.9880    4.7820   -3.9210 ss        1 IBH     -0.013400
     17 C6          0.6990    5.5610   -5.4490 cc        1 IBH      0.244200
     18 C4          0.5860    7.0630   -5.5440 c3        1 IBH      0.148200
     19 C5          0.7190    7.6710   -4.1460 c3        1 IBH     -0.134100
     20 O1          1.6710    7.4860   -6.3650 oh        1 IBH     -0.574800
     21 C3         -0.7360    7.4660   -6.1520 cc        1 IBH      0.331700
     22 S          -1.9630    6.3530   -6.5880 ss        1 IBH     -0.004300
     23 C2         -2.9460    7.5890   -7.1010 cc        1 IBH     -0.278400
     24 N          -1.0440    8.7470   -6.3920 nd        1 IBH     -0.638000
     25 C1         -2.3190    8.8260   -6.9420 cd        1 IBH      0.351600
     26 C          -2.9270   10.1230   -7.3140 c3        1 IBH     -0.124400
     27 H12         0.1520   -0.6990    1.7280 ha        1 IBH      0.154000
     28 H13         2.4600   -0.6210    2.6870 ha        1 IBH      0.144000
     29 H14         4.4160   -0.1250    1.2090 ha        1 IBH      0.154000
     30 H91C        0.8070   -0.2900   -2.9470 hc        1 IBH      0.093700
     31 H92C        2.5960   -0.0480   -3.1650 hc        1 IBH      0.093700
     32 H2          0.8810    2.7770   -6.8390 hn        1 IBH      0.498800
     33 H51C        0.7000    8.7850   -4.2140 hc        1 IBH      0.064367
     34 H52C       -0.1220    7.3360   -3.4930 hc        1 IBH      0.064367
     35 H53C        1.6910    7.3580   -3.6910 hc        1 IBH      0.064367
     36 H1          1.6010    8.4460   -6.4550 ho        1 IBH      0.427000
     37 HA         -3.9450    7.4500   -7.5100 h4        1 IBH      0.183000
     38 HC1        -3.9540    9.9580   -7.7220 hc        1 IBH      0.052700
     39 HC2        -2.3080   10.6360   -8.0930 hc        1 IBH      0.052700
     40 HC3        -2.9970   10.7950   -6.4230 hc        1 IBH      0.052700
@<TRIPOS>BOND
     1    1    2 1   
     2    2    3 ar  
     3    2    8 ar  
     4    3    4 ar  
     5    3   27 1   
     6    4    5 ar  
     7    4   28 1   
     8    5    6 ar  
     9    5   29 1   
    10    6    7 1   
    11    6    8 ar  
    12    8    9 1   
    13    9   10 1   
    14    9   30 1   
    15    9   31 1   
    16   10   11 2   
    17   10   12 1   
    18   12   13 2   
    19   13   14 1   
    20   13   16 1   
    21   14   15 1   
    22   14   32 1   
    23   15   17 2   
    24   16   17 1   
    25   17   18 1   
    26   18   19 1   
    27   18   20 1   
    28   18   21 1   
    29   19   33 1   
    30   19   34 1   
    31   19   35 1   
    32   20   36 1   
    33   21   22 1   
    34   21   24 2   
    35   22   23 1   
    36   23   25 2   
    37   23   37 1   
    38   24   25 1   
    39   25   26 1   
    40   26   38 1   
    41   26   39 1   
    42   26   40 1   
@<TRIPOS>SUBSTRUCTURE
     1 IBH         1 TEMP              0 ****  ****    0 ROOT
