@<TRIPOS>MOLECULE
IBH
   40    42     1     0     0
SMALL
bcc


@<TRIPOS>ATOM
      1 F1         -0.4420   -0.2470   -0.7180 f         1 IBH     -0.134400
      2 C11         0.8260   -0.2030   -0.2420 ca        1 IBH      0.163900
      3 C12         1.0490   -0.4360    1.1270 ca        1 IBH     -0.180000
      4 C13         2.3460   -0.4040    1.6280 ca        1 IBH     -0.077000
      5 C14         3.4260   -0.1510    0.7880 ca        1 IBH     -0.180000
      6 C15         3.2030    0.0820   -0.5810 ca        1 IBH      0.163900
      7 F           4.2640    0.3170   -1.3890 f         1 IBH     -0.134400
      8 C10         1.8980    0.0660   -1.1200 ca        1 IBH     -0.146300
      9 C9          1.6640    0.2980   -2.5680 c3        1 IBH     -0.082100
     10 C8          1.4380    1.7600   -2.9060 c         1 IBH      0.712500
     11 O           1.4490    2.6680   -2.0540 o         1 IBH     -0.578100
     12 N3          1.2120    2.0000   -4.2770 ne        1 IBH     -0.749100
     13 C7          1.0140    3.2050   -4.7420 cd        1 IBH      0.661100
     14 N2          0.7400    3.4430   -6.1200 na        1 IBH     -0.512300
     15 N1          0.6030    4.7090   -6.4980 n2        1 IBH     -0.334400
     16 S1          0.9900    4.7740   -3.9340 ss        1 IBH     -0.013400
     17 C6          0.6830    5.5420   -5.4640 cc        1 IBH      0.244200
     18 C4          0.5880    7.0440   -5.5720 c3        1 IBH      0.148200
     19 C5          0.7490    7.6640   -4.1820 c3        1 IBH     -0.134100
     20 O1          1.6650    7.4450   -6.4130 oh        1 IBH     -0.574800
     21 C3         -0.7390    7.4570   -6.1640 cc        1 IBH      0.331700
     22 S          -1.9860    6.3560   -6.5700 ss        1 IBH     -0.004300
     23 C2         -2.9620    7.5990   -7.0800 cc        1 IBH     -0.278400
     24 N          -1.0350    8.7400   -6.4110 nd        1 IBH     -0.638000
     25 C1         -2.3170    8.8290   -6.9430 cd        1 IBH      0.351600
     26 C          -2.9150   10.1300   -7.3190 c3        1 IBH     -0.124400
     27 H12         0.1930   -0.6380    1.7870 ha        1 IBH      0.154000
     28 H13         2.5200   -0.5810    2.7000 ha        1 IBH      0.144000
     29 H14         4.4530   -0.1270    1.1800 ha        1 IBH      0.154000
     30 H91C        0.7620   -0.2860   -2.9040 hc        1 IBH      0.093700
     31 H92C        2.5500   -0.0680   -3.1580 hc        1 IBH      0.093700
     32 H2          0.8070    2.7420   -6.8290 hn        1 IBH      0.498800
     33 H51C        0.7440    8.7770   -4.2610 hc        1 IBH      0.064367
     34 H52C       -0.0860    7.3460   -3.5130 hc        1 IBH      0.064367
     35 H53C        1.7240    7.3430   -3.7390 hc        1 IBH      0.064367
     36 H1          1.6050    8.4050   -6.5120 ho        1 IBH      0.427000
     37 HA         -3.9680    7.4690   -7.4720 h4        1 IBH      0.183000
     38 HC1        -3.9500    9.9750   -7.7080 hc        1 IBH      0.052700
     39 HC2        -2.3020   10.6270   -8.1120 hc        1 IBH      0.052700
     40 HC3        -2.9610   10.8120   -6.4330 hc        1 IBH      0.052700
@<TRIPOS>BOND
     1    1    2 1   
     2    2    3 ar  
     3    2    8 ar  
     4    3    4 ar  
     5    3   27 1   
     6    4    5 ar  
     7    4   28 1   
     8    5    6 ar  
     9    5   29 1   
    10    6    7 1   
    11    6    8 ar  
    12    8    9 1   
    13    9   10 1   
    14    9   30 1   
    15    9   31 1   
    16   10   11 2   
    17   10   12 1   
    18   12   13 2   
    19   13   14 1   
    20   13   16 1   
    21   14   15 1   
    22   14   32 1   
    23   15   17 2   
    24   16   17 1   
    25   17   18 1   
    26   18   19 1   
    27   18   20 1   
    28   18   21 1   
    29   19   33 1   
    30   19   34 1   
    31   19   35 1   
    32   20   36 1   
    33   21   22 1   
    34   21   24 2   
    35   22   23 1   
    36   23   25 2   
    37   23   37 1   
    38   24   25 1   
    39   25   26 1   
    40   26   38 1   
    41   26   39 1   
    42   26   40 1   
@<TRIPOS>SUBSTRUCTURE
     1 IBH         1 TEMP              0 ****  ****    0 ROOT
