@<TRIPOS>MOLECULE
IBH
   40    42     1     0     0
SMALL
bcc


@<TRIPOS>ATOM
      1 F1         -5.3360    0.4360   -1.9980 f         1 IBH     -0.130900
      2 C11        -5.2510    0.1020   -0.6880 ca        1 IBH      0.165400
      3 C12        -6.1180    0.7210    0.2310 ca        1 IBH     -0.185000
      4 C13        -6.0480    0.3830    1.5780 ca        1 IBH     -0.079000
      5 C14        -5.1360   -0.5660    2.0260 ca        1 IBH     -0.185000
      6 C15        -4.2680   -1.1870    1.1070 ca        1 IBH      0.165400
      7 F          -3.3980   -2.1210    1.5560 f         1 IBH     -0.130900
      8 C10        -4.3070   -0.8590   -0.2660 ca        1 IBH     -0.143300
      9 C9         -3.3940   -1.5140   -1.2340 c3        1 IBH     -0.082100
     10 C8         -2.0580   -0.8090   -1.3910 c         1 IBH      0.713500
     11 O          -1.5390   -0.6840   -2.5180 o         1 IBH     -0.588100
     12 N3         -1.4600   -0.3600   -0.2030 ne        1 IBH     -0.744100
     13 C7         -0.3050    0.2540   -0.1950 cd        1 IBH      0.671100
     14 N2          0.2870    0.7230    1.0100 na        1 IBH     -0.511300
     15 N1          1.4760    1.3080    0.9150 n2        1 IBH     -0.340400
     16 S1          0.7940    0.6900   -1.5080 ss        1 IBH     -0.037400
     17 C6          1.8880    1.3830   -0.3470 cc        1 IBH      0.232200
     18 C4          3.2050    1.9940   -0.7680 c3        1 IBH      0.150200
     19 C5          3.1480    2.3780   -2.2480 c3        1 IBH     -0.109100
     20 O1          3.4680    3.2010   -0.0730 oh        1 IBH     -0.572800
     21 C3          4.2960    0.9770   -0.5210 cc        1 IBH      0.331700
     22 S           5.2330    0.3120   -1.7970 ss        1 IBH     -0.045300
     23 C2          6.0990   -0.6090   -0.7140 cc        1 IBH     -0.264400
     24 N           4.6180    0.5290    0.6950 nd        1 IBH     -0.617000
     25 C1          5.6620   -0.3880    0.5910 cd        1 IBH      0.350600
     26 C           6.2320   -1.0530    1.7850 c3        1 IBH     -0.125400
     27 H12        -6.8410    1.4680   -0.1280 ha        1 IBH      0.153000
     28 H13        -6.7240    0.8710    2.2970 ha        1 IBH      0.143000
     29 H14        -5.0800   -0.8390    3.0890 ha        1 IBH      0.153000
     30 H91C       -3.1770   -2.5670   -0.9030 hc        1 IBH      0.090700
     31 H92C       -3.8730   -1.5550   -2.2510 hc        1 IBH      0.090700
     32 H2         -0.0910    0.5560    1.9200 hn        1 IBH      0.500800
     33 H51C        2.4370    3.2280   -2.3840 hc        1 IBH      0.066033
     34 H52C        4.1590    2.7070   -2.5900 hc        1 IBH      0.066033
     35 H53C        2.8100    1.5060   -2.8610 hc        1 IBH      0.066033
     36 H1          3.5710    2.9960    0.8660 ho        1 IBH      0.434000
     37 HA          6.8990   -1.2910   -0.9940 h4        1 IBH      0.184000
     38 HC1         6.6500   -0.2940    2.4930 hc        1 IBH      0.053700
     39 HC2         5.4420   -1.6370    2.3220 hc        1 IBH      0.053700
     40 HC3         7.0500   -1.7500    1.4780 hc        1 IBH      0.053700
@<TRIPOS>BOND
     1    1    2 1   
     2    2    3 ar  
     3    2    8 ar  
     4    3    4 ar  
     5    3   27 1   
     6    4    5 ar  
     7    4   28 1   
     8    5    6 ar  
     9    5   29 1   
    10    6    7 1   
    11    6    8 ar  
    12    8    9 1   
    13    9   10 1   
    14    9   30 1   
    15    9   31 1   
    16   10   11 2   
    17   10   12 1   
    18   12   13 2   
    19   13   14 1   
    20   13   16 1   
    21   14   15 1   
    22   14   32 1   
    23   15   17 2   
    24   16   17 1   
    25   17   18 1   
    26   18   19 1   
    27   18   20 1   
    28   18   21 1   
    29   19   33 1   
    30   19   34 1   
    31   19   35 1   
    32   20   36 1   
    33   21   22 1   
    34   21   24 2   
    35   22   23 1   
    36   23   25 2   
    37   23   37 1   
    38   24   25 1   
    39   25   26 1   
    40   26   38 1   
    41   26   39 1   
    42   26   40 1   
@<TRIPOS>SUBSTRUCTURE
     1 IBH         1 TEMP              0 ****  ****    0 ROOT
