@<TRIPOS>MOLECULE
IBH
   40    42     1     0     0
SMALL
bcc


@<TRIPOS>ATOM
      1 F1         -0.4710   -0.2070   -0.6480 f         1 IBH     -0.134400
      2 C11         0.8090   -0.1890   -0.2060 ca        1 IBH      0.163900
      3 C12         1.0630   -0.4180    1.1590 ca        1 IBH     -0.180000
      4 C13         2.3740   -0.4130    1.6250 ca        1 IBH     -0.077000
      5 C14         3.4360   -0.1920    0.7550 ca        1 IBH     -0.180000
      6 C15         3.1830    0.0360   -0.6100 ca        1 IBH      0.163900
      7 F           4.2270    0.2400   -1.4470 f         1 IBH     -0.134400
      8 C10         1.8640    0.0470   -1.1140 ca        1 IBH     -0.146300
      9 C9          1.5970    0.2740   -2.5570 c3        1 IBH     -0.082100
     10 C8          1.3980    1.7390   -2.9010 c         1 IBH      0.712500
     11 O           1.4510    2.6520   -2.0570 o         1 IBH     -0.578100
     12 N3          1.1450    1.9730   -4.2690 ne        1 IBH     -0.749100
     13 C7          0.9640    3.1800   -4.7380 cd        1 IBH      0.661100
     14 N2          0.6630    3.4140   -6.1110 na        1 IBH     -0.512300
     15 N1          0.5470    4.6800   -6.4960 n2        1 IBH     -0.334400
     16 S1          0.9970    4.7550   -3.9420 ss        1 IBH     -0.013400
     17 C6          0.6720    5.5190   -5.4700 cc        1 IBH      0.244200
     18 C4          0.6100    7.0210   -5.5880 c3        1 IBH      0.148200
     19 C5          0.8190    7.6480   -4.2070 c3        1 IBH     -0.134100
     20 O1          1.6770    7.3900   -6.4570 oh        1 IBH     -0.574800
     21 C3         -0.7200    7.4630   -6.1520 cc        1 IBH      0.331700
     22 S          -2.0020    6.3890   -6.5200 ss        1 IBH     -0.004300
     23 C2         -2.9600    7.6520   -7.0160 cc        1 IBH     -0.278400
     24 N          -0.9900    8.7500   -6.4030 nd        1 IBH     -0.638000
     25 C1         -2.2820    8.8670   -6.9050 cd        1 IBH      0.351600
     26 C          -2.8570   10.1790   -7.2770 c3        1 IBH     -0.124400
     27 H12         0.2200   -0.5940    1.8430 ha        1 IBH      0.154000
     28 H13         2.5720   -0.5860    2.6940 ha        1 IBH      0.144000
     29 H14         4.4740   -0.1890    1.1190 ha        1 IBH      0.154000
     30 H91C        2.4570   -0.1190   -3.1680 hc        1 IBH      0.093700
     31 H92C        0.6720   -0.2900   -2.8640 hc        1 IBH      0.093700
     32 H2          0.6970    2.7060   -6.8160 hn        1 IBH      0.498800
     33 H51C       -0.0080    7.3560   -3.5170 hc        1 IBH      0.064367
     34 H52C        1.7960    7.3060   -3.7840 hc        1 IBH      0.064367
     35 H53C        0.8390    8.7600   -4.2950 hc        1 IBH      0.064367
     36 H1          1.6380    8.3510   -6.5630 ho        1 IBH      0.427000
     37 HA         -3.9780    7.5430   -7.3840 h4        1 IBH      0.183000
     38 HC1        -2.2510   10.6550   -8.0880 hc        1 IBH      0.052700
     39 HC2        -3.9040   10.0460   -7.6420 hc        1 IBH      0.052700
     40 HC3        -2.8660   10.8680   -6.3960 hc        1 IBH      0.052700
@<TRIPOS>BOND
     1    1    2 1   
     2    2    3 ar  
     3    2    8 ar  
     4    3    4 ar  
     5    3   27 1   
     6    4    5 ar  
     7    4   28 1   
     8    5    6 ar  
     9    5   29 1   
    10    6    7 1   
    11    6    8 ar  
    12    8    9 1   
    13    9   10 1   
    14    9   30 1   
    15    9   31 1   
    16   10   11 2   
    17   10   12 1   
    18   12   13 2   
    19   13   14 1   
    20   13   16 1   
    21   14   15 1   
    22   14   32 1   
    23   15   17 2   
    24   16   17 1   
    25   17   18 1   
    26   18   19 1   
    27   18   20 1   
    28   18   21 1   
    29   19   33 1   
    30   19   34 1   
    31   19   35 1   
    32   20   36 1   
    33   21   22 1   
    34   21   24 2   
    35   22   23 1   
    36   23   25 2   
    37   23   37 1   
    38   24   25 1   
    39   25   26 1   
    40   26   38 1   
    41   26   39 1   
    42   26   40 1   
@<TRIPOS>SUBSTRUCTURE
     1 IBH         1 TEMP              0 ****  ****    0 ROOT
