@<TRIPOS>MOLECULE
IBI
   96   101     1     0     0
SMALL
bcc


@<TRIPOS>ATOM
      1 C1         -0.1570    0.0760    0.2140 c3        1 IBI      0.170300
      2 C2          1.3300    0.4700    0.1130 c3        1 IBI      0.166800
      3 C5          0.2990   -1.0570    2.3050 c3        1 IBI      0.170300
      4 C6          1.7830   -0.6530    2.1950 c3        1 IBI      0.166800
      5 C7         -3.3570   -3.4520    1.3150 c3        1 IBI     -0.093400
      6 C8         -1.9180   -3.0050    1.4730 c3        1 IBI     -0.097900
      7 C11        -4.1260   -1.1160    1.8340 c3        1 IBI     -0.093400
      8 C12        -2.6820   -0.6860    1.9800 c3        1 IBI     -0.097900
      9 C15        -8.6200   -2.8360    1.8190 ca        1 IBI     -0.064000
     10 C16       -10.0110   -1.1980    3.6050 ca        1 IBI      0.049100
     11 C17        -7.9600   -2.3120    2.9390 ca        1 IBI     -0.252600
     12 C18        -8.6830   -1.5020    3.8440 ca        1 IBI     -0.085000
     13 C21       -16.8880   -0.6550   -0.9870 c3        1 IBI      0.140500
     14 N22       -15.0720   -1.6510   -2.3910 n         1 IBI     -0.365000
     15 C24       -14.2830   -1.5550   -1.2440 ca        1 IBI     -0.190000
     16 C31       -18.4150   -0.5270   -1.0070 c3        1 IBI     -0.076400
     17 C32       -18.9200    0.4140    0.0540 c3        1 IBI     -0.097100
     18 C34       -17.1220   -3.6630   -0.0420 c3        1 IBI     -0.111100
     19 C35       -16.5430   -2.7730    2.2040 c3        1 IBI     -0.111100
     20 C36       -14.4730   -2.0450   -3.6380 c3        1 IBI      0.068300
     21 C38       -10.2390   -0.1460    5.7380 c3        1 IBI      0.111700
     22 O40        -6.0000   -2.4270    4.3410 o         1 IBI     -0.455100
     23 C14       -10.6960   -1.6910    2.4270 ca        1 IBI      0.275600
     24 N19       -12.0140   -1.3610    2.2350 nh        1 IBI     -0.700300
     25 C26       -12.7550   -1.4540    1.0250 ca        1 IBI      0.834900
     26 N27       -14.1280   -1.3950    1.1910 nb        1 IBI     -0.695000
     27 C25       -14.8930   -1.4380    0.0730 ca        1 IBI      0.645200
     28 N23       -16.3080   -1.2870    0.1940 nh        1 IBI     -0.723300
     29 N28       -12.0980   -1.5480   -0.1790 nb        1 IBI     -0.717000
     30 C29       -12.8680   -1.5950   -1.2780 ca        1 IBI      0.408200
     31 C20       -16.4230   -1.2760   -2.3230 c         1 IBI      0.667500
     32 O30       -17.1650   -1.4140   -3.3050 o         1 IBI     -0.586500
     33 C13        -9.9490   -2.5430    1.5720 ca        1 IBI     -0.171000
     34 N41        -5.6940   -3.0560    2.1180 n4        1 IBI     -0.678800
     35 C9         -4.2610   -2.5960    2.2090 c3        1 IBI      0.117500
     36 C10        -1.7670   -1.5270    1.0710 c3        1 IBI      0.192500
     37 N3         -0.3680   -1.1230    1.0140 n3        1 IBI     -0.731600
     38 N4          1.9790    0.5580    1.4140 n3        1 IBI     -0.726600
     39 C42         3.3810    0.9400    1.2830 c3        1 IBI      0.197800
     40 C43         4.0940    1.1300    2.5960 cx        1 IBI     -0.136700
     41 C45         5.1090    2.2380    2.7000 cx        1 IBI     -0.122400
     42 C44         3.8090    2.3450    3.4380 cx        1 IBI     -0.122400
     43 H1         -0.7360    0.9560    0.6200 h1        1 IBI      0.035700
     44 H1A        -0.5250   -0.1320   -0.8300 h1        1 IBI      0.035700
     45 H2          1.3790    1.4870   -0.3690 h1        1 IBI      0.044450
     46 H2A         1.8510   -0.2630   -0.5700 h1        1 IBI      0.044450
     47 H5         -0.2150   -0.3330    3.0040 h1        1 IBI      0.035700
     48 H5A         0.2580   -2.0800    2.7720 h1        1 IBI      0.035700
     49 H6          2.3650   -1.5250    1.7740 h1        1 IBI      0.044450
     50 H6A         2.1560   -0.4570    3.2390 h1        1 IBI      0.044450
     51 H7         -3.4360   -4.5340    1.6010 hc        1 IBI      0.060950
     52 H7A        -3.6670   -3.3510    0.2410 hc        1 IBI      0.060950
     53 H8         -1.5900   -3.1550    2.5350 hc        1 IBI      0.071700
     54 H8A        -1.2660   -3.6450    0.8220 hc        1 IBI      0.071700
     55 H11        -4.7690   -0.4910    2.5100 hc        1 IBI      0.060950
     56 H11A       -4.4640   -0.9500    0.7770 hc        1 IBI      0.060950
     57 H12        -2.6000    0.3990    1.7080 hc        1 IBI      0.071700
     58 H12A       -2.3610   -0.7910    3.0500 hc        1 IBI      0.071700
     59 H15        -8.1160   -3.5250    1.1230 ha        1 IBI      0.121000
     60 H18        -8.1690   -1.1140    4.7390 ha        1 IBI      0.169000
     61 H21       -16.4690    0.4040   -0.9940 h1        1 IBI      0.089700
     62 H31       -18.6960   -0.1290   -2.0220 hc        1 IBI      0.070700
     63 H31A      -18.8980   -1.5340   -0.9150 hc        1 IBI      0.070700
     64 H32       -18.4820    1.4330   -0.0820 hc        1 IBI      0.044700
     65 H32A      -18.6600    0.0590    1.0800 hc        1 IBI      0.044700
     66 H32B      -20.0320    0.4980   -0.0180 hc        1 IBI      0.044700
     67 H33       -18.0970   -1.9990    0.9490 h1        1 IBI      0.076700
     68 H34       -16.1170   -4.1340   -0.1530 hc        1 IBI      0.047867
     69 H34A      -17.8020   -4.3940    0.4580 hc        1 IBI      0.047867
     70 H34B      -17.5270   -3.4380   -1.0590 hc        1 IBI      0.047867
     71 H35       -17.3370   -3.3820    2.7020 hc        1 IBI      0.047867
     72 H35A      -15.6140   -3.3880    2.1510 hc        1 IBI      0.047867
     73 H35B      -16.3460   -1.8670    2.8260 hc        1 IBI      0.047867
     74 H36       -15.2810   -2.2160   -4.4000 h1        1 IBI      0.059033
     75 H36A      -13.7830   -1.2410   -4.0130 h1        1 IBI      0.059033
     76 H36B      -13.8900   -2.9940   -3.5000 h1        1 IBI      0.059033
     77 H38       -11.0820    0.3820    6.2550 h1        1 IBI      0.058033
     78 H38A       -9.3420    0.5160    5.6730 h1        1 IBI      0.058033
     79 H38B       -9.9930   -1.1050    6.2550 h1        1 IBI      0.058033
     80 HN19      -12.4860   -0.9110    2.9990 hn        1 IBI      0.488800
     81 H29       -12.3150   -1.6760   -2.2330 h4        1 IBI      0.042100
     82 H13       -10.4270   -3.0040    0.6930 ha        1 IBI      0.182000
     83 HN41       -6.0920   -2.7270    1.2330 hn        1 IBI      0.450300
     84 H9         -3.9480   -2.7310    3.2900 hx        1 IBI      0.126700
     85 H10        -2.1640   -1.4290    0.0130 h1        1 IBI      0.056700
     86 H42         3.3980    1.9110    0.7090 h1        1 IBI      0.038700
     87 H42A        3.9620    0.1780    0.6790 h1        1 IBI      0.038700
     88 H43         4.3140    0.1750    3.1130 hc        1 IBI      0.077700
     89 H45         5.2860    2.8900    1.8270 hc        1 IBI      0.073700
     90 H45A        6.0380    2.0520    3.2680 hc        1 IBI      0.073700
     91 H44         3.0500    3.0670    3.0880 hc        1 IBI      0.073700
     92 H44A        3.8040    2.2410    4.5380 hc        1 IBI      0.073700
     93 C39        -6.5700   -2.5640    3.2640 c         1 IBI      0.581700
     94 H412       -5.7080   -4.0810    2.1230 hn        1 IBI      0.450300
     95 O37       -10.7650   -0.3900    4.4350 os        1 IBI     -0.332900
     96 C33       -17.0430   -2.3950    0.8110 c3        1 IBI      0.198500
@<TRIPOS>BOND
     1    1    2 1   
     2    1   37 1   
     3    1   43 1   
     4    1   44 1   
     5    2   38 1   
     6    2   45 1   
     7    2   46 1   
     8    3    4 1   
     9    3   37 1   
    10    3   47 1   
    11    3   48 1   
    12    4   38 1   
    13    4   49 1   
    14    4   50 1   
    15    5    6 1   
    16    5   35 1   
    17    5   51 1   
    18    5   52 1   
    19    6   36 1   
    20    6   53 1   
    21    6   54 1   
    22    7    8 1   
    23    7   35 1   
    24    7   55 1   
    25    7   56 1   
    26    8   36 1   
    27    8   57 1   
    28    8   58 1   
    29    9   11 ar  
    30    9   33 ar  
    31    9   59 1   
    32   10   12 ar  
    33   10   23 ar  
    34   10   95 1   
    35   11   12 ar  
    36   11   93 1   
    37   12   60 1   
    38   13   16 1   
    39   13   28 1   
    40   13   31 1   
    41   13   61 1   
    42   14   15 1   
    43   14   20 1   
    44   14   31 1   
    45   15   27 ar  
    46   15   30 ar  
    47   16   17 1   
    48   16   62 1   
    49   16   63 1   
    50   17   64 1   
    51   17   65 1   
    52   17   66 1   
    53   18   68 1   
    54   18   69 1   
    55   18   70 1   
    56   18   96 1   
    57   19   71 1   
    58   19   72 1   
    59   19   73 1   
    60   19   96 1   
    61   20   74 1   
    62   20   75 1   
    63   20   76 1   
    64   21   77 1   
    65   21   78 1   
    66   21   79 1   
    67   21   95 1   
    68   22   93 2   
    69   23   24 1   
    70   23   33 ar  
    71   24   25 1   
    72   24   80 1   
    73   25   26 ar  
    74   25   29 ar  
    75   26   27 ar  
    76   27   28 1   
    77   28   96 1   
    78   29   30 ar  
    79   30   81 1   
    80   31   32 2   
    81   33   82 1   
    82   34   35 1   
    83   34   83 1   
    84   34   93 1   
    85   34   94 1   
    86   35   84 1   
    87   36   37 1   
    88   36   85 1   
    89   38   39 1   
    90   39   40 1   
    91   39   86 1   
    92   39   87 1   
    93   40   41 1   
    94   40   42 1   
    95   40   88 1   
    96   41   42 1   
    97   41   89 1   
    98   41   90 1   
    99   42   91 1   
   100   42   92 1   
   101   67   96 1   
@<TRIPOS>SUBSTRUCTURE
     1 IBI         1 TEMP              0 ****  ****    0 ROOT
