@<TRIPOS>MOLECULE
IBI
   95   100     1     0     0
SMALL
bcc


@<TRIPOS>ATOM
      1 C1         -8.3280    2.0460   -0.6770 c3        1 IBI      0.170800
      2 C2         -9.8480    2.2960   -0.6950 c3        1 IBI      0.166800
      3 C5         -8.6840   -0.0670    0.4260 c3        1 IBI      0.170800
      4 C6        -10.2070    0.1740    0.4030 c3        1 IBI      0.166800
      5 C7         -4.5110    0.4720    1.9500 c3        1 IBI     -0.090400
      6 C8         -6.0200    0.4420    1.8440 c3        1 IBI     -0.091400
      7 C11        -4.3360    0.1240   -0.5220 c3        1 IBI     -0.090400
      8 C12        -5.8450    0.1040   -0.6170 c3        1 IBI     -0.091400
      9 C15         0.4020   -0.4950    1.8440 ca        1 IBI     -0.130000
     10 C16         1.8930   -2.5080    0.6140 ca        1 IBI      0.086100
     11 C17        -0.2470   -1.5340    1.1780 ca        1 IBI     -0.115600
     12 C18         0.4990   -2.5500    0.5730 ca        1 IBI     -0.144000
     13 C21         8.6940    0.8850   -1.3210 c3        1 IBI      0.137500
     14 N22         7.1760    2.6930   -0.5090 n         1 IBI     -0.361000
     15 C24         6.3410    1.6450   -0.0910 ca        1 IBI     -0.240000
     16 C31        10.1610    0.7220   -1.7310 c3        1 IBI     -0.074400
     17 C32        10.4390   -0.6350   -2.3210 c3        1 IBI     -0.094100
     18 C33         9.1460   -0.2220    0.8750 c3        1 IBI      0.197500
     19 C34         9.4810    1.0120    1.7150 c3        1 IBI     -0.110600
     20 C35         8.6940   -1.3400    1.8120 c3        1 IBI     -0.110600
     21 C36         6.7240    4.0510   -0.3840 c3        1 IBI      0.075300
     22 C38         2.0450   -4.6360   -0.4530 c3        1 IBI      0.115700
     23 O40        -2.3170   -2.7330    1.1500 o         1 IBI     -0.610100
     24 C14         2.5750   -1.4450    1.2800 ca        1 IBI      0.115600
     25 N19         3.9860   -1.4440    1.4010 nh        1 IBI     -0.677300
     26 C26         4.7480   -0.3950    0.8160 ca        1 IBI      0.846900
     27 N27         6.0770   -0.6950    0.5530 nb        1 IBI     -0.716000
     28 C25         6.8680    0.3110    0.1110 ca        1 IBI      0.641200
     29 N23         8.2290    0.0190   -0.2420 nh        1 IBI     -0.719300
     30 N28         4.1620    0.8420    0.6150 nb        1 IBI     -0.718000
     31 C29         4.9610    1.8190    0.1700 ca        1 IBI      0.429200
     32 C20         8.4040    2.3860   -1.0990 c         1 IBI      0.666500
     33 O30         9.1880    3.2850   -1.4440 o         1 IBI     -0.619500
     34 C13         1.7940   -0.4520    1.8990 ca        1 IBI     -0.088000
     35 N41        -2.4350   -0.4490    0.9640 n         1 IBI     -0.567900
     36 C9         -3.8760   -0.3980    0.8510 c3        1 IBI      0.097700
     37 C10        -6.4700    0.9860    0.4780 c3        1 IBI      0.186500
     38 N3         -7.9190    1.1690    0.4090 n3        1 IBI     -0.733600
     39 N4        -10.6290    1.0650   -0.6670 n3        1 IBI     -0.725600
     40 C42       -12.0590    1.3490   -0.6450 c3        1 IBI      0.197800
     41 C43       -12.9310    0.1230   -0.7240 cx        1 IBI     -0.128700
     42 C45       -14.2140    0.2110   -1.5090 cx        1 IBI     -0.125900
     43 C44       -13.0740   -0.6130   -2.0290 cx        1 IBI     -0.125900
     44 H1         -8.0190    1.6430   -1.6860 h1        1 IBI      0.036700
     45 H1A        -7.8220    3.0410   -0.5330 h1        1 IBI      0.036700
     46 H2        -10.1120    2.9780    0.1660 h1        1 IBI      0.036950
     47 H2A       -10.0940    2.8370   -1.6520 h1        1 IBI      0.036950
     48 H5         -8.4410   -0.6150    1.3780 h1        1 IBI      0.036700
     49 H5A        -8.4170   -0.7390   -0.4420 h1        1 IBI      0.036700
     50 H6        -10.7040   -0.8220    0.2340 h1        1 IBI      0.036950
     51 H6A       -10.5280    0.5570    1.4160 h1        1 IBI      0.036950
     52 H7         -4.1440    1.5280    1.8620 hc        1 IBI      0.045200
     53 H7A        -4.2070    0.0890    2.9590 hc        1 IBI      0.045200
     54 H8         -6.3840   -0.6100    1.9790 hc        1 IBI      0.050450
     55 H8A        -6.4620    1.0630    2.6660 hc        1 IBI      0.050450
     56 H11        -3.9070   -0.5180   -1.3350 hc        1 IBI      0.045200
     57 H11A       -3.9590    1.1680   -0.6790 hc        1 IBI      0.045200
     58 H12        -6.1550    0.4730   -1.6300 hc        1 IBI      0.050450
     59 H12A       -6.2150   -0.9490   -0.5130 hc        1 IBI      0.050450
     60 H15        -0.1710    0.2940    2.3540 ha        1 IBI      0.139000
     61 H18        -0.0350   -3.3770    0.0780 ha        1 IBI      0.163000
     62 H21         8.0640    0.5950   -2.2240 h1        1 IBI      0.086700
     63 H31        10.3770    1.5150   -2.4990 hc        1 IBI      0.065200
     64 H31A       10.8380    0.9270   -0.8610 hc        1 IBI      0.065200
     65 H32        11.5080   -0.6950   -2.6410 hc        1 IBI      0.040700
     66 H32A       10.2460   -1.4510   -1.5840 hc        1 IBI      0.040700
     67 H32B        9.7930   -0.8150   -3.2150 hc        1 IBI      0.040700
     68 H33        10.1050   -0.5820    0.3870 h1        1 IBI      0.064700
     69 H34        10.2710    0.7450    2.4580 hc        1 IBI      0.046533
     70 H34A        9.8620    1.8430    1.0720 hc        1 IBI      0.046533
     71 H34B        8.5820    1.3740    2.2690 hc        1 IBI      0.046533
     72 H35         7.8900   -0.9920    2.5030 hc        1 IBI      0.046533
     73 H35A        8.3220   -2.2240    1.2410 hc        1 IBI      0.046533
     74 H35B        9.5730   -1.6540    2.4270 hc        1 IBI      0.046533
     75 H36         6.3320    4.2300    0.6520 h1        1 IBI      0.053367
     76 H36A        7.5820    4.7480   -0.5820 h1        1 IBI      0.053367
     77 H36B        5.9060    4.2620   -1.1250 h1        1 IBI      0.053367
     78 H38         2.8940   -5.2890   -0.7790 h1        1 IBI      0.050033
     79 H38A        1.4580   -5.1240    0.3620 h1        1 IBI      0.050033
     80 H38B        1.3860   -4.3860   -1.3190 h1        1 IBI      0.050033
     81 HN19        4.3870   -2.3550    1.2510 hn        1 IBI      0.443800
     82 H29         4.4660    2.7980    0.0240 h4        1 IBI      0.033100
     83 H13         2.2830    0.3740    2.4400 ha        1 IBI      0.160000
     84 HN41       -1.9400    0.4040    0.8730 hn        1 IBI      0.310500
     85 H9         -4.2640   -1.4560    0.9720 h1        1 IBI      0.092700
     86 H10        -6.0240    2.0230    0.3710 h1        1 IBI      0.052700
     87 H42       -12.3540    1.9240    0.2850 h1        1 IBI      0.033200
     88 H42A      -12.2730    2.0120   -1.5330 h1        1 IBI      0.033200
     89 H43       -12.9340   -0.4680    0.2120 hc        1 IBI      0.077700
     90 H45       -15.1110   -0.2970   -1.1150 hc        1 IBI      0.071200
     91 H45A      -14.4690    1.1570   -2.0190 hc        1 IBI      0.071200
     92 H44       -12.5060   -0.2540   -2.9050 hc        1 IBI      0.071200
     93 H44A      -13.1540   -1.7140   -2.0120 hc        1 IBI      0.071200
     94 C39        -1.7350   -1.6290    1.1020 c         1 IBI      0.675700
     95 O37         2.7000   -3.4640    0.0240 os        1 IBI     -0.340900
@<TRIPOS>BOND
     1    1    2 1   
     2    1   38 1   
     3    1   44 1   
     4    1   45 1   
     5    2   39 1   
     6    2   46 1   
     7    2   47 1   
     8    3    4 1   
     9    3   38 1   
    10    3   48 1   
    11    3   49 1   
    12    4   39 1   
    13    4   50 1   
    14    4   51 1   
    15    5    6 1   
    16    5   36 1   
    17    5   52 1   
    18    5   53 1   
    19    6   37 1   
    20    6   54 1   
    21    6   55 1   
    22    7    8 1   
    23    7   36 1   
    24    7   56 1   
    25    7   57 1   
    26    8   37 1   
    27    8   58 1   
    28    8   59 1   
    29    9   11 ar  
    30    9   34 ar  
    31    9   60 1   
    32   10   12 ar  
    33   10   24 ar  
    34   10   95 1   
    35   11   12 ar  
    36   11   94 1   
    37   12   61 1   
    38   13   16 1   
    39   13   29 1   
    40   13   32 1   
    41   13   62 1   
    42   14   15 1   
    43   14   21 1   
    44   14   32 1   
    45   15   28 ar  
    46   15   31 ar  
    47   16   17 1   
    48   16   63 1   
    49   16   64 1   
    50   17   65 1   
    51   17   66 1   
    52   17   67 1   
    53   18   19 1   
    54   18   20 1   
    55   18   29 1   
    56   18   68 1   
    57   19   69 1   
    58   19   70 1   
    59   19   71 1   
    60   20   72 1   
    61   20   73 1   
    62   20   74 1   
    63   21   75 1   
    64   21   76 1   
    65   21   77 1   
    66   22   78 1   
    67   22   79 1   
    68   22   80 1   
    69   22   95 1   
    70   23   94 2   
    71   24   25 1   
    72   24   34 ar  
    73   25   26 1   
    74   25   81 1   
    75   26   27 ar  
    76   26   30 ar  
    77   27   28 ar  
    78   28   29 1   
    79   30   31 ar  
    80   31   82 1   
    81   32   33 2   
    82   34   83 1   
    83   35   36 1   
    84   35   84 1   
    85   35   94 1   
    86   36   85 1   
    87   37   38 1   
    88   37   86 1   
    89   39   40 1   
    90   40   41 1   
    91   40   87 1   
    92   40   88 1   
    93   41   42 1   
    94   41   43 1   
    95   41   89 1   
    96   42   43 1   
    97   42   90 1   
    98   42   91 1   
    99   43   92 1   
   100   43   93 1   
@<TRIPOS>SUBSTRUCTURE
     1 IBI         1 TEMP              0 ****  ****    0 ROOT
