@<TRIPOS>MOLECULE
IBK
   38    39     1     0     0
SMALL
bcc


@<TRIPOS>ATOM
      1 CAA         6.9570    1.5980    0.0040 c3        1 IBK     -0.092100
      2 CAB         5.5270    0.4550    1.6880 c3        1 IBK     -0.092100
      3 OAC         3.5510   -0.1930   -2.7100 o         1 IBK     -0.605100
      4 CAD        -5.3160    1.4080    0.4730 cc        1 IBK     -0.160000
      5 CAE        -4.4410    2.4400    0.7480 cd        1 IBK     -0.162100
      6 CAF        -4.6270    0.1780    0.2670 cc        1 IBK     -0.104000
      7 CAG        -0.9030   -0.7660    0.3360 cc        1 IBK     -0.357600
      8 CAH         4.5530    1.2490   -0.4980 c3        1 IBK      0.080000
      9 CAI         1.8560   -1.3190   -1.4580 c3        1 IBK      0.045400
     10 CAJ         0.7650   -2.7750    0.0710 c3        1 IBK      0.103100
     11 NAK        -1.7470   -2.8330   -0.1640 nd        1 IBK     -0.351300
     12 NAL         3.3830    0.4150   -0.4930 n         1 IBK     -0.540900
     13 OAM         1.7880   -1.8090   -0.1210 os        1 IBK     -0.425600
     14 OAN        -2.7580   -2.0000   -0.0590 os        1 IBK     -0.108100
     15 SAO        -2.8580    1.9350    0.7530 ss        1 IBK      0.070200
     16 CAP         3.0230   -0.3430   -1.5900 c         1 IBK      0.651100
     17 CAQ        -0.5940   -2.1670    0.0620 cc        1 IBK      0.274600
     18 CAR        -2.2840   -0.6930    0.2510 cd        1 IBK      0.362200
     19 CAS        -3.2510    0.3350    0.3960 cd        1 IBK     -0.196600
     20 CAT         5.7850    0.6620    0.2120 c3        1 IBK     -0.096700
     21 HAA         7.8720    1.1840    0.4930 hc        1 IBK      0.036033
     22 HAAA        7.1660    1.7280   -1.0860 hc        1 IBK      0.036033
     23 HAAB        6.7440    2.6010    0.4460 hc        1 IBK      0.036033
     24 HAB         4.7590   -0.3390    1.8520 hc        1 IBK      0.036033
     25 HABA        6.4670    0.1380    2.2020 hc        1 IBK      0.036033
     26 HABB        5.1690    1.4000    2.1620 hc        1 IBK      0.036033
     27 HAE        -4.7300    3.4730    0.9400 h4        1 IBK      0.177000
     28 HAF        -5.1200   -0.7700    0.0370 ha        1 IBK      0.171000
     29 HAG        -0.1770    0.0090    0.5540 ha        1 IBK      0.183000
     30 HAH         4.8300    1.4750   -1.5690 h1        1 IBK      0.064200
     31 HAHA        4.2770    2.2180    0.0090 h1        1 IBK      0.064200
     32 HAI         2.0200   -2.1690   -2.1730 h1        1 IBK      0.070200
     33 HAIA        0.9030   -0.7820   -1.7140 h1        1 IBK      0.070200
     34 HAJ         0.8470   -3.5890   -0.7000 h1        1 IBK      0.077200
     35 HAJA        0.9860   -3.1930    1.0940 h1        1 IBK      0.077200
     36 HNAL        3.0660    0.1000    0.3970 hn        1 IBK      0.314500
     37 HAT         6.0350   -0.3320   -0.2550 hc        1 IBK      0.059700
     38 HAD        -6.4030    1.5020    0.4160 ha        1 IBK      0.161000
@<TRIPOS>BOND
     1    1   20 1   
     2    1   21 1   
     3    1   22 1   
     4    1   23 1   
     5    2   20 1   
     6    2   24 1   
     7    2   25 1   
     8    2   26 1   
     9    3   16 2   
    10    4    5 2   
    11    4    6 1   
    12    4   38 1   
    13    5   15 1   
    14    5   27 1   
    15    6   19 2   
    16    6   28 1   
    17    7   17 1   
    18    7   18 2   
    19    7   29 1   
    20    8   12 1   
    21    8   20 1   
    22    8   30 1   
    23    8   31 1   
    24    9   13 1   
    25    9   16 1   
    26    9   32 1   
    27    9   33 1   
    28   10   13 1   
    29   10   17 1   
    30   10   34 1   
    31   10   35 1   
    32   11   14 1   
    33   11   17 2   
    34   12   16 1   
    35   12   36 1   
    36   14   18 1   
    37   15   19 1   
    38   18   19 1   
    39   20   37 1   
@<TRIPOS>SUBSTRUCTURE
     1 IBK         1 TEMP              0 ****  ****    0 ROOT
