@<TRIPOS>MOLECULE
IBK
   39    40     1     0     0
SMALL
bcc


@<TRIPOS>ATOM
      1 CAA         2.0040   -0.6430    1.4560 c3        1 IBK     -0.109600
      2 CAB         2.2700   -3.0240    0.7670 c3        1 IBK     -0.109600
      3 OAC         2.9630   -1.6720   -3.6600 o         1 IBK     -0.413100
      4 CAD         6.2140   -9.3360   -4.2210 cc        1 IBK     -0.161000
      5 CAE         7.5210   -9.3340   -4.6780 cd        1 IBK     -0.143100
      6 CAF         5.8050   -8.0390   -3.8150 cc        1 IBK     -0.080000
      7 CAG         7.5900   -4.6300   -3.7810 cc        1 IBK     -0.381600
      8 CAH         3.0080   -1.1430   -0.7370 c3        1 IBK      0.103800
      9 CAI         5.2690   -0.8930   -3.4690 c3        1 IBK      0.066400
     10 CAJ         7.3110   -2.1210   -3.1710 c3        1 IBK      0.087100
     11 NAK         5.5930   -3.9620   -2.8920 nd        1 IBK     -0.482300
     12 NAL         3.9130   -1.9970   -1.5600 n4        1 IBK     -0.660800
     13 OAM         6.3600   -1.2020   -2.6300 os        1 IBK     -0.413600
     14 OAN         5.5130   -5.2560   -3.1190 os        1 IBK     -0.102100
     15 SAO         8.2080   -7.8310   -4.6150 ss        1 IBK      0.124200
     16 CAP         3.9750   -1.5310   -2.9910 c         1 IBK      0.531100
     17 CAQ         6.8130   -3.5160   -3.2660 cc        1 IBK      0.300600
     18 CAR         6.7370   -5.7250   -3.6750 cd        1 IBK      0.434200
     19 CAS         6.8270   -7.1030   -3.9840 cd        1 IBK     -0.258600
     20 CAT         2.8710   -1.6370    0.7070 c3        1 IBK     -0.083700
     21 HAA         0.9740   -0.6110    1.0250 hc        1 IBK      0.057867
     22 HAAA        2.4460    0.3820    1.4120 hc        1 IBK      0.057867
     23 HAAB        1.9280   -0.9480    2.5290 hc        1 IBK      0.057867
     24 HAB         2.9890   -3.7980    0.4060 hc        1 IBK      0.057867
     25 HABA        1.3360   -3.0820    0.1580 hc        1 IBK      0.057867
     26 HABB        2.0080   -3.2750    1.8260 hc        1 IBK      0.057867
     27 HAF         4.8130   -7.8050   -3.4210 ha        1 IBK      0.168000
     28 HAG         8.6070   -4.5920   -4.1590 ha        1 IBK      0.193000
     29 HAH         1.9960   -1.1380   -1.2380 hx        1 IBK      0.105200
     30 HAHA        3.4240   -0.0950   -0.7410 hx        1 IBK      0.105200
     31 HAI         5.1340    0.2270   -3.4070 h1        1 IBK      0.122200
     32 HAIA        5.4290   -1.2060   -4.5370 h1        1 IBK      0.122200
     33 HAJ         7.6550   -1.7700   -4.1830 h1        1 IBK      0.101700
     34 HAJA        8.1630   -2.0610   -2.4330 h1        1 IBK      0.101700
     35 HNAL        3.5660   -2.9680   -1.5400 hn        1 IBK      0.474300
     36 HAT         3.8900   -1.6550    1.1900 hc        1 IBK      0.069700
     37 HAD         5.5670  -10.2160   -4.1730 ha        1 IBK      0.174000
     38 HAL2        4.8630   -1.9870   -1.1640 hn        1 IBK      0.474300
     39 HAE         8.0530  -10.2160   -5.0430 h4        1 IBK      0.192000
@<TRIPOS>BOND
     1    1   20 1   
     2    1   21 1   
     3    1   22 1   
     4    1   23 1   
     5    2   20 1   
     6    2   24 1   
     7    2   25 1   
     8    2   26 1   
     9    3   16 2   
    10    4    5 2   
    11    4    6 1   
    12    4   37 1   
    13    5   15 1   
    14    5   39 1   
    15    6   19 2   
    16    6   27 1   
    17    7   17 1   
    18    7   18 2   
    19    7   28 1   
    20    8   12 1   
    21    8   20 1   
    22    8   29 1   
    23    8   30 1   
    24    9   13 1   
    25    9   16 1   
    26    9   31 1   
    27    9   32 1   
    28   10   13 1   
    29   10   17 1   
    30   10   33 1   
    31   10   34 1   
    32   11   14 1   
    33   11   17 2   
    34   12   16 1   
    35   12   35 1   
    36   12   38 1   
    37   14   18 1   
    38   15   19 1   
    39   18   19 1   
    40   20   36 1   
@<TRIPOS>SUBSTRUCTURE
     1 IBK         1 TEMP              0 ****  ****    0 ROOT
