@<TRIPOS>MOLECULE
IBK
   39    40     1     0     0
SMALL
bcc


@<TRIPOS>ATOM
      1 CAA         1.7680    0.5030   -0.3030 c3        1 IBK     -0.109600
      2 CAB         2.9910   -0.1420   -2.3770 c3        1 IBK     -0.109600
      3 OAC         6.3700   -2.0870    0.2120 o         1 IBK     -0.413100
      4 CAD         8.0400   -5.9080   -7.0160 cc        1 IBK     -0.161000
      5 CAE         8.0310   -7.2890   -6.9100 cd        1 IBK     -0.143100
      6 CAF         7.4320   -5.2980   -5.8880 cc        1 IBK     -0.080000
      7 CAG         5.8440   -6.7240   -2.6860 cc        1 IBK     -0.381600
      8 CAH         3.5670   -1.1730   -0.1520 c3        1 IBK      0.103800
      9 CAI         5.2320   -4.1520    0.8440 c3        1 IBK      0.066400
     10 CAJ         4.6600   -6.0830   -0.4650 c3        1 IBK      0.087100
     11 NAK         5.4930   -4.5050   -2.2650 nd        1 IBK     -0.482300
     12 NAL         4.2650   -2.3520   -0.7440 ny        1 IBK     -0.660800
     13 OAM         4.2130   -4.9440    0.2740 os        1 IBK     -0.413600
     14 OAN         6.0960   -4.5970   -3.4310 os        1 IBK     -0.102100
     15 SAO         7.3190   -7.8080   -5.5110 ss        1 IBK      0.124200
     16 CAP         5.4010   -2.8250    0.1240 c         1 IBK      0.531100
     17 CAQ         5.3080   -5.7440   -1.7570 cc        1 IBK      0.300600
     18 CAR         6.3380   -5.9650   -3.7430 cd        1 IBK      0.434200
     19 CAS         6.9850   -6.2490   -4.9690 cd        1 IBK     -0.258600
     20 CAT         2.4510   -0.6270   -1.0500 c3        1 IBK     -0.083700
     21 HAA         2.4780    1.3450   -0.1200 hc        1 IBK      0.057867
     22 HAAA        1.3700    0.1460    0.6780 hc        1 IBK      0.057867
     23 HAAB        0.9130    0.8890   -0.9110 hc        1 IBK      0.057867
     24 HAB         3.3090   -0.9930   -3.0260 hc        1 IBK      0.057867
     25 HABA        3.8580    0.5470   -2.2300 hc        1 IBK      0.057867
     26 HABB        2.1940    0.4200   -2.9250 hc        1 IBK      0.057867
     27 HAF         7.3290   -4.2170   -5.7570 ha        1 IBK      0.168000
     28 HAG         5.8460   -7.8020   -2.5620 ha        1 IBK      0.193000
     29 HAH         4.3430   -0.3720    0.0250 hx        1 IBK      0.105200
     30 HAHA        3.1350   -1.4900    0.8390 hx        1 IBK      0.105200
     31 HAI         4.8950   -3.9220    1.8970 h1        1 IBK      0.122200
     32 HAIA        6.2340   -4.6620    0.8590 h1        1 IBK      0.122200
     33 HAJ         5.3610   -6.7000    0.1620 h1        1 IBK      0.101700
     34 HAJA        3.7030   -6.6520   -0.6480 h1        1 IBK      0.101700
     35 HNAL        4.6390   -2.0880   -1.6690 hn        1 IBK      0.474300
     36 HAT         1.6940   -1.4410   -1.2350 hc        1 IBK      0.069700
     37 HAD         8.4590   -5.3460   -7.8550 ha        1 IBK      0.174000
     38 HAL2        3.5990   -3.1250   -0.8750 hn        1 IBK      0.474300
     39 HAE         8.4420   -7.9720   -7.6570 h4        1 IBK      0.192000
@<TRIPOS>BOND
     1    1   20 1   
     2    1   21 1   
     3    1   22 1   
     4    1   23 1   
     5    2   20 1   
     6    2   24 1   
     7    2   25 1   
     8    2   26 1   
     9    3   16 2   
    10    4    5 2   
    11    4    6 1   
    12    4   37 1   
    13    5   15 1   
    14    5   39 1   
    15    6   19 2   
    16    6   27 1   
    17    7   17 1   
    18    7   18 2   
    19    7   28 1   
    20    8   12 1   
    21    8   20 1   
    22    8   29 1   
    23    8   30 1   
    24    9   13 1   
    25    9   16 1   
    26    9   31 1   
    27    9   32 1   
    28   10   13 1   
    29   10   17 1   
    30   10   33 1   
    31   10   34 1   
    32   11   14 1   
    33   11   17 2   
    34   12   16 1   
    35   12   35 1   
    36   12   38 1   
    37   14   18 1   
    38   15   19 1   
    39   18   19 1   
    40   20   36 1   
@<TRIPOS>SUBSTRUCTURE
     1 IBK         1 TEMP              0 ****  ****    0 ROOT
