@<TRIPOS>MOLECULE
IBK
   38    34     1     0     0
SMALL
bcc


@<TRIPOS>ATOM
      1 CAA        -4.8590    3.6200    1.5480 c3        1 IBK     -0.092100
      2 CAB        -4.6930    3.3100    4.0120 c3        1 IBK     -0.092100
      3 OAC        -2.1650   -0.1130    0.9970 o         1 IBK     -0.610100
      4 CAD         5.7030   -4.3590   -5.1280 cg        1 IBK     -0.132500
      5 CAE         5.6940   -5.1890   -3.9690 c1        1 IBK     -0.167900
      6 CAF         4.6940   -3.1820   -4.9000 cg        1 IBK     -0.132500
      7 CAG         3.2400   -1.8380   -1.6360 cg        1 IBK     -0.262200
      8 CAH        -3.4540    1.7960    2.5120 c3        1 IBK      0.086000
      9 CAI         0.0830    0.7120    1.1870 c3        1 IBK      0.051400
     10 CAJ         1.7970   -0.4930   -0.0140 c3        1 IBK      0.114100
     11 NAK         1.0400   -2.0750   -1.8490 n2        1 IBK     -0.377200
     12 NAL        -2.0380    1.8100    2.1820 n         1 IBK     -0.555900
     13 OAM         0.3970   -0.2800    0.1680 os        1 IBK     -0.403600
     14 OAN         1.6580   -2.8550   -2.8140 os        1 IBK      0.016900
     15 SAO         4.6840   -4.5840   -2.9540 ss        1 IBK      0.152800
     16 CAP        -1.4710    0.7540    1.4280 c         1 IBK      0.617100
     17 CAQ         2.0140   -1.4520   -1.1270 ce        1 IBK      0.279200
     18 CAR         3.0120   -2.7040   -2.6780 c1        1 IBK      0.086600
     19 CAS         4.0950   -3.3410   -3.5850 c1        1 IBK     -0.167900
     20 CAT        -3.9320    3.2170    2.7140 c3        1 IBK     -0.093700
     21 HAA        -4.3320    3.6160    0.6770 hc        1 IBK      0.036200
     22 HAAA       -5.2250    4.5350    1.7110 hc        1 IBK      0.036200
     23 HAAB       -5.6040    2.9740    1.4840 hc        1 IBK      0.036200
     24 HAB        -4.0780    3.0520    4.7880 hc        1 IBK      0.036200
     25 HABA       -5.0200    4.2530    4.1430 hc        1 IBK      0.036200
     26 HABB       -5.4710    2.6890    3.9850 hc        1 IBK      0.036200
     27 HAD         6.2560   -4.5020   -5.9420 DU        1 IBK      0.171250
     28 HAE         6.2320   -6.0000   -3.8360 DU        1 IBK      0.171250
     29 HAF         4.5050   -2.4810   -5.5190 DU        1 IBK      0.171250
     30 HAG         4.1180   -1.5440   -1.3110 DU        1 IBK      0.171250
     31 HAH        -3.5930    1.2860    3.3320 h1        1 IBK      0.062200
     32 HAHA       -3.9520    1.3890    1.7930 h1        1 IBK      0.062200
     33 HAI         0.4010    1.6250    0.8790 h1        1 IBK      0.085200
     34 HAIA        0.5300    0.4760    2.0150 h1        1 IBK      0.085200
     35 HAJ         2.2600    0.4110   -0.2400 h1        1 IBK      0.055200
     36 HAJA        2.1760   -0.8550    0.8000 h1        1 IBK      0.055200
     37 HNAL       -1.5440    2.5020    2.4050 hn        1 IBK      0.318500
     38 HAT        -3.1580    3.8200    2.7430 hc        1 IBK      0.057700
@<TRIPOS>BOND
     1    1   20 1   
     2    1   21 1   
     3    1   22 1   
     4    1   23 1   
     5    2   20 1   
     6    2   24 1   
     7    2   25 1   
     8    2   26 1   
     9    3   16 2   
    10    4    5 3   
    11    4    6 1   
    12    5   15 1   
    13    6   19 3   
    14    7   17 1   
    15    7   18 3   
    16    8   12 1   
    17    8   20 1   
    18    8   31 1   
    19    8   32 1   
    20    9   13 1   
    21    9   16 1   
    22    9   33 1   
    23    9   34 1   
    24   10   13 1   
    25   10   17 1   
    26   10   35 1   
    27   10   36 1   
    28   11   14 1   
    29   11   17 2   
    30   12   16 1   
    31   12   37 1   
    32   14   18 1   
    33   15   19 1   
    34   20   38 1   
@<TRIPOS>SUBSTRUCTURE
     1 IBK         1 TEMP              0 ****  ****    0 ROOT
