@<TRIPOS>MOLECULE
IBM
   30    31     1     0     0
SMALL
bcc


@<TRIPOS>ATOM
      1 N9         -0.1860    0.0880    0.0330 na        1 IBM     -0.333900
      2 C8          1.2280    0.1220   -0.0300 cc        1 IBM      0.386400
      3 N7          1.8060    0.0710    1.1830 nd        1 IBM     -0.569000
      4 C5          0.7490    0.0020    2.0920 cd        1 IBM      0.188800
      5 C4         -0.5000    0.0090    1.3910 cc        1 IBM     -0.009000
      6 N3         -1.7290   -0.0910    2.0240 n         1 IBM     -0.343000
      7 C2         -1.7200   -0.1010    3.4510 c         1 IBM      0.818500
      8 N1         -0.5010   -0.1230    4.1610 n         1 IBM     -0.495400
      9 C6          0.7800   -0.0690    3.5470 c         1 IBM      0.658000
     10 O6          1.8020   -0.0810    4.2470 o         1 IBM     -0.581500
     11 O2         -2.8120   -0.1230    4.0590 o         1 IBM     -0.636500
     12 C10        -0.6070   -0.1870    5.6010 c3        1 IBM      0.079300
     13 C11        -2.9710    0.0500    1.2990 c3        1 IBM      0.091000
     14 C12        -3.2940    1.4690    0.8010 c3        1 IBM     -0.091700
     15 C13        -4.3760    1.3790   -0.2550 c3        1 IBM     -0.093100
     16 C14        -3.7390    2.3540    1.9440 c3        1 IBM     -0.093100
     17 HN9        -0.8220    0.1190   -0.7190 hn        1 IBM      0.312700
     18 H8          1.7540    0.1830   -0.9890 h5        1 IBM      0.072100
     19 H101        0.4180   -0.2940    6.0460 h1        1 IBM      0.062700
     20 H102       -1.2420   -1.0650    5.8930 h1        1 IBM      0.062700
     21 H103       -1.0910    0.7500    5.9860 h1        1 IBM      0.062700
     22 H111       -2.9240   -0.6480    0.4130 h1        1 IBM      0.075200
     23 H112       -3.8060   -0.2930    1.9770 h1        1 IBM      0.075200
     24 H12        -2.3750    1.9210    0.3320 hc        1 IBM      0.046700
     25 H131       -4.0240    0.7890   -1.1350 hc        1 IBM      0.041700
     26 H132       -5.2900    0.8880    0.1590 hc        1 IBM      0.041700
     27 H133       -4.6540    2.4040   -0.6030 hc        1 IBM      0.041700
     28 H141       -2.9760    2.3590    2.7590 hc        1 IBM      0.041700
     29 H142       -4.7020    1.9860    2.3730 hc        1 IBM      0.041700
     30 H143       -3.8870    3.4010    1.5850 hc        1 IBM      0.041700
@<TRIPOS>BOND
     1    1    2 1   
     2    1    5 1   
     3    1   17 1   
     4    2    3 2   
     5    2   18 1   
     6    3    4 1   
     7    4    5 2   
     8    4    9 1   
     9    5    6 1   
    10    6    7 1   
    11    6   13 1   
    12    7    8 1   
    13    7   11 2   
    14    8    9 1   
    15    8   12 1   
    16    9   10 2   
    17   12   19 1   
    18   12   20 1   
    19   12   21 1   
    20   13   14 1   
    21   13   22 1   
    22   13   23 1   
    23   14   15 1   
    24   14   16 1   
    25   14   24 1   
    26   15   25 1   
    27   15   26 1   
    28   15   27 1   
    29   16   28 1   
    30   16   29 1   
    31   16   30 1   
@<TRIPOS>SUBSTRUCTURE
     1 IBM         1 TEMP              0 ****  ****    0 ROOT
