@<TRIPOS>MOLECULE
IBM
   30    26     1     0     0
SMALL
bcc


@<TRIPOS>ATOM
      1 N9          1.7220   -0.4110   -1.7170 n1        1 IBM     -0.220000
      2 C8          3.0760   -0.3980   -1.7200 c1        1 IBM      0.118400
      3 N7          3.4990   -0.4640   -0.4340 ne        1 IBM     -0.315400
      4 C5          2.4020   -0.5180    0.3690 cg        1 IBM     -0.177000
      5 C4          1.3040   -0.4850   -0.4210 c1        1 IBM      0.308400
      6 N3          0.0590   -0.4810    0.1410 n2        1 IBM     -0.591600
      7 C2         -0.0770   -0.5100    1.5020 c1        1 IBM      0.862900
      8 N1          1.0370   -0.5440    2.3030 n2        1 IBM     -0.669600
      9 C6          2.2620   -0.5480    1.7510 c1        1 IBM      0.659900
     10 O6          3.2490   -0.5770    2.4620 o         1 IBM     -0.560900
     11 O2         -1.1810   -0.5060    2.0010 o         1 IBM     -0.594500
     12 C10         0.8950   -0.5270    3.7270 c3        1 IBM      0.167100
     13 C11        -1.1140   -0.5690   -0.7030 c3        1 IBM      0.178800
     14 C12        -1.5420    0.8420   -1.1370 c3        1 IBM     -0.091700
     15 C13        -2.8180    1.2310   -0.4100 c3        1 IBM     -0.093100
     16 C14        -1.7900    0.8590   -2.6420 c3        1 IBM     -0.093100
     17 HN9         1.1880   -0.3760   -2.4470 DU        1 IBM      0.236000
     18 H8          3.6450   -0.3460   -2.5070 DU        1 IBM      0.236000
     19 H101        1.7340   -0.2210    4.1370 h1        1 IBM      0.062700
     20 H102        0.6860   -1.4320    4.0450 h1        1 IBM      0.062700
     21 H103        0.1670    0.0830    3.9760 h1        1 IBM      0.062700
     22 H111       -0.9050   -1.1070   -1.4990 h1        1 IBM      0.075200
     23 H112       -1.8430   -0.9920   -0.2050 h1        1 IBM      0.075200
     24 H12        -0.8380    1.4760   -0.9180 hc        1 IBM      0.046700
     25 H131       -3.0570    2.1520   -0.6400 hc        1 IBM      0.041700
     26 H132       -2.6770    1.1620    0.5560 hc        1 IBM      0.041700
     27 H133       -3.5470    0.6250   -0.6790 hc        1 IBM      0.041700
     28 H141       -1.9900    1.7740   -2.9300 hc        1 IBM      0.041700
     29 H142       -2.5540    0.2730   -2.8550 hc        1 IBM      0.041700
     30 H143       -0.9920    0.5360   -3.1080 hc        1 IBM      0.041700
@<TRIPOS>BOND
     1    1    2 2   
     2    1    5 2   
     3    2    3 2   
     4    3    4 1   
     5    4    9 3   
     6    5    6 2   
     7    6   13 1   
     8    7    8 2   
     9    7   11 2   
    10    8   12 1   
    11    9   10 1   
    12   12   19 1   
    13   12   20 1   
    14   12   21 1   
    15   13   14 1   
    16   13   22 1   
    17   13   23 1   
    18   14   15 1   
    19   14   16 1   
    20   14   24 1   
    21   15   25 1   
    22   15   26 1   
    23   15   27 1   
    24   16   28 1   
    25   16   29 1   
    26   16   30 1   
@<TRIPOS>SUBSTRUCTURE
     1 IBM         1 TEMP              0 ****  ****    0 ROOT
