@<TRIPOS>MOLECULE
IBM
   30    31     1     0     0
SMALL
bcc


@<TRIPOS>ATOM
      1 N9         -0.1840    0.1020    0.0310 na        1 IBM     -0.333900
      2 C8          1.2300    0.1450   -0.0330 cc        1 IBM      0.386400
      3 N7          1.8090    0.0960    1.1790 nd        1 IBM     -0.569000
      4 C5          0.7530    0.0180    2.0900 cd        1 IBM      0.188800
      5 C4         -0.4970    0.0180    1.3890 cc        1 IBM     -0.009000
      6 N3         -1.7250   -0.0910    2.0220 n         1 IBM     -0.343000
      7 C2         -1.7150   -0.1040    3.4500 c         1 IBM      0.818500
      8 N1         -0.4950   -0.1200    4.1590 n         1 IBM     -0.495400
      9 C6          0.7850   -0.0560    3.5440 c         1 IBM      0.658000
     10 O6          1.8070   -0.0620    4.2440 o         1 IBM     -0.581500
     11 O2         -2.8070   -0.1340    4.0590 o         1 IBM     -0.636500
     12 C10        -0.5990   -0.1870    5.5980 c3        1 IBM      0.079300
     13 C11        -2.9680    0.0430    1.2990 c3        1 IBM      0.091000
     14 C12        -3.3000    1.4610    0.8030 c3        1 IBM     -0.091700
     15 C13        -4.3840    1.3660   -0.2510 c3        1 IBM     -0.093100
     16 C14        -3.7500    2.3420    1.9480 c3        1 IBM     -0.093100
     17 HN9        -0.8200    0.1300   -0.7200 hn        1 IBM      0.312700
     18 H8          1.7540    0.2110   -0.9920 h5        1 IBM      0.072100
     19 H101        0.4260   -0.2910    6.0430 h1        1 IBM      0.062700
     20 H102       -1.2320   -1.0680    5.8890 h1        1 IBM      0.062700
     21 H103       -1.0870    0.7470    5.9860 h1        1 IBM      0.062700
     22 H111       -2.9170   -0.6520    0.4120 h1        1 IBM      0.075200
     23 H112       -3.8000   -0.3070    1.9770 h1        1 IBM      0.075200
     24 H12        -2.3850    1.9200    0.3340 hc        1 IBM      0.046700
     25 H131       -4.0290    0.7790   -1.1320 hc        1 IBM      0.041700
     26 H132       -5.2940    0.8690    0.1640 hc        1 IBM      0.041700
     27 H133       -4.6680    2.3890   -0.5980 hc        1 IBM      0.041700
     28 H141       -2.9850    2.3500    2.7620 hc        1 IBM      0.041700
     29 H142       -4.7100    1.9660    2.3780 hc        1 IBM      0.041700
     30 H143       -3.9050    3.3880    1.5910 hc        1 IBM      0.041700
@<TRIPOS>BOND
     1    1    2 1   
     2    1    5 1   
     3    1   17 1   
     4    2    3 2   
     5    2   18 1   
     6    3    4 1   
     7    4    5 2   
     8    4    9 1   
     9    5    6 1   
    10    6    7 1   
    11    6   13 1   
    12    7    8 1   
    13    7   11 2   
    14    8    9 1   
    15    8   12 1   
    16    9   10 2   
    17   12   19 1   
    18   12   20 1   
    19   12   21 1   
    20   13   14 1   
    21   13   22 1   
    22   13   23 1   
    23   14   15 1   
    24   14   16 1   
    25   14   24 1   
    26   15   25 1   
    27   15   26 1   
    28   15   27 1   
    29   16   28 1   
    30   16   29 1   
    31   16   30 1   
@<TRIPOS>SUBSTRUCTURE
     1 IBM         1 TEMP              0 ****  ****    0 ROOT
