@<TRIPOS>MOLECULE
IBM
   30    31     1     0     0
SMALL
bcc


@<TRIPOS>ATOM
      1 N9         -2.3490   -0.1890    0.0050 na        1 IBM     -0.333900
      2 C8         -2.9660    0.1690   -1.2180 cc        1 IBM      0.386400
      3 N7         -2.0830    0.3470   -2.2160 nd        1 IBM     -0.569000
      4 C5         -0.8310    0.1020   -1.6480 cd        1 IBM      0.188800
      5 C4         -0.9800   -0.2360   -0.2630 cc        1 IBM     -0.009000
      6 N3          0.0850   -0.5720    0.5570 n         1 IBM     -0.343000
      7 C2          1.3920   -0.4700   -0.0090 c         1 IBM      0.818500
      8 N1          1.5600   -0.1530   -1.3740 n         1 IBM     -0.495400
      9 C6          0.4900    0.1520   -2.2590 c         1 IBM      0.658000
     10 O6          0.7290    0.4320   -3.4420 o         1 IBM     -0.581500
     11 O2          2.3820   -0.7000    0.7190 o         1 IBM     -0.636500
     12 C10         2.9220   -0.1300   -1.8560 c3        1 IBM      0.079300
     13 C11        -0.0850   -0.7800    1.9760 c3        1 IBM      0.091000
     14 C12        -0.3820    0.4820    2.8040 c3        1 IBM     -0.091700
     15 C13        -0.9240    0.0620    4.1540 c3        1 IBM     -0.093100
     16 C14         0.8650    1.3240    2.9710 c3        1 IBM     -0.093100
     17 HN9        -2.7870   -0.3650    0.8700 hn        1 IBM      0.312700
     18 H8         -4.0530    0.2780   -1.2960 h5        1 IBM      0.072100
     19 H101        2.9230    0.0400   -2.9650 h1        1 IBM      0.062700
     20 H102        3.4890    0.6940   -1.3460 h1        1 IBM      0.062700
     21 H103        3.4210   -1.1070   -1.6200 h1        1 IBM      0.062700
     22 H111        0.8610   -1.2560    2.3700 h1        1 IBM      0.075200
     23 H112       -0.9320   -1.5130    2.1090 h1        1 IBM      0.075200
     24 H12        -1.1650    1.1000    2.2810 hc        1 IBM      0.046700
     25 H131       -1.1100    0.9640    4.7870 hc        1 IBM      0.041700
     26 H132       -1.8850   -0.4950    4.0400 hc        1 IBM      0.041700
     27 H133       -0.1930   -0.5950    4.6840 hc        1 IBM      0.041700
     28 H141        1.6320    0.7740    3.5690 hc        1 IBM      0.041700
     29 H142        1.3110    1.5680    1.9760 hc        1 IBM      0.041700
     30 H143        0.6190    2.2770    3.4980 hc        1 IBM      0.041700
@<TRIPOS>BOND
     1    1    2 1   
     2    1    5 1   
     3    1   17 1   
     4    2    3 2   
     5    2   18 1   
     6    3    4 1   
     7    4    5 2   
     8    4    9 1   
     9    5    6 1   
    10    6    7 1   
    11    6   13 1   
    12    7    8 1   
    13    7   11 2   
    14    8    9 1   
    15    8   12 1   
    16    9   10 2   
    17   12   19 1   
    18   12   20 1   
    19   12   21 1   
    20   13   14 1   
    21   13   22 1   
    22   13   23 1   
    23   14   15 1   
    24   14   16 1   
    25   14   24 1   
    26   15   25 1   
    27   15   26 1   
    28   15   27 1   
    29   16   28 1   
    30   16   29 1   
    31   16   30 1   
@<TRIPOS>SUBSTRUCTURE
     1 IBM         1 TEMP              0 ****  ****    0 ROOT
