@<TRIPOS>MOLECULE
IBN
   17    16     1     0     0
SMALL
bcc


@<TRIPOS>ATOM
      1 C4          0.0040   -0.0410    0.0130 c3        1 IBN     -0.112100
      2 C2          1.5200    0.0130    0.0430 c3        1 IBN     -0.086700
      3 C3          2.0290   -0.0040    1.4670 c3        1 IBN     -0.112100
      4 C1          2.0450   -1.1830   -0.7580 c3        1 IBN      0.096800
      5 N           3.5340   -1.2040   -0.8620 n4        1 IBN     -0.837600
      6 H41        -0.3730   -0.0340   -1.0380 hc        1 IBN      0.061200
      7 H42        -0.4110    0.8530    0.5420 hc        1 IBN      0.061200
      8 H43        -0.3710   -0.9590    0.5270 hc        1 IBN      0.061200
      9 H2          1.8510    0.9680   -0.4560 hc        1 IBN      0.073700
     10 H31         1.4920    0.7740    2.0670 hc        1 IBN      0.061200
     11 H32         1.8440   -0.9950    1.9490 hc        1 IBN      0.061200
     12 H33         3.1200    0.2290    1.5180 hc        1 IBN      0.061200
     13 H11         1.6280   -1.1530   -1.8060 hx        1 IBN      0.113200
     14 H12         1.7220   -2.1450   -0.2630 hx        1 IBN      0.113200
     15 HN1         3.8400   -2.0220   -1.3970 hn        1 IBN      0.461800
     16 HN2         3.8670   -0.3540   -1.3270 hn        1 IBN      0.461800
     17 HN3         3.9450   -1.2430    0.0780 hn        1 IBN      0.461800
@<TRIPOS>BOND
     1    1    2 1   
     2    1    6 1   
     3    1    7 1   
     4    1    8 1   
     5    2    3 1   
     6    2    4 1   
     7    2    9 1   
     8    3   10 1   
     9    3   11 1   
    10    3   12 1   
    11    4    5 1   
    12    4   13 1   
    13    4   14 1   
    14    5   15 1   
    15    5   16 1   
    16    5   17 1   
@<TRIPOS>SUBSTRUCTURE
     1 IBN         1 TEMP              0 ****  ****    0 ROOT
