@<TRIPOS>MOLECULE
IBN
   17    16     1     0     0
SMALL
bcc


@<TRIPOS>ATOM
      1 C4          0.0000   -0.0570    0.0290 c3        1 IBN     -0.112100
      2 C2          1.5150    0.0100    0.0540 c3        1 IBN     -0.086700
      3 C3          2.0300   -0.0300    1.4760 c3        1 IBN     -0.112100
      4 C1          2.0480   -1.1660   -0.7720 c3        1 IBN      0.096800
      5 N           3.5370   -1.1730   -0.8810 nz        1 IBN     -0.837600
      6 H41        -0.3820   -0.0330   -1.0210 hc        1 IBN      0.061200
      7 H42        -0.4200    0.8230    0.5760 hc        1 IBN      0.061200
      8 H43        -0.3650   -0.9880    0.5260 hc        1 IBN      0.061200
      9 H2          1.8360    0.9770   -0.4280 hc        1 IBN      0.073700
     10 H31         1.4880    0.7310    2.0920 hc        1 IBN      0.061200
     11 H32         1.8560   -1.0320    1.9390 hc        1 IBN      0.061200
     12 H33         3.1190    0.2120    1.5260 hc        1 IBN      0.061200
     13 H11         1.6270   -1.1200   -1.8180 hx        1 IBN      0.113200
     14 H12         1.7360   -2.1400   -0.2940 hx        1 IBN      0.113200
     15 HN1         3.8470   -1.9780   -1.4330 hn        1 IBN      0.461800
     16 HN2         3.8600   -0.3110   -1.3310 hn        1 IBN      0.461800
     17 HN3         3.9520   -1.2260    0.0570 hn        1 IBN      0.461800
@<TRIPOS>BOND
     1    1    2 1   
     2    1    6 1   
     3    1    7 1   
     4    1    8 1   
     5    2    3 1   
     6    2    4 1   
     7    2    9 1   
     8    3   10 1   
     9    3   11 1   
    10    3   12 1   
    11    4    5 1   
    12    4   13 1   
    13    4   14 1   
    14    5   15 1   
    15    5   16 1   
    16    5   17 1   
@<TRIPOS>SUBSTRUCTURE
     1 IBN         1 TEMP              0 ****  ****    0 ROOT
