@<TRIPOS>MOLECULE
IBN
   17    16     1     0     0
SMALL
bcc


@<TRIPOS>ATOM
      1 C4          0.0020   -0.0480    0.0300 c3        1 IBN     -0.112100
      2 C2          1.5180    0.0120    0.0520 c3        1 IBN     -0.086700
      3 C3          2.0360   -0.0230    1.4730 c3        1 IBN     -0.112100
      4 C1          2.0430   -1.1720   -0.7680 c3        1 IBN      0.096800
      5 N           3.5310   -1.1870   -0.8800 n4        1 IBN     -0.837600
      6 H41        -0.3810   -0.0290   -1.0190 hc        1 IBN      0.061200
      7 H42        -0.4130    0.8370    0.5730 hc        1 IBN      0.061200
      8 H43        -0.3670   -0.9740    0.5340 hc        1 IBN      0.061200
      9 H2          1.8430    0.9750   -0.4370 hc        1 IBN      0.073700
     10 H31         1.4990    0.7450    2.0860 hc        1 IBN      0.061200
     11 H32         1.8580   -1.0210    1.9420 hc        1 IBN      0.061200
     12 H33         3.1260    0.2150    1.5190 hc        1 IBN      0.061200
     13 H11         1.7260   -2.1410   -0.2850 hx        1 IBN      0.113200
     14 H12         1.6210   -1.1290   -1.8140 hx        1 IBN      0.113200
     15 HN1         3.8370   -1.9960   -1.4290 hn        1 IBN      0.461800
     16 HN2         3.8590   -0.3290   -1.3360 hn        1 IBN      0.461800
     17 HN3         3.9480   -1.2360    0.0570 hn        1 IBN      0.461800
@<TRIPOS>BOND
     1    1    2 1   
     2    1    6 1   
     3    1    7 1   
     4    1    8 1   
     5    2    3 1   
     6    2    4 1   
     7    2    9 1   
     8    3   10 1   
     9    3   11 1   
    10    3   12 1   
    11    4    5 1   
    12    4   13 1   
    13    4   14 1   
    14    5   15 1   
    15    5   16 1   
    16    5   17 1   
@<TRIPOS>SUBSTRUCTURE
     1 IBN         1 TEMP              0 ****  ****    0 ROOT
