@<TRIPOS>MOLECULE
IBN
   16    15     1     0     0
SMALL
bcc


@<TRIPOS>ATOM
      1 C4          1.7220   -0.7590    0.0040 c3        1 IBN     -0.092100
      2 C2          0.4790    0.0380    0.3400 c3        1 IBN     -0.072700
      3 C3          0.6170    1.4630   -0.1510 c3        1 IBN     -0.092100
      4 C1         -0.7410   -0.6530   -0.2860 c3        1 IBN      0.161800
      5 N          -2.0070   -0.1330    0.1710 n3        1 IBN     -0.915800
      6 H41         2.6220   -0.2810    0.4620 hc        1 IBN      0.034033
      7 H42         1.6370   -1.8010    0.3970 hc        1 IBN      0.034033
      8 H43         1.8730   -0.8090   -1.1010 hc        1 IBN      0.034033
      9 H2          0.3540    0.0520    1.4590 hc        1 IBN      0.063700
     10 H31         0.6310    1.4970   -1.2670 hc        1 IBN      0.034033
     11 H32        -0.2280    2.0950    0.2140 hc        1 IBN      0.034033
     12 H33         1.5700    1.9080    0.2260 hc        1 IBN      0.034033
     13 H11        -0.6290   -0.5970   -1.4110 h1        1 IBN      0.024200
     14 H12        -0.7130   -1.7450   -0.0060 h1        1 IBN      0.024200
     15 HN1        -2.0420    0.8630    0.0840 hn        1 IBN      0.347300
     16 HN2        -2.7570   -0.5340   -0.3570 hn        1 IBN      0.347300
@<TRIPOS>BOND
     1    1    2 1   
     2    1    6 1   
     3    1    7 1   
     4    1    8 1   
     5    2    3 1   
     6    2    4 1   
     7    2    9 1   
     8    3   10 1   
     9    3   11 1   
    10    3   12 1   
    11    4    5 1   
    12    4   13 1   
    13    4   14 1   
    14    5   15 1   
    15    5   16 1   
@<TRIPOS>SUBSTRUCTURE
     1 IBN         1 TEMP              0 ****  ****    0 ROOT
