@<TRIPOS>MOLECULE
IBO
   15    14     1     0     0
SMALL
bcc


@<TRIPOS>ATOM
      1 CA         -1.0430    0.8930    1.7660 c3        1 IBO     -0.131700
      2 C          -2.4090    0.3040    1.4260 c         1 IBO      0.656100
      3 NA         -2.8840    0.4850    0.1490 n         1 IBO     -0.680000
      4 O2         -3.0990   -0.3170    2.2590 o         1 IBO     -0.611100
      5 CB1        -0.8290    0.8670    3.2650 c3        1 IBO     -0.088100
      6 CB2         0.0480    0.1230    1.0520 c3        1 IBO     -0.088100
      7 HAN1       -2.3380    0.9320   -0.5390 hn        1 IBO      0.309000
      8 HAN2       -3.7560    0.0960   -0.1090 hn        1 IBO      0.309000
      9 HA         -1.0220    1.9660    1.4200 hc        1 IBO      0.060700
     10 HB21        1.0480    0.5290    1.3400 hc        1 IBO      0.044033
     11 HB22       -0.0620    0.2080   -0.0560 hc        1 IBO      0.044033
     12 HB23        0.0120   -0.9580    1.3320 hc        1 IBO      0.044033
     13 HB11       -1.6320    1.4490    3.7790 hc        1 IBO      0.044033
     14 HB12       -0.8670   -0.1830    3.6430 hc        1 IBO      0.044033
     15 HB13        0.1630    1.3110    3.5170 hc        1 IBO      0.044033
@<TRIPOS>BOND
     1    1    2 1   
     2    1    5 1   
     3    1    6 1   
     4    1    9 1   
     5    2    3 1   
     6    2    4 2   
     7    3    7 1   
     8    3    8 1   
     9    5   13 1   
    10    5   14 1   
    11    5   15 1   
    12    6   10 1   
    13    6   11 1   
    14    6   12 1   
@<TRIPOS>SUBSTRUCTURE
     1 IBO         1 TEMP              0 ****  ****    0 ROOT
