@<TRIPOS>MOLECULE
IBO
   16    15     1     0     0
SMALL
bcc


@<TRIPOS>ATOM
      1 CA         -0.1530    0.3670   -0.1010 c3        1 IBO     -0.124700
      2 C           1.2570    0.7130    0.3150 c         1 IBO      0.546100
      3 NA          2.2020   -0.4680    0.4850 nz        1 IBO     -0.768400
      4 O2          1.7580    1.7990    0.5370 o         1 IBO     -0.380100
      5 CB1        -0.1650   -0.2880   -1.4650 c3        1 IBO     -0.122100
      6 CB2        -0.8280   -0.4930    0.9460 c3        1 IBO     -0.122100
      7 HAN1        3.1360   -0.1460    0.7660 hn        1 IBO      0.469467
      8 HAN2        2.2720   -0.9780   -0.4010 hn        1 IBO      0.469467
      9 HA         -0.6950    1.3620   -0.1650 hc        1 IBO      0.138700
     10 HB21       -0.4190   -1.5320    0.9540 hc        1 IBO      0.070867
     11 HB22       -0.7280   -0.0460    1.9640 hc        1 IBO      0.070867
     12 HB23       -1.9210   -0.5610    0.7060 hc        1 IBO      0.070867
     13 HB11        0.4160    0.3110   -2.2080 hc        1 IBO      0.070867
     14 HB12       -1.2240   -0.3500   -1.8260 hc        1 IBO      0.070867
     15 HB13        0.2410   -1.3280   -1.4280 hc        1 IBO      0.070867
     16 HA3         1.8310   -1.1000    1.2010 hn        1 IBO      0.469467
@<TRIPOS>BOND
     1    1    2 1   
     2    1    5 1   
     3    1    6 1   
     4    1    9 1   
     5    2    3 1   
     6    2    4 2   
     7    3    7 1   
     8    3    8 1   
     9    3   16 1   
    10    5   13 1   
    11    5   14 1   
    12    5   15 1   
    13    6   10 1   
    14    6   11 1   
    15    6   12 1   
@<TRIPOS>SUBSTRUCTURE
     1 IBO         1 TEMP              0 ****  ****    0 ROOT
