@<TRIPOS>MOLECULE
IBO
   16    15     1     0     0
SMALL
bcc


@<TRIPOS>ATOM
      1 CA         -0.2040    0.3180    0.0590 c3        1 IBO     -0.124700
      2 C           1.1640    0.6460    0.6060 c         1 IBO      0.546100
      3 NA          2.2250   -0.4280    0.4150 n4        1 IBO     -0.768400
      4 O2          1.5520    1.6450    1.1800 o         1 IBO     -0.380100
      5 CB1        -0.1530    0.1290   -1.4420 c3        1 IBO     -0.122100
      6 CB2        -0.7890   -0.8890    0.7600 c3        1 IBO     -0.122100
      7 HAN1        3.1220   -0.1260    0.8140 hn        1 IBO      0.469467
      8 HAN2        2.3450   -0.6150   -0.5850 hn        1 IBO      0.469467
      9 HA         -0.8430    1.2250    0.2940 hc        1 IBO      0.138700
     10 HB21       -0.2760   -1.8330    0.4550 hc        1 IBO      0.070700
     11 HB22       -0.7340   -0.7790    1.8700 hc        1 IBO      0.070700
     12 HB23       -1.8690   -0.9830    0.4760 hc        1 IBO      0.070700
     13 HB11        0.3670    0.9840   -1.9400 hc        1 IBO      0.070700
     14 HB12       -1.2010    0.0870   -1.8370 hc        1 IBO      0.070700
     15 HB13        0.3530   -0.8260   -1.7220 hc        1 IBO      0.070700
     16 HA3         1.9220   -1.2910    0.8780 hn        1 IBO      0.469467
@<TRIPOS>BOND
     1    1    2 1   
     2    1    5 1   
     3    1    6 1   
     4    1    9 1   
     5    2    3 1   
     6    2    4 2   
     7    3    7 1   
     8    3    8 1   
     9    3   16 1   
    10    5   13 1   
    11    5   14 1   
    12    5   15 1   
    13    6   10 1   
    14    6   11 1   
    15    6   12 1   
@<TRIPOS>SUBSTRUCTURE
     1 IBO         1 TEMP              0 ****  ****    0 ROOT
