@<TRIPOS>MOLECULE
IBO
   16    15     1     0     0
SMALL
bcc


@<TRIPOS>ATOM
      1 CA         -0.1290    0.3930   -0.0920 c3        1 IBO     -0.124700
      2 C           1.3100    0.6770    0.2620 c         1 IBO      0.546100
      3 NA          2.2010   -0.5450    0.4290 n4        1 IBO     -0.768400
      4 O2          1.8730    1.7410    0.4350 o         1 IBO     -0.380100
      5 CB1        -0.2270   -0.2910   -1.4390 c3        1 IBO     -0.121600
      6 CB2        -0.8060   -0.4090    0.9990 c3        1 IBO     -0.121600
      7 HAN1        3.1600   -0.2650    0.6660 hn        1 IBO      0.469467
      8 HAN2        2.2110   -1.0820   -0.4440 hn        1 IBO      0.469467
      9 HA         -0.6240    1.4120   -0.1600 hc        1 IBO      0.138700
     10 HB21       -0.6430    0.0540    2.0020 hc        1 IBO      0.071033
     11 HB22       -0.4490   -1.4670    1.0160 hc        1 IBO      0.071033
     12 HB23       -1.9090   -0.4260    0.8030 hc        1 IBO      0.071033
     13 HB11       -1.3010   -0.3080   -1.7580 hc        1 IBO      0.071033
     14 HB12        0.1300   -1.3480   -1.3930 hc        1 IBO      0.071033
     15 HB13        0.3530    0.2630   -2.2170 hc        1 IBO      0.071033
     16 HA3         1.8270   -1.1390    1.1760 hn        1 IBO      0.469467
@<TRIPOS>BOND
     1    1    2 1   
     2    1    5 1   
     3    1    6 1   
     4    1    9 1   
     5    2    3 1   
     6    2    4 2   
     7    3    7 1   
     8    3    8 1   
     9    3   16 1   
    10    5   13 1   
    11    5   14 1   
    12    5   15 1   
    13    6   10 1   
    14    6   11 1   
    15    6   12 1   
@<TRIPOS>SUBSTRUCTURE
     1 IBO         1 TEMP              0 ****  ****    0 ROOT
