@<TRIPOS>MOLECULE
IBP
   32    32     1     0     0
SMALL
bcc


@<TRIPOS>ATOM
      1 C1         -0.1470   -0.1910    0.3380 c         1 IBP      0.922600
      2 C2          3.6000   -4.4340   -2.9580 c3        1 IBP     -0.019100
      3 C3          4.7480   -5.1320   -2.2340 c3        1 IBP     -0.067700
      4 C4          5.0410   -6.4690   -2.8810 c3        1 IBP     -0.088100
      5 C5          5.9900   -4.2660   -2.2260 c3        1 IBP     -0.088100
      6 C6          1.3900   -0.0460    0.1190 c3        1 IBP     -0.167400
      7 C7          2.0700    0.0420    1.4690 c3        1 IBP     -0.061100
      8 C8          1.9480   -1.1730   -0.6820 ca        1 IBP     -0.012300
      9 C9          2.8100   -0.9270   -1.7570 ca        1 IBP     -0.134000
     10 C10         3.3500   -1.9800   -2.4930 ca        1 IBP     -0.140000
     11 C11         3.0370   -3.3040   -2.1710 ca        1 IBP     -0.120300
     12 C12         2.1640   -3.5520   -1.1030 ca        1 IBP     -0.140000
     13 C13         1.6250   -2.5030   -0.3680 ca        1 IBP     -0.134000
     14 O1         -0.8860    0.6710   -0.2110 o         1 IBP     -0.837300
     15 O2         -0.5670   -1.1330    1.0680 o         1 IBP     -0.837300
     16 H21         2.7880   -5.1840   -3.1540 hc        1 IBP      0.035200
     17 H22         3.9650   -4.0680   -3.9540 hc        1 IBP      0.035200
     18 H31         4.4300   -5.3110   -1.1680 hc        1 IBP      0.055700
     19 H41         5.3060   -6.3350   -3.9580 hc        1 IBP      0.028367
     20 H42         4.1490   -7.1380   -2.8180 hc        1 IBP      0.028367
     21 H43         5.8970   -6.9700   -2.3670 hc        1 IBP      0.028367
     22 H51         6.3980   -4.1520   -3.2590 hc        1 IBP      0.028367
     23 H52         5.7410   -3.2500   -1.8300 hc        1 IBP      0.028367
     24 H53         6.7790   -4.7220   -1.5820 hc        1 IBP      0.028367
     25 H61         1.5550    0.9170   -0.4390 hc        1 IBP      0.044700
     26 H71         1.8250   -0.8650    2.0730 hc        1 IBP      0.020033
     27 H72         3.1790    0.1200    1.3600 hc        1 IBP      0.020033
     28 H73         1.6990    0.9410    2.0160 hc        1 IBP      0.020033
     29 H91         3.0580    0.1100   -2.0300 ha        1 IBP      0.152500
     30 H101        4.0250   -1.7690   -3.3350 ha        1 IBP      0.109000
     31 H121        1.9000   -4.5890   -0.8510 ha        1 IBP      0.109000
     32 H131        0.9070   -2.6820    0.4550 ha        1 IBP      0.152500
@<TRIPOS>BOND
     1    1    6 1   
     2    1   14 1   
     3    1   15 1   
     4    2    3 1   
     5    2   11 1   
     6    2   16 1   
     7    2   17 1   
     8    3    4 1   
     9    3    5 1   
    10    3   18 1   
    11    4   19 1   
    12    4   20 1   
    13    4   21 1   
    14    5   22 1   
    15    5   23 1   
    16    5   24 1   
    17    6    7 1   
    18    6    8 1   
    19    6   25 1   
    20    7   26 1   
    21    7   27 1   
    22    7   28 1   
    23    8    9 ar  
    24    8   13 ar  
    25    9   10 ar  
    26    9   29 1   
    27   10   11 ar  
    28   10   30 1   
    29   11   12 ar  
    30   12   13 ar  
    31   12   31 1   
    32   13   32 1   
@<TRIPOS>SUBSTRUCTURE
     1 IBP         1 TEMP              0 ****  ****    0 ROOT
