@<TRIPOS>MOLECULE
IBP
   32    32     1     0     0
SMALL
bcc


@<TRIPOS>ATOM
      1 C1         -0.5620    0.1800   -3.5210 c         1 IBP      0.922600
      2 C2         -0.6840   -0.6220    2.9790 c3        1 IBP     -0.019100
      3 C3         -0.0040    0.4140    3.8700 c3        1 IBP     -0.067700
      4 C4         -0.6650    0.4510    5.2320 c3        1 IBP     -0.088100
      5 C5          1.4750    0.1240    4.0070 c3        1 IBP     -0.088100
      6 C6          0.6970    0.0240   -2.6130 c3        1 IBP     -0.167400
      7 C7          1.5850    1.2350   -2.7970 c3        1 IBP     -0.061100
      8 C8          0.3320   -0.1520   -1.1790 ca        1 IBP     -0.012300
      9 C9          0.9210   -1.1640   -0.4110 ca        1 IBP     -0.134000
     10 C10         0.5980   -1.3160    0.9360 ca        1 IBP     -0.140000
     11 C11        -0.3250   -0.4600    1.5440 ca        1 IBP     -0.120300
     12 C12        -0.9250    0.5450    0.7750 ca        1 IBP     -0.140000
     13 C13        -0.6040    0.6980   -0.5690 ca        1 IBP     -0.134000
     14 O1         -0.7880   -0.7430   -4.3490 o         1 IBP     -0.837300
     15 O2         -1.2650    1.2240   -3.4020 o         1 IBP     -0.837300
     16 H21        -0.4050   -1.6490    3.3350 hc        1 IBP      0.035200
     17 H22        -1.7970   -0.5200    3.0920 hc        1 IBP      0.035200
     18 H31        -0.1270    1.4240    3.3840 hc        1 IBP      0.055700
     19 H41        -0.1530    1.1910    5.8920 hc        1 IBP      0.028367
     20 H42        -1.7390    0.7410    5.1380 hc        1 IBP      0.028367
     21 H43        -0.6130   -0.5520    5.7200 hc        1 IBP      0.028367
     22 H51         1.6390   -0.8210    4.5800 hc        1 IBP      0.028367
     23 H52         1.9340    0.0090    2.9950 hc        1 IBP      0.028367
     24 H53         1.9870    0.9560    4.5460 hc        1 IBP      0.028367
     25 H61         1.2460   -0.8920   -2.9670 hc        1 IBP      0.044700
     26 H71         1.0140    2.1620   -2.5490 hc        1 IBP      0.020033
     27 H72         2.4900    1.1770   -2.1440 hc        1 IBP      0.020033
     28 H73         1.9160    1.2990   -3.8610 hc        1 IBP      0.020033
     29 H91         1.6410   -1.8520   -0.8780 ha        1 IBP      0.152500
     30 H101        1.0690   -2.1160    1.5240 ha        1 IBP      0.109000
     31 H121       -1.6640    1.2140    1.2400 ha        1 IBP      0.109000
     32 H131       -1.0960    1.4640   -1.1980 ha        1 IBP      0.152500
@<TRIPOS>BOND
     1    1    6 1   
     2    1   14 1   
     3    1   15 1   
     4    2    3 1   
     5    2   11 1   
     6    2   16 1   
     7    2   17 1   
     8    3    4 1   
     9    3    5 1   
    10    3   18 1   
    11    4   19 1   
    12    4   20 1   
    13    4   21 1   
    14    5   22 1   
    15    5   23 1   
    16    5   24 1   
    17    6    7 1   
    18    6    8 1   
    19    6   25 1   
    20    7   26 1   
    21    7   27 1   
    22    7   28 1   
    23    8    9 ar  
    24    8   13 ar  
    25    9   10 ar  
    26    9   29 1   
    27   10   11 ar  
    28   10   30 1   
    29   11   12 ar  
    30   12   13 ar  
    31   12   31 1   
    32   13   32 1   
@<TRIPOS>SUBSTRUCTURE
     1 IBP         1 TEMP              0 ****  ****    0 ROOT
