@<TRIPOS>MOLECULE
IBP
   32    32     1     0     0
SMALL
bcc


@<TRIPOS>ATOM
      1 C1         -0.1650   -0.2070    0.3260 c         1 IBP      0.922600
      2 C2          3.6020   -4.4670   -2.9240 c3        1 IBP     -0.019100
      3 C3          4.7730   -5.1280   -2.2010 c3        1 IBP     -0.067700
      4 C4          5.0780   -6.4760   -2.8200 c3        1 IBP     -0.088100
      5 C5          5.9990   -4.2410   -2.2330 c3        1 IBP     -0.088100
      6 C6          1.3650   -0.0410    0.0770 c3        1 IBP     -0.167400
      7 C7          2.0660    0.0940    1.4120 c3        1 IBP     -0.061100
      8 C8          1.9300   -1.1780   -0.7040 ca        1 IBP     -0.012300
      9 C9          2.7690   -0.9450   -1.8000 ca        1 IBP     -0.134000
     10 C10         3.3160   -2.0070   -2.5180 ca        1 IBP     -0.140000
     11 C11         3.0320   -3.3270   -2.1560 ca        1 IBP     -0.120300
     12 C12         2.1820   -3.5630   -1.0680 ca        1 IBP     -0.140000
     13 C13         1.6360   -2.5050   -0.3510 ca        1 IBP     -0.134000
     14 O1         -0.9280    0.6280   -0.2320 o         1 IBP     -0.837300
     15 O2         -0.5560   -1.1370    1.0870 o         1 IBP     -0.837300
     16 H21         3.9450   -4.1200   -3.9350 hc        1 IBP      0.035200
     17 H22         2.8000   -5.2360   -3.0890 hc        1 IBP      0.035200
     18 H31         4.4730   -5.2850   -1.1260 hc        1 IBP      0.055700
     19 H41         5.9500   -6.9490   -2.3070 hc        1 IBP      0.028367
     20 H42         4.1990   -7.1570   -2.7260 hc        1 IBP      0.028367
     21 H43         5.3240   -6.3640   -3.9030 hc        1 IBP      0.028367
     22 H51         6.8060   -4.6680   -1.5910 hc        1 IBP      0.028367
     23 H52         6.3890   -4.1470   -3.2760 hc        1 IBP      0.028367
     24 H53         5.7390   -3.2200   -1.8590 hc        1 IBP      0.028367
     25 H61         1.5030    0.9100   -0.5080 hc        1 IBP      0.044700
     26 H71         3.1710    0.1890    1.2820 hc        1 IBP      0.020033
     27 H72         1.8480   -0.8010    2.0440 hc        1 IBP      0.020033
     28 H73         1.6890    1.0010    1.9430 hc        1 IBP      0.020033
     29 H91         2.9940    0.0880   -2.1030 ha        1 IBP      0.152500
     30 H101        3.9730   -1.8060   -3.3760 ha        1 IBP      0.109000
     31 H121        1.9400   -4.5980   -0.7850 ha        1 IBP      0.109000
     32 H131        0.9350   -2.6750    0.4880 ha        1 IBP      0.152500
@<TRIPOS>BOND
     1    1    6 1   
     2    1   14 1   
     3    1   15 1   
     4    2    3 1   
     5    2   11 1   
     6    2   16 1   
     7    2   17 1   
     8    3    4 1   
     9    3    5 1   
    10    3   18 1   
    11    4   19 1   
    12    4   20 1   
    13    4   21 1   
    14    5   22 1   
    15    5   23 1   
    16    5   24 1   
    17    6    7 1   
    18    6    8 1   
    19    6   25 1   
    20    7   26 1   
    21    7   27 1   
    22    7   28 1   
    23    8    9 ar  
    24    8   13 ar  
    25    9   10 ar  
    26    9   29 1   
    27   10   11 ar  
    28   10   30 1   
    29   11   12 ar  
    30   12   13 ar  
    31   12   31 1   
    32   13   32 1   
@<TRIPOS>SUBSTRUCTURE
     1 IBP         1 TEMP              0 ****  ****    0 ROOT
