@<TRIPOS>MOLECULE
IBR
   28    28     1     0     0
SMALL
bcc


@<TRIPOS>ATOM
      1 C'         -1.7550    0.6430    1.8530 c         1 IBR      0.563500
      2 O'         -2.8540    0.7390    2.4030 o         1 IBR     -0.526100
      3 C1'         0.7570    0.5860    1.9790 ca        1 IBR     -0.101300
      4 C2'        -0.4950    0.4350    2.5990 ca        1 IBR     -0.137600
      5 C3'        -0.5760    0.0580    3.9390 ca        1 IBR     -0.145000
      6 C4'         0.5900   -0.1900    4.6990 ca        1 IBR      0.146600
      7 C5'         1.8440   -0.0580    4.0570 ca        1 IBR     -0.171000
      8 C6'         1.9130    0.3300    2.7260 ca        1 IBR     -0.085000
      9 N           0.5090   -0.4770    6.0610 nh        1 IBR     -0.824200
     10 C1          0.8290   -0.0950   -0.4030 c         1 IBR      0.638100
     11 O11        -0.3980   -0.1980   -1.0030 os        1 IBR     -0.449900
     12 O12         1.7060   -0.8950   -0.7270 o         1 IBR     -0.530000
     13 C1E        -1.8920   -1.0100   -2.6490 c3        1 IBR     -0.023000
     14 C2E        -0.5540   -1.2370   -1.9850 c3        1 IBR      0.139400
     15 BR         -1.8710    0.2860   -4.0710 br        1 IBR     -0.158400
     16 H'         -1.6580    0.6900    0.7430 h4        1 IBR      0.021200
     17 H3'        -1.5750   -0.0320    4.3990 ha        1 IBR      0.156000
     18 H5'         2.7740   -0.2530    4.6120 ha        1 IBR      0.139000
     19 H6'         2.9000    0.4320    2.2470 ha        1 IBR      0.142000
     20 HN1         1.2960   -0.9530    6.4400 hn        1 IBR      0.398800
     21 HN2        -0.3680   -0.8350    6.3650 hn        1 IBR      0.398800
     22 H21         0.1170    1.8070    0.3160 hc        1 IBR      0.087200
     23 H22         1.9090    1.5320    0.4280 hc        1 IBR      0.087200
     24 HE11       -2.2410   -1.9670   -3.1020 h1        1 IBR      0.088200
     25 HE12       -2.6410   -0.6520   -1.9030 h1        1 IBR      0.088200
     26 HE21        0.3050   -1.2040   -2.7050 h1        1 IBR      0.068700
     27 HE22       -0.5450   -2.2240   -1.4480 h1        1 IBR      0.068700
     28 C2          0.9040    1.0460    0.5710 c3        1 IBR     -0.078100
@<TRIPOS>BOND
     1    1    2 2   
     2    1    4 1   
     3    1   16 1   
     4    3    4 ar  
     5    3    8 ar  
     6    3   28 1   
     7    4    5 ar  
     8    5    6 ar  
     9    5   17 1   
    10    6    7 ar  
    11    6    9 1   
    12    7    8 ar  
    13    7   18 1   
    14    8   19 1   
    15    9   20 1   
    16    9   21 1   
    17   10   11 1   
    18   10   12 2   
    19   10   28 1   
    20   11   14 1   
    21   13   14 1   
    22   13   15 1   
    23   13   24 1   
    24   13   25 1   
    25   14   26 1   
    26   14   27 1   
    27   22   28 1   
    28   23   28 1   
@<TRIPOS>SUBSTRUCTURE
     1 IBR         1 TEMP              0 ****  ****    0 ROOT
