@<TRIPOS>MOLECULE
IBR
   29    27     1     0     0
SMALL
bcc


@<TRIPOS>ATOM
      1 C'         -0.0210    0.0600    0.0380 c2        1 IBR      0.204000
      2 O'          1.1720   -0.2250    0.0500 o         1 IBR     -0.218000
      3 C1'        -2.1950   -0.1990    1.2450 c2        1 IBR      0.369000
      4 C2'        -0.8210    0.0650    1.3110 c2        1 IBR     -0.312000
      5 C3'        -0.0980    0.3370    2.4670 c2        1 IBR      0.194000
      6 C4'        -0.6460    0.4570    3.8410 c3        1 IBR     -0.091000
      7 C5'        -3.8120   -0.2220    3.2780 c1        1 IBR      0.068000
      8 C6'        -3.0220   -0.2100    2.3660 c1        1 IBR     -0.286000
      9 N           0.3530    0.8260    4.7990 n3        1 IBR     -0.382000
     10 C1         -3.2960    0.7400   -0.7670 c2        1 IBR      0.318000
     11 O11        -2.5340    0.9490   -1.8930 os        1 IBR     -0.262000
     12 O12        -4.2240    1.4730   -0.4570 o         1 IBR     -0.259000
     13 C1E        -5.0930    3.7170   -2.6880 c3        1 IBR     -0.233000
     14 C2E        -2.6300    2.1760   -2.5100 c1        1 IBR     -0.100000
     15 BR         -4.3910    2.3400   -3.8650 br        1 IBR      0.092000
     16 H'         -0.5740    0.3530   -0.8820 h4        1 IBR      0.157000
     17 H3'         1.0060    0.4790    2.3470 ha        1 IBR      0.212000
     18 H5'        -1.1610   -0.5320    4.0780 h1        1 IBR      0.133000
     19 H6'        -4.5130   -0.2330    4.0870 ha        1 IBR      0.272000
     20 HN1         0.8140    0.0450    5.2150 hn        1 IBR      0.197500
     21 HN2         0.0220    1.4720    5.4810 hn        1 IBR      0.197500
     22 H21        -3.7970   -1.1340    0.1320 hc        1 IBR      0.171500
     23 H22        -2.1860   -1.1240   -0.7150 hc        1 IBR      0.171500
     24 HE11       -4.8630    4.6980   -3.1480 h1        1 IBR      0.132333
     25 HE12       -6.1860    3.5510   -2.6040 h1        1 IBR      0.132333
     26 HE21       -4.5760    3.5910   -1.7100 h1        1 IBR      0.132333
     27 HE22       -1.8360    2.1390   -3.3000 ha        1 IBR      0.067000
     28 HN3        -1.4690    1.2410    3.8140 h1        1 IBR      0.133000
     29 C2         -2.8660   -0.5230   -0.0480 c3        1 IBR     -0.213000
@<TRIPOS>BOND
     1    1    2 1   
     2    1    4 1   
     3    1   16 1   
     4    3    4 1   
     5    3    8 1   
     6    3   29 1   
     7    4    5 1   
     8    5    6 1   
     9    5   17 1   
    10    6    9 1   
    11    6   18 1   
    12    6   28 1   
    13    7    8 1   
    14    7   19 1   
    15    9   20 1   
    16    9   21 1   
    17   10   11 1   
    18   10   12 1   
    19   10   29 1   
    20   11   14 1   
    21   13   15 1   
    22   13   24 1   
    23   13   25 1   
    24   13   26 1   
    25   14   27 1   
    26   22   29 1   
    27   23   29 1   
@<TRIPOS>SUBSTRUCTURE
     1 IBR         1 TEMP              0 ****  ****    0 ROOT
