@<TRIPOS>MOLECULE
IBR
   28    23     1     0     0
SMALL
bcc


@<TRIPOS>ATOM
      1 C'          2.7670   -0.9010   -1.0270 c1        1 IBR      0.210000
      2 O'          3.9760   -0.8100   -1.0570 o         1 IBR     -0.284000
      3 C1'         0.6400   -0.8060    0.3060 c1        1 IBR     -0.100000
      4 C2'         2.0330   -0.7580    0.2850 c1        1 IBR     -0.111000
      5 C3'         2.7420   -0.7350    1.4760 c1        1 IBR     -0.147000
      6 C4'         2.0590   -0.7610    2.7000 c1        1 IBR      0.067000
      7 C5'         0.6780   -0.8080    2.7160 c1        1 IBR     -0.174000
      8 C6'        -0.0350   -0.8320    1.5150 c1        1 IBR     -0.084000
      9 N           2.7650   -0.5820    3.9000 n3        1 IBR     -0.333000
     10 C1         -0.8010    0.4280   -1.2800 c1        1 IBR      0.310000
     11 C2         -0.1330   -0.8980   -0.9980 c2        1 IBR     -0.113000
     12 O11        -2.2200    0.4750   -1.5660 os        1 IBR     -0.276000
     13 O12        -0.1420    1.4170   -1.3780 o         1 IBR     -0.354000
     14 C1E        -4.1280    1.6520   -2.4630 c3        1 IBR     -0.227000
     15 C2E        -2.6400    1.6860   -2.2440 c3        1 IBR     -0.011000
     16 BR         -5.0100    2.1510   -0.8680 br        1 IBR     -0.033000
     17 H'          2.2710   -1.0250   -1.8470 ha        1 IBR      0.122000
     18 H3'         3.7060   -0.7020    1.4610 ha        1 IBR      0.155000
     19 H5'         0.2040   -0.8260    3.5610 ha        1 IBR      0.138000
     20 H6'        -1.0080   -0.8650    1.5270 ha        1 IBR      0.140000
     21 HN1         2.3110   -0.3280    4.6740 hn        1 IBR      0.194000
     22 HN2         3.6660   -0.7240    3.9250 hn        1 IBR      0.194000
     23 H21         0.4680   -1.1090   -1.7080 ha        1 IBR      0.124500
     24 H22        -0.8030   -1.5870   -0.9290 ha        1 IBR      0.124500
     25 HE11       -4.3680    2.2780   -3.1780 h1        1 IBR      0.127000
     26 HE12       -4.3970    0.7580   -2.7130 h1        1 IBR      0.127000
     27 HE21       -2.4090    2.4620   -1.6980 h1        1 IBR      0.107500
     28 HE22       -2.1940    1.7480   -3.0920 h1        1 IBR      0.107500
@<TRIPOS>BOND
     1    1    2 1   
     2    1   17 1   
     3    3    8 1   
     4    3   11 1   
     5    4    5 1   
     6    5   18 1   
     7    6    7 1   
     8    6    9 1   
     9    7   19 1   
    10    8   20 1   
    11    9   21 1   
    12    9   22 1   
    13   10   12 1   
    14   10   13 1   
    15   11   23 1   
    16   11   24 1   
    17   12   15 1   
    18   14   15 1   
    19   14   16 1   
    20   14   25 1   
    21   14   26 1   
    22   15   27 1   
    23   15   28 1   
@<TRIPOS>SUBSTRUCTURE
     1 IBR         1 TEMP              0 ****  ****    0 ROOT
