@<TRIPOS>MOLECULE
IBR
   28    27     1     0     0
SMALL
bcc


@<TRIPOS>ATOM
      1 C'          0.4370    0.3000    0.2740 c         1 IBR      0.552100
      2 O'          1.4980   -0.3230    0.2810 o         1 IBR     -0.515100
      3 C1'        -1.9190   -0.0920    0.8650 ce        1 IBR     -0.001900
      4 C2'        -0.6390    0.0930    1.2860 cf        1 IBR     -0.061200
      5 C3'        -0.1650    0.1180    2.6440 cf        1 IBR     -0.282000
      6 C4'        -0.9150    0.4760    3.7210 c2        1 IBR      0.112000
      7 C5'        -3.9540   -0.5180    2.4330 c1        1 IBR     -0.137500
      8 C6'        -3.0060   -0.3140    1.7280 cg        1 IBR     -0.160300
      9 N          -0.4940    0.4190    5.0270 nv        1 IBR     -0.846600
     10 C1         -2.4960    1.2440   -1.1450 c         1 IBR      0.640100
     11 O11        -3.8020    1.4740   -1.4750 os        1 IBR     -0.434900
     12 O12        -1.6730    2.1380   -1.3600 o         1 IBR     -0.549000
     13 C1E        -5.6250    2.8580   -2.0740 c3        1 IBR     -0.021000
     14 C2E        -4.1180    2.7780   -1.9930 c3        1 IBR      0.138400
     15 Br         -6.4880    3.3960   -0.4400 br        1 IBR     -0.160400
     16 H'          0.2130    1.0850   -0.4870 h4        1 IBR      0.035200
     17 H3'         0.8940   -0.1770    2.7630 ha        1 IBR      0.147000
     18 H5'        -1.9680    0.8050    3.5960 h4        1 IBR      0.149000
     19 H6'        -4.7930   -0.7000    3.0550 ha        1 IBR      0.169500
     20 HN1        -0.9600    1.0040    5.6780 hn        1 IBR      0.409800
     21 HN2         0.4700    0.2620    5.2020 hn        1 IBR      0.409800
     22 H21        -1.4320   -0.5990   -1.1860 hc        1 IBR      0.089200
     23 H22        -3.1900   -0.7540   -0.7490 hc        1 IBR      0.089200
     24 HE11       -6.0530    1.8640   -2.3470 h1        1 IBR      0.087700
     25 HE12       -5.9100    3.6150   -2.8420 h1        1 IBR      0.087700
     26 HE21       -3.6660    2.8600   -3.0180 h1        1 IBR      0.068200
     27 HE22       -3.6700    3.5640   -1.3310 h1        1 IBR      0.068200
     28 C2         -2.2660   -0.1330   -0.5930 c3        1 IBR     -0.083200
@<TRIPOS>BOND
     1    1    2 2   
     2    1    4 1   
     3    1   16 1   
     4    3    4 2   
     5    3    8 1   
     6    3   28 1   
     7    4    5 1   
     8    5    6 2   
     9    5   17 1   
    10    6    9 1   
    11    6   18 1   
    12    7    8 3   
    13    7   19 1   
    14    9   20 1   
    15    9   21 1   
    16   10   11 1   
    17   10   12 2   
    18   10   28 1   
    19   11   14 1   
    20   13   14 1   
    21   13   15 1   
    22   13   24 1   
    23   13   25 1   
    24   14   26 1   
    25   14   27 1   
    26   22   28 1   
    27   23   28 1   
@<TRIPOS>SUBSTRUCTURE
     1 IBR         1 TEMP              0 ****  ****    0 ROOT
