@<TRIPOS>MOLECULE
IBS
   43    43     1     0     0
SMALL
bcc


@<TRIPOS>ATOM
      1 C1          0.0000    0.0000    0.0000 c3        1 IBS      0.195100
      2 C2          1.5290    0.0000    0.0000 c3        1 IBS      0.143100
      3 C3          2.0390    0.0000    1.4430 c3        1 IBS      0.138100
      4 C4          1.5290   -1.2490    2.1640 c3        1 IBS      0.194100
      5 C5         -0.0010   -1.2490    2.1640 c3        1 IBS      0.185100
      6 C6         -0.5110   -1.2490    0.7210 c3        1 IBS      0.134100
      7 O1         -0.4770    1.1670    0.6740 os        1 IBS     -0.374200
      8 O2          2.0060   -1.1660   -0.6730 oh        1 IBS     -0.547800
      9 O3          3.4680    0.0010    1.4430 oh        1 IBS     -0.534800
     10 O4          2.0050   -1.2490    3.5110 os        1 IBS     -0.382200
     11 O5         -0.4770   -2.4160    2.8380 os        1 IBS     -0.376200
     12 O6         -1.9400   -1.2490    0.7200 oh        1 IBS     -0.493800
     13 P1         -1.3580    1.9920   -0.3910 p5        1 IBS      0.901800
     14 O11        -0.5490    2.2570   -1.6020 o         1 IBS     -0.724500
     15 O12        -1.8210    3.3890    0.2620 os        1 IBS     -0.411200
     16 C21        -2.4940    4.1210   -0.7650 c3        1 IBS      0.195400
     17 C24        -2.9540    5.4480   -0.2150 c         1 IBS      0.457100
     18 O29        -2.7300    5.7350    0.9360 o         1 IBS     -0.574100
     19 C25        -3.6950    6.4140   -1.1020 c3        1 IBS      0.124400
     20 O26        -4.0230    7.5880   -0.3570 oh        1 IBS     -0.568800
     21 O13        -2.6580    1.1310   -0.7940 o         1 IBS     -0.724500
     22 P4          2.8870   -2.5840    3.6940 p5        1 IBS      0.687900
     23 O41         3.9450   -2.6220    2.6590 o         1 IBS     -0.795500
     24 O42         3.5650   -2.5840    5.1540 o         1 IBS     -0.795500
     25 O43         1.9400   -3.8770    3.5410 o         1 IBS     -0.795500
     26 P5         -1.3590   -1.9060    4.0840 p5        1 IBS      0.719900
     27 O51        -0.5500   -0.9900    4.9190 o         1 IBS     -0.743167
     28 O52        -2.6590   -1.1280    3.5390 o         1 IBS     -0.743167
     29 O53        -1.8220   -3.1700    4.9670 o         1 IBS     -0.743167
     30 H1         -0.3590   -0.0040   -1.0220 h1        1 IBS     -0.003300
     31 H2          1.8880    0.8870   -0.5070 h1        1 IBS     -0.044300
     32 H3          1.6730    0.8830    1.9530 h1        1 IBS      0.010700
     33 H4          1.8880   -2.1320    1.6500 h1        1 IBS      0.051700
     34 H5         -0.3600   -0.3610    2.6720 h1        1 IBS      0.059700
     35 H6         -0.1450   -2.1330    0.2120 h1        1 IBS     -0.019300
     36 HO2         2.4700   -0.9110   -1.4530 ho        1 IBS      0.317000
     37 HO3         3.7820    0.8720    1.6220 ho        1 IBS      0.300000
     38 HO6        -2.2540   -1.9840    0.2200 ho        1 IBS      0.312000
     39 H211       -1.8150    4.2890   -1.5920 h1        1 IBS      0.002200
     40 H212       -3.3510    3.5560   -1.1090 h1        1 IBS      0.002200
     41 H25        -3.0690    6.6840   -1.9440 h1        1 IBS     -0.034300
     42 H251       -4.6050    5.9490   -1.4620 h1        1 IBS     -0.034300
     43 H26        -4.4870    8.1930   -0.9120 ho        1 IBS      0.331000
@<TRIPOS>BOND
     1    1    2 1   
     2    1    6 1   
     3    1    7 1   
     4    1   30 1   
     5    2    3 1   
     6    2    8 1   
     7    2   31 1   
     8    3    4 1   
     9    3    9 1   
    10    3   32 1   
    11    4    5 1   
    12    4   10 1   
    13    4   33 1   
    14    5    6 1   
    15    5   11 1   
    16    5   34 1   
    17    6   12 1   
    18    6   35 1   
    19    7   13 1   
    20    8   36 1   
    21    9   37 1   
    22   10   22 1   
    23   11   26 1   
    24   12   38 1   
    25   13   14 1   
    26   13   15 1   
    27   13   21 1   
    28   15   16 1   
    29   16   17 1   
    30   16   39 1   
    31   16   40 1   
    32   17   18 2   
    33   17   19 1   
    34   19   20 1   
    35   19   41 1   
    36   19   42 1   
    37   20   43 1   
    38   22   23 1   
    39   22   24 1   
    40   22   25 1   
    41   26   27 1   
    42   26   28 1   
    43   26   29 1   
@<TRIPOS>SUBSTRUCTURE
     1 IBS         1 TEMP              0 ****  ****    0 ROOT
