@<TRIPOS>MOLECULE
IBS
   43    43     1     0     0
SMALL
bcc


@<TRIPOS>ATOM
      1 C1          0.8510    1.4220   -0.3520 c3        1 IBS      0.189100
      2 C2         -0.3770    2.1240   -0.9740 c3        1 IBS      0.121100
      3 C3         -1.6190    1.2220   -0.9640 c3        1 IBS      0.093100
      4 C4         -1.7470    0.5820    0.4710 c3        1 IBS      0.220100
      5 C5         -0.7900   -0.6510    0.3350 c3        1 IBS      0.208100
      6 C6          0.6600   -0.0690    0.0320 c3        1 IBS      0.095100
      7 O1          1.9230    1.5640   -1.2750 os        1 IBS     -0.598200
      8 O2         -0.6100    3.3520   -0.2960 oh        1 IBS     -0.680800
      9 O3         -2.7170    1.9760   -1.4320 oh        1 IBS     -0.687800
     10 O4         -3.0570    0.3360    0.8120 os        1 IBS     -0.559200
     11 O5         -0.7140   -1.4950    1.4210 os        1 IBS     -0.560200
     12 O6          1.2660   -0.8620   -0.9800 oh        1 IBS     -0.689800
     13 P1          3.2600    2.3860   -0.9030 p5        1 IBS      1.448800
     14 O11         3.4520    3.5620   -1.7880 o         1 IBS     -0.861500
     15 O12         4.4120    1.3130   -1.4890 os        1 IBS     -0.569200
     16 C21         4.2720   -0.0220   -1.1500 c3        1 IBS      0.094400
     17 C24         5.3550   -0.4600   -0.1760 c         1 IBS      0.555100
     18 O29         6.3860   -1.0640   -0.5300 o         1 IBS     -0.662100
     19 C25         5.1020   -0.2010    1.2850 c3        1 IBS     -0.017600
     20 O26         6.2140   -0.5610    2.0960 oh        1 IBS     -0.637800
     21 O13         3.5710    2.4370    0.5460 o         1 IBS     -0.861500
     22 P4         -3.8890    1.5040    1.7750 p5        1 IBS      1.342900
     23 O41        -3.2660    2.7680    1.1960 o         1 IBS     -0.947167
     24 O42        -5.3340    1.3260    1.3680 o         1 IBS     -0.947167
     25 O43        -3.6500    1.3160    3.2470 o         1 IBS     -0.947167
     26 P5         -0.4560   -3.1790    1.1360 p5        1 IBS      1.340900
     27 O51        -1.4640   -3.6670    0.1280 o         1 IBS     -0.947500
     28 O52         0.9550   -3.1630    0.5660 o         1 IBS     -0.947500
     29 O53        -0.5430   -3.8350    2.4920 o         1 IBS     -0.947500
     30 H1          1.1330    1.9790    0.5920 h1        1 IBS      0.038700
     31 H2         -0.1330    2.4180   -2.0350 h1        1 IBS      0.022700
     32 H3         -1.4810    0.4130   -1.7360 h1        1 IBS      0.035700
     33 H4         -1.3040    1.3010    1.2220 h1        1 IBS      0.013700
     34 H5         -1.1080   -1.2600   -0.5650 h1        1 IBS      0.023700
     35 H6          1.2560   -0.2050    0.9850 h1        1 IBS      0.019700
     36 HO2        -1.3990    3.2360    0.2710 ho        1 IBS      0.470000
     37 HO3        -3.2290    2.2450   -0.6360 ho        1 IBS      0.467000
     38 HO6         1.1570   -1.7930   -0.6650 ho        1 IBS      0.471000
     39 H211        4.3950   -0.6390   -2.0860 h1        1 IBS      0.076700
     40 H212        3.2500   -0.2330   -0.7030 h1        1 IBS      0.076700
     41 H25         4.9170    0.8980    1.4720 h1        1 IBS      0.131700
     42 H251        4.1900   -0.7790    1.6060 h1        1 IBS      0.131700
     43 H26         6.5510   -1.3930    1.7410 ho        1 IBS      0.382000
@<TRIPOS>BOND
     1    1    2 1   
     2    1    6 1   
     3    1    7 1   
     4    1   30 1   
     5    2    3 1   
     6    2    8 1   
     7    2   31 1   
     8    3    4 1   
     9    3    9 1   
    10    3   32 1   
    11    4    5 1   
    12    4   10 1   
    13    4   33 1   
    14    5    6 1   
    15    5   11 1   
    16    5   34 1   
    17    6   12 1   
    18    6   35 1   
    19    7   13 1   
    20    8   36 1   
    21    9   37 1   
    22   10   22 1   
    23   11   26 1   
    24   12   38 1   
    25   13   14 1   
    26   13   15 1   
    27   13   21 1   
    28   15   16 1   
    29   16   17 1   
    30   16   39 1   
    31   16   40 1   
    32   17   18 2   
    33   17   19 1   
    34   19   20 1   
    35   19   41 1   
    36   19   42 1   
    37   20   43 1   
    38   22   23 1   
    39   22   24 1   
    40   22   25 1   
    41   26   27 1   
    42   26   28 1   
    43   26   29 1   
@<TRIPOS>SUBSTRUCTURE
     1 IBS         1 TEMP              0 ****  ****    0 ROOT
