@<TRIPOS>MOLECULE
IBU
   18    17     1     0     0
SMALL
bcc


@<TRIPOS>ATOM
      1 C           1.7600   -0.1270    0.0120 c         1 IBU      0.762200
      2 OA2         2.0430   -1.1530   -0.6050 o         1 IBU     -0.590000
      3 OA1         0.5250    0.3140    0.3340 os        1 IBU     -0.388900
      4 CB         -0.5500   -0.5490   -0.1140 c3        1 IBU      0.143400
      5 CG         -1.8410    0.1470    0.3010 c3        1 IBU     -0.072700
      6 CD1        -2.1300    1.3260   -0.6020 c3        1 IBU     -0.093100
      7 CD2        -2.9770   -0.8540    0.2690 c3        1 IBU     -0.093100
      8 H1B        -0.4740   -0.6730   -1.2240 h1        1 IBU      0.059700
      9 H2B        -0.4330   -1.5450    0.3880 h1        1 IBU      0.059700
     10 HG         -1.7120    0.5250    1.3550 hc        1 IBU      0.069700
     11 H1D1       -1.2640    2.0330   -0.5940 hc        1 IBU      0.040367
     12 H2D1       -2.3040    0.9870   -1.6510 hc        1 IBU      0.040367
     13 H3D1       -3.0400    1.8680   -0.2490 hc        1 IBU      0.040367
     14 H1D2       -3.9320   -0.3510    0.5550 hc        1 IBU      0.040367
     15 H2D2       -3.0950   -1.2830   -0.7550 hc        1 IBU      0.040367
     16 H3D2       -2.7860   -1.6890    0.9850 hc        1 IBU      0.040367
     17 O3          2.6670    0.7570    0.4820 oh        1 IBU     -0.555100
     18 H10         3.5500    0.4240    0.2420 ho        1 IBU      0.457000
@<TRIPOS>BOND
     1    1    2 2   
     2    1    3 1   
     3    1   17 1   
     4    3    4 1   
     5    4    5 1   
     6    4    8 1   
     7    4    9 1   
     8    5    6 1   
     9    5    7 1   
    10    5   10 1   
    11    6   11 1   
    12    6   12 1   
    13    6   13 1   
    14    7   14 1   
    15    7   15 1   
    16    7   16 1   
    17   17   18 1   
@<TRIPOS>SUBSTRUCTURE
     1 IBU         1 TEMP              0 ****  ****    0 ROOT
