@<TRIPOS>MOLECULE
IBU
   18    16     1     0     0
SMALL
bcc


@<TRIPOS>ATOM
      1 C          -0.4560   -0.5250   -0.2590 c         1 IBU      0.773200
      2 OA2         0.3500   -1.3600    0.1360 o         1 IBU     -0.539000
      3 OA1        -1.0740    0.3880    0.5250 oh        1 IBU     -0.588100
      4 CB          1.0250    0.1180    3.1360 c2        1 IBU     -0.246000
      5 CG         -0.0430   -0.2810    3.8350 c2        1 IBU     -0.123400
      6 CD1        -0.8760   -1.4340    3.4100 c3        1 IBU     -0.072400
      7 CD2        -0.4720    0.3840    5.0890 c3        1 IBU     -0.072400
      8 H1B        -0.7720    0.2860    1.4480 ho        1 IBU      0.468000
      9 H2B         1.6530    0.9610    3.4510 ha        1 IBU      0.122500
     10 HG          1.3440   -0.3910    2.2140 ha        1 IBU      0.122500
     11 H1D1       -1.9510   -1.1320    3.3400 hc        1 IBU      0.045533
     12 H2D1       -0.7950   -2.2590    4.1600 hc        1 IBU      0.045533
     13 H3D1       -0.5490   -1.8300    2.4140 hc        1 IBU      0.045533
     14 H1D2       -1.5170    0.7690    4.9850 hc        1 IBU      0.045533
     15 H2D2        0.1970    1.2410    5.3490 hc        1 IBU      0.045533
     16 H3D2       -0.4540   -0.3480    5.9350 hc        1 IBU      0.045533
     17 O3         -0.8350   -0.4110   -1.5440 oh        1 IBU     -0.588100
     18 H10        -1.4770    0.3160   -1.6310 ho        1 IBU      0.468000
@<TRIPOS>BOND
     1    1    2 2   
     2    1    3 1   
     3    1   17 1   
     4    3    8 1   
     5    4    5 2   
     6    4    9 1   
     7    4   10 1   
     8    5    6 1   
     9    5    7 1   
    10    6   11 1   
    11    6   12 1   
    12    6   13 1   
    13    7   14 1   
    14    7   15 1   
    15    7   16 1   
    16   17   18 1   
@<TRIPOS>SUBSTRUCTURE
     1 IBU         1 TEMP              0 ****  ****    0 ROOT
