@<TRIPOS>MOLECULE
IBU
   18    16     1     0     0
SMALL
bcc


@<TRIPOS>ATOM
      1 C           0.3770   -0.6120   -2.5860 c1        1 IBU      0.393000
      2 OA2         1.3090    0.1440   -2.7720 o         1 IBU     -0.401000
      3 OA1        -0.1920   -0.7230   -1.3060 os        1 IBU     -0.227000
      4 CB          0.4180    0.0970   -0.3370 c3        1 IBU     -0.007000
      5 CG         -0.5250    0.2850    0.8310 c3        1 IBU     -0.112000
      6 CD1        -0.4620   -0.9300    1.7300 c3        1 IBU     -0.211000
      7 CD2        -0.1190    1.5140    1.6140 c3        1 IBU     -0.211000
      8 H1B         1.2450   -0.3260   -0.0240 h1        1 IBU      0.099000
      9 H2B         0.6270    0.9690   -0.7320 h1        1 IBU      0.099000
     10 HG         -1.4360    0.3970    0.4990 hc        1 IBU      0.109000
     11 H1D1        0.4570   -1.0530    2.0500 hc        1 IBU      0.079667
     12 H2D1       -1.0600   -0.8010    2.4960 hc        1 IBU      0.079667
     13 H3D1       -0.7420   -1.7230    1.2270 hc        1 IBU      0.079667
     14 H1D2        0.8040    1.4110    1.9280 hc        1 IBU      0.079667
     15 H2D2       -0.1820    2.3040    1.0380 hc        1 IBU      0.079667
     16 H3D2       -0.7150    1.6220    2.3850 hc        1 IBU      0.079667
     17 O3         -0.1410   -1.3670   -3.6540 o         1 IBU     -0.264000
     18 H10         0.3360   -1.2090   -4.3870 ho        1 IBU      0.256000
@<TRIPOS>BOND
     1    1    2 1   
     2    1    3 1   
     3    3    4 1   
     4    4    5 1   
     5    4    8 1   
     6    4    9 1   
     7    5    6 1   
     8    5    7 1   
     9    5   10 1   
    10    6   11 1   
    11    6   12 1   
    12    6   13 1   
    13    7   14 1   
    14    7   15 1   
    15    7   16 1   
    16   17   18 1   
@<TRIPOS>SUBSTRUCTURE
     1 IBU         1 TEMP              0 ****  ****    0 ROOT
