@<TRIPOS>MOLECULE
IBZ
   16    16     1     0     0
SMALL
bcc


@<TRIPOS>ATOM
      1 S           0.0440   -0.2080    0.1190 sh        1 IBZ     -0.359900
      2 C           1.8060   -0.0110   -0.0160 c3        1 IBZ      0.043000
      3 C1          2.3660   -0.0040    1.3550 ca        1 IBZ     -0.039300
      4 C2          2.6660    1.1810    2.0390 ca        1 IBZ      0.041900
      5 C3          3.1990    1.1240    3.3290 ca        1 IBZ     -0.101000
      6 C4          3.4370   -0.1030    3.9440 ca        1 IBZ     -0.128000
      7 C5          3.1420   -1.2860    3.2670 ca        1 IBZ     -0.113000
      8 C6          2.6120   -1.2360    1.9820 ca        1 IBZ     -0.118000
      9 I           2.3620    3.0170    1.2370 i         1 IBZ     -0.141900
     10 H1          2.0520    0.9330   -0.5640 h1        1 IBZ      0.075700
     11 H2          2.2310   -0.8640   -0.6030 h1        1 IBZ      0.075700
     12 H3          3.4350    2.0540    3.8730 ha        1 IBZ      0.146000
     13 H4          3.8560   -0.1360    4.9610 ha        1 IBZ      0.138000
     14 H5          3.3260   -2.2590    3.7480 ha        1 IBZ      0.138000
     15 H6          2.3740   -2.1690    1.4480 ha        1 IBZ      0.143000
     16 HS1        -0.2840    0.0690   -1.1310 hs        1 IBZ      0.198800
@<TRIPOS>BOND
     1    1    2 1   
     2    1   16 1   
     3    2    3 1   
     4    2   10 1   
     5    2   11 1   
     6    3    4 ar  
     7    3    8 ar  
     8    4    5 ar  
     9    4    9 1   
    10    5    6 ar  
    11    5   12 1   
    12    6    7 ar  
    13    6   13 1   
    14    7    8 ar  
    15    7   14 1   
    16    8   15 1   
@<TRIPOS>SUBSTRUCTURE
     1 IBZ         1 TEMP              0 ****  ****    0 ROOT
