@<TRIPOS>MOLECULE
IBZ
   16    16     1     0     0
SMALL
bcc


@<TRIPOS>ATOM
      1 S           5.3080   -1.2080    3.1770 sh        1 IBZ     -0.352900
      2 C           4.0270   -2.3290    2.6910 c3        1 IBZ      0.037000
      3 C1          2.9000   -1.6730    1.9890 ca        1 IBZ     -0.054300
      4 C2          1.8380   -1.0650    2.6720 ca        1 IBZ      0.040900
      5 C3          0.8030   -0.4600    1.9550 ca        1 IBZ     -0.098000
      6 C4          0.8120   -0.4580    0.5620 ca        1 IBZ     -0.130000
      7 C5          1.8630   -1.0670   -0.1240 ca        1 IBZ     -0.110000
      8 C6          2.8960   -1.6710    0.5850 ca        1 IBZ     -0.135000
      9 I           1.7260   -1.0230    4.6940 i         1 IBZ     -0.132900
     10 H1          3.6910   -2.8030    3.6510 h1        1 IBZ      0.088700
     11 H2          4.4580   -3.1380    2.0490 h1        1 IBZ      0.088700
     12 H3         -0.0320    0.0220    2.4900 ha        1 IBZ      0.147000
     13 H4         -0.0070    0.0220    0.0080 ha        1 IBZ      0.139000
     14 H5          1.8740   -1.0720   -1.2250 ha        1 IBZ      0.137000
     15 H6          3.7210   -2.1560    0.0410 ha        1 IBZ      0.135000
     16 HS1         5.6010   -0.6810    2.0020 hs        1 IBZ      0.199800
@<TRIPOS>BOND
     1    1    2 1   
     2    1   16 1   
     3    2    3 1   
     4    2   10 1   
     5    2   11 1   
     6    3    4 ar  
     7    3    8 ar  
     8    4    5 ar  
     9    4    9 1   
    10    5    6 ar  
    11    5   12 1   
    12    6    7 ar  
    13    6   13 1   
    14    7    8 ar  
    15    7   14 1   
    16    8   15 1   
@<TRIPOS>SUBSTRUCTURE
     1 IBZ         1 TEMP              0 ****  ****    0 ROOT
