@<TRIPOS>MOLECULE
IC
   33    32     1     0     0
SMALL
bcc


@<TRIPOS>ATOM
      1 P           3.1700   -2.5820    2.8800 p3        1 IC       2.535000
      2 OP1         4.6340   -2.3250    3.1000 o         1 IC      -1.166000
      3 OP2         2.4730   -2.6910    4.2120 os        1 IC      -0.816000
      4 OP3         2.9920   -3.8870    2.1030 o         1 IC      -1.166000
      5 O5'         2.5410   -1.3840    2.0520 os        1 IC      -0.744000
      6 O3'        -1.4000    0.4330    2.7270 oh        1 IC      -0.696000
      7 C1'        -0.0190    1.1510   -0.4180 c3        1 IC       0.118000
      8 C2'        -1.2020    1.1020    0.5710 c3        1 IC      -0.083000
      9 C3'        -0.9070    0.1250    1.4050 c3        1 IC       0.167000
     10 C4'         0.7130    0.0210    1.4230 c3        1 IC      -0.074000
     11 C5'         1.1370   -1.3600    1.8590 c3        1 IC       0.025000
     12 O4'         1.1060    0.2440    0.2130 os        1 IC      -0.286000
     13 O2'        -1.3130    2.3840    1.3030 oh        1 IC      -0.374000
     14 N2         -0.1290    2.9760   -2.6140 n3        1 IC      -0.327000
     15 C4         -1.5040   -0.2850   -4.0830 c1        1 IC       0.313000
     16 N3         -1.1910    1.0970   -3.9430 n1        1 IC      -0.349000
     17 C2         -0.5650    1.5880   -2.7080 c2        1 IC       0.248000
     18 O4         -1.8900   -0.7190   -5.1610 o         1 IC      -0.402000
     19 N1         -0.3780    0.6810   -1.5680 n3        1 IC      -0.235000
     20 C6         -0.6720   -0.7070   -1.7070 c2        1 IC       0.046000
     21 C5         -1.2630   -1.2110   -2.9600 c2        1 IC      -0.353000
     22 HO3'       -1.9920   -0.1790    2.9700 ho        1 IC       0.223000
     23 H1'         0.3040    2.0730   -0.5140 h2        1 IC       0.115000
     24 H2'        -2.0380    0.9050    0.0950 h1        1 IC       0.064000
     25 H3'        -1.2920   -0.7110    1.0900 h1        1 IC      -0.024000
     26 H4'         1.0870    0.6950    2.0280 h1        1 IC       0.118000
     27 H5'         0.8910   -2.0090    1.1700 h1        1 IC       0.065000
     28 H5''        0.6860   -1.5900    2.7030 h1        1 IC       0.065000
     29 HO2'       -2.0360    2.8310    1.0170 ho        1 IC       0.242000
     30 H21         0.7570    3.1900   -2.7420 hn        1 IC       0.217000
     31 H22        -0.7490    3.6450   -2.4710 hn        1 IC       0.217000
     32 H6         -0.5110   -1.3200   -0.9590 h4        1 IC       0.172000
     33 H5         -1.4380   -2.1800   -3.0710 ha        1 IC       0.145000
@<TRIPOS>BOND
     1    1    2 1   
     2    1    4 1   
     3    1    5 1   
     4    5   11 1   
     5    6    9 1   
     6    6   22 1   
     7    7    8 1   
     8    7   12 1   
     9    7   19 1   
    10    7   23 1   
    11    8    9 1   
    12    8   13 1   
    13    8   24 1   
    14    9   10 1   
    15    9   25 1   
    16   10   11 1   
    17   10   12 1   
    18   10   26 1   
    19   11   27 1   
    20   11   28 1   
    21   13   29 1   
    22   14   17 1   
    23   14   30 1   
    24   14   31 1   
    25   15   18 1   
    26   15   21 1   
    27   16   17 1   
    28   17   19 1   
    29   19   20 1   
    30   20   21 1   
    31   20   32 1   
    32   21   33 1   
@<TRIPOS>SUBSTRUCTURE
     1 IC          1 TEMP              0 ****  ****    0 ROOT
