@<TRIPOS>MOLECULE
IC
   33    34     1     0     0
SMALL
bcc


@<TRIPOS>ATOM
      1 P          -0.3500    1.2580   -3.9100 p5        1 IC       1.336900
      2 OP1         0.6280    2.3260   -3.5200 o         1 IC      -0.929500
      3 OP2        -0.4350    0.8430   -5.3440 o         1 IC      -0.929500
      4 OP3        -1.6530    1.3070   -3.1310 o         1 IC      -0.929500
      5 O5'         0.3350   -0.1420   -3.1150 os        1 IC      -0.554200
      6 O3'        -2.9890   -0.0290   -1.1930 oh        1 IC      -0.690800
      7 C1'        -0.8220   -0.8650    1.3610 c3        1 IC       0.390300
      8 C2'        -1.9110    0.1790    0.9460 c3        1 IC       0.087100
      9 C3'        -1.7670    0.3190   -0.5840 c3        1 IC       0.136100
     10 C4'        -0.6520   -0.6580   -0.9950 c3        1 IC       0.059100
     11 C5'         0.5080    0.0180   -1.7700 c3        1 IC       0.234400
     12 O4'        -0.1390   -1.3010    0.2010 os        1 IC      -0.435600
     13 O2'        -3.1630   -0.2790    1.4130 oh        1 IC      -0.641800
     14 C4          1.9620    0.5340    4.3120 c         1 IC       0.705700
     15 N3          0.6200    0.2710    4.6540 nc        1 IC      -0.774100
     16 C2         -0.2280   -0.1560    3.7050 cd        1 IC       0.829100
     17 O4          2.7720    0.8760    5.2020 o         1 IC      -0.628100
     18 N1          0.1390   -0.3380    2.3450 na        1 IC      -0.638400
     19 C6          1.4370   -0.0150    1.9830 cc        1 IC       0.131000
     20 C5          2.3500    0.4050    2.9020 cd        1 IC      -0.361200
     21 HO3'       -2.9260    0.3290   -2.1140 ho        1 IC       0.519000
     22 H1'        -1.2980   -1.7860    1.8160 h2        1 IC       0.068700
     23 H2'        -1.7520    1.1730    1.4450 h1        1 IC       0.062700
     24 H3'        -1.4960    1.3770   -0.8630 h1        1 IC       0.128700
     25 H4'        -1.0750   -1.4930   -1.6170 h1        1 IC       0.082700
     26 H5'         0.5690    1.1080   -1.4930 h1        1 IC      -0.001300
     27 H5''        1.4600   -0.4970   -1.4420 h1        1 IC      -0.001300
     28 HO2'       -3.6470   -0.6520    0.6620 ho        1 IC       0.443000
     29 H21        -1.8000   -0.1560    4.9930 hn        1 IC       0.420800
     30 H22        -2.2500   -0.3920    3.3990 hn        1 IC       0.420800
     31 H6          1.6620   -0.1270    0.8990 h4        1 IC       0.206000
     32 H5          3.3750    0.6660    2.6190 ha        1 IC       0.157000
     33 N2         -1.5430   -0.5070    4.0960 nh        1 IC      -0.903800
@<TRIPOS>BOND
     1    1    2 1   
     2    1    3 1   
     3    1    4 1   
     4    1    5 1   
     5    5   11 1   
     6    6    9 1   
     7    6   21 1   
     8    7    8 1   
     9    7   12 1   
    10    7   18 1   
    11    7   22 1   
    12    8    9 1   
    13    8   13 1   
    14    8   23 1   
    15    9   10 1   
    16    9   24 1   
    17   10   11 1   
    18   10   12 1   
    19   10   25 1   
    20   11   26 1   
    21   11   27 1   
    22   13   28 1   
    23   14   15 1   
    24   14   17 2   
    25   14   20 1   
    26   15   16 2   
    27   16   18 1   
    28   16   33 1   
    29   18   19 1   
    30   19   20 2   
    31   19   31 1   
    32   20   32 1   
    33   29   33 1   
    34   30   33 1   
@<TRIPOS>SUBSTRUCTURE
     1 IC          1 TEMP              0 ****  ****    0 ROOT
