@<TRIPOS>MOLECULE
IC1
   40    42     1     0     0
SMALL
bcc


@<TRIPOS>ATOM
      1 N1          0.0500   -0.1680   -0.1630 n         1 IC1     -0.484100
      2 C2          1.4380   -0.0230    0.0530 c         1 IC1      0.704700
      3 O2          2.2700    0.0590   -0.8590 o         1 IC1     -0.607500
      4 C3          1.6700    0.0080    1.5480 cc        1 IC1     -0.116400
      5 C4         -0.0940   -0.1600    3.4570 ca        1 IC1     -0.067000
      6 C5         -1.4650   -0.3080    3.7160 ca        1 IC1     -0.170000
      7 C6         -2.3810   -0.4140    2.6760 ca        1 IC1     -0.094000
      8 C7         -1.9740   -0.3770    1.3360 ca        1 IC1     -0.176000
      9 C8         -0.6160   -0.2310    1.0710 ca        1 IC1      0.063600
     10 C9          0.3410   -0.1210    2.1480 ca        1 IC1     -0.092800
     11 C10         2.8990    0.1130    2.0700 cf        1 IC1      0.037800
     12 C1'         3.2500    0.1470    3.4810 ca        1 IC1     -0.173800
     13 C2'         3.9710   -0.9320    4.0470 ca        1 IC1      0.203100
     14 C3'         4.3570   -0.9390    5.3880 ca        1 IC1     -0.295000
     15 C4'         4.0330    0.1710    6.1860 ca        1 IC1      0.200100
     16 C5'         3.3460    1.2700    5.6640 ca        1 IC1     -0.295000
     17 C6'         2.9650    1.2480    4.3140 ca        1 IC1      0.203100
     18 O2'         4.2540   -1.9590    3.1710 os        1 IC1     -0.314900
     19 O4'         4.4520    0.0720    7.4960 os        1 IC1     -0.322900
     20 O6'         2.3090    2.2940    3.7010 os        1 IC1     -0.314900
     21 C11         4.9600   -3.0740    3.7070 c3        1 IC1      0.112200
     22 C12         4.1600    1.1780    8.3430 c3        1 IC1      0.112700
     23 C13         2.0270    3.4340    4.5040 c3        1 IC1      0.112200
     24 HN1        -0.3890   -0.2200   -1.0430 hn        1 IC1      0.339500
     25 H41         0.6270   -0.0690    4.2840 ha        1 IC1      0.141000
     26 H51        -1.8130   -0.3420    4.7580 ha        1 IC1      0.130000
     27 H61        -3.4520   -0.5310    2.9020 ha        1 IC1      0.130000
     28 H71        -2.7110   -0.4610    0.5260 ha        1 IC1      0.137000
     29 H101        3.7670    0.1460    1.3810 ha        1 IC1      0.155000
     30 H3'1        4.9050   -1.7780    5.8360 ha        1 IC1      0.153500
     31 H5'1        3.1120    2.1360    6.2960 ha        1 IC1      0.153500
     32 H111        5.0610   -3.7580    2.8250 h1        1 IC1      0.048367
     33 H112        4.3690   -3.5610    4.5190 h1        1 IC1      0.048367
     34 H113        5.9650   -2.7610    4.0820 h1        1 IC1      0.048367
     35 H121        4.6590    2.1040    7.9670 h1        1 IC1      0.047033
     36 H122        3.0560    1.3310    8.4250 h1        1 IC1      0.047033
     37 H123        4.5910    0.8690    9.3290 h1        1 IC1      0.047033
     38 H131        1.5120    4.1260    3.7900 h1        1 IC1      0.048367
     39 H132        2.9710    3.8930    4.8860 h1        1 IC1      0.048367
     40 H133        1.3490    3.1650    5.3490 h1        1 IC1      0.048367
@<TRIPOS>BOND
     1    1    2 1   
     2    1    9 1   
     3    1   24 1   
     4    2    3 2   
     5    2    4 1   
     6    4   10 1   
     7    4   11 2   
     8    5    6 ar  
     9    5   10 ar  
    10    5   25 1   
    11    6    7 ar  
    12    6   26 1   
    13    7    8 ar  
    14    7   27 1   
    15    8    9 ar  
    16    8   28 1   
    17    9   10 ar  
    18   11   12 1   
    19   11   29 1   
    20   12   13 ar  
    21   12   17 ar  
    22   13   14 ar  
    23   13   18 1   
    24   14   15 ar  
    25   14   30 1   
    26   15   16 ar  
    27   15   19 1   
    28   16   17 ar  
    29   16   31 1   
    30   17   20 1   
    31   18   21 1   
    32   19   22 1   
    33   20   23 1   
    34   21   32 1   
    35   21   33 1   
    36   21   34 1   
    37   22   35 1   
    38   22   36 1   
    39   22   37 1   
    40   23   38 1   
    41   23   39 1   
    42   23   40 1   
@<TRIPOS>SUBSTRUCTURE
     1 IC1         1 TEMP              0 ****  ****    0 ROOT
