@<TRIPOS>MOLECULE
IC1
   40    42     1     0     0
SMALL
bcc


@<TRIPOS>ATOM
      1 N1          0.0580   -0.1450   -0.1690 ns        1 IC1     -0.484100
      2 C2          1.4450    0.0010    0.0500 c         1 IC1      0.705700
      3 O2          2.2790    0.0910   -0.8590 o         1 IC1     -0.607500
      4 C3          1.6750    0.0220    1.5460 cc        1 IC1     -0.116400
      5 C4         -0.0910   -0.1610    3.4510 ca        1 IC1     -0.067000
      6 C5         -1.4620   -0.3150    3.7080 ca        1 IC1     -0.170000
      7 C6         -2.3770   -0.4150    2.6660 ca        1 IC1     -0.094000
      8 C7         -1.9680   -0.3670    1.3260 ca        1 IC1     -0.176000
      9 C8         -0.6100   -0.2170    1.0640 ca        1 IC1      0.063600
     10 C9          0.3450   -0.1130    2.1430 ca        1 IC1     -0.092800
     11 C10         2.9020    0.1260    2.0710 cf        1 IC1      0.037800
     12 C1'         3.2510    0.1510    3.4830 ca        1 IC1     -0.173800
     13 C2'         3.9700   -0.9320    4.0440 ca        1 IC1      0.203100
     14 C3'         4.3530   -0.9470    5.3860 ca        1 IC1     -0.295000
     15 C4'         4.0280    0.1590    6.1900 ca        1 IC1      0.200100
     16 C5'         3.3430    1.2620    5.6730 ca        1 IC1     -0.295000
     17 C6'         2.9650    1.2480    4.3220 ca        1 IC1      0.203100
     18 O2'         4.2540   -1.9540    3.1630 os        1 IC1     -0.314900
     19 O4'         4.4440    0.0520    7.5000 os        1 IC1     -0.322900
     20 O6'         2.3120    2.2970    3.7130 os        1 IC1     -0.314900
     21 C11         4.9570   -3.0730    3.6930 c3        1 IC1      0.112200
     22 C12         4.1520    1.1540    8.3520 c3        1 IC1      0.112700
     23 C13         2.0270    3.4330    4.5230 c3        1 IC1      0.112200
     24 HN1        -0.3800   -0.1910   -1.0490 hn        1 IC1      0.339500
     25 H41         0.6280   -0.0750    4.2800 ha        1 IC1      0.141000
     26 H51        -1.8120   -0.3560    4.7490 ha        1 IC1      0.130000
     27 H61        -3.4480   -0.5340    2.8890 ha        1 IC1      0.130000
     28 H71        -2.7040   -0.4470    0.5150 ha        1 IC1      0.137000
     29 H101        3.7720    0.1660    1.3840 ha        1 IC1      0.155000
     30 H3'1        4.8990   -1.7890    5.8300 ha        1 IC1      0.153500
     31 H5'1        3.1080    2.1240    6.3090 ha        1 IC1      0.153500
     32 H111        4.3630   -3.5640    4.5020 h1        1 IC1      0.048367
     33 H112        5.9610   -2.7640    4.0730 h1        1 IC1      0.048367
     34 H113        5.0590   -3.7520    2.8090 h1        1 IC1      0.048367
     35 H121        4.5800    0.8390    9.3370 h1        1 IC1      0.047033
     36 H122        4.6520    2.0820    7.9830 h1        1 IC1      0.047033
     37 H123        3.0480    1.3070    8.4330 h1        1 IC1      0.047033
     38 H131        1.5130    4.1290    3.8120 h1        1 IC1      0.048367
     39 H132        1.3470    3.1580    5.3650 h1        1 IC1      0.048367
     40 H133        2.9700    3.8890    4.9100 h1        1 IC1      0.048367
@<TRIPOS>BOND
     1    1    2 1   
     2    1    9 1   
     3    1   24 1   
     4    2    3 2   
     5    2    4 1   
     6    4   10 1   
     7    4   11 2   
     8    5    6 ar  
     9    5   10 ar  
    10    5   25 1   
    11    6    7 ar  
    12    6   26 1   
    13    7    8 ar  
    14    7   27 1   
    15    8    9 ar  
    16    8   28 1   
    17    9   10 ar  
    18   11   12 1   
    19   11   29 1   
    20   12   13 ar  
    21   12   17 ar  
    22   13   14 ar  
    23   13   18 1   
    24   14   15 ar  
    25   14   30 1   
    26   15   16 ar  
    27   15   19 1   
    28   16   17 ar  
    29   16   31 1   
    30   17   20 1   
    31   18   21 1   
    32   19   22 1   
    33   20   23 1   
    34   21   32 1   
    35   21   33 1   
    36   21   34 1   
    37   22   35 1   
    38   22   36 1   
    39   22   37 1   
    40   23   38 1   
    41   23   39 1   
    42   23   40 1   
@<TRIPOS>SUBSTRUCTURE
     1 IC1         1 TEMP              0 ****  ****    0 ROOT
