@<TRIPOS>MOLECULE
IC1
   40    42     1     0     0
SMALL
bcc


@<TRIPOS>ATOM
      1 N1         -0.7780   -0.0570   -4.0000 n         1 IC1     -0.484100
      2 C2         -1.4830   -0.6800   -2.9470 c         1 IC1      0.705700
      3 O2         -2.4960   -1.3700   -3.1130 o         1 IC1     -0.607500
      4 C3         -0.7720   -0.3410   -1.6540 cc        1 IC1     -0.116400
      5 C4          1.3660    1.1090   -1.3220 ca        1 IC1     -0.067000
      6 C5          2.3260    1.8750   -2.0000 ca        1 IC1     -0.170000
      7 C6          2.2790    2.0190   -3.3820 ca        1 IC1     -0.094000
      8 C7          1.2770    1.4090   -4.1470 ca        1 IC1     -0.176000
      9 C8          0.3200    0.6490   -3.4820 ca        1 IC1      0.063600
     10 C9          0.3630    0.4960   -2.0460 ca        1 IC1     -0.092800
     11 C10        -1.2210   -0.7710   -0.4690 cf        1 IC1      0.037800
     12 C1'        -0.6340   -0.5090    0.8360 ca        1 IC1     -0.173800
     13 C2'        -1.3290    0.3030    1.7640 ca        1 IC1      0.203100
     14 C3'        -0.8240    0.5650    3.0390 ca        1 IC1     -0.295000
     15 C4'         0.4010   -0.0150    3.4090 ca        1 IC1      0.200100
     16 C5'         1.1090   -0.8450    2.5340 ca        1 IC1     -0.295000
     17 C6'         0.5810   -1.0860    1.2580 ca        1 IC1      0.203100
     18 O2'        -2.5300    0.8030    1.3070 os        1 IC1     -0.314900
     19 O4'         0.8200    0.3020    4.6830 os        1 IC1     -0.322900
     20 O6'         1.1910   -1.9100    0.3360 os        1 IC1     -0.314900
     21 C11        -3.2510    1.6430    2.2040 c3        1 IC1      0.112200
     22 C12         2.0500   -0.2720    5.1100 c3        1 IC1      0.112700
     23 C13         2.4080   -2.5300    0.7340 c3        1 IC1      0.112200
     24 HN1        -1.0160   -0.1030   -4.9550 hn        1 IC1      0.339500
     25 H41         1.4110    0.9920   -0.2280 ha        1 IC1      0.141000
     26 H51         3.1240    2.3670   -1.4250 ha        1 IC1      0.130000
     27 H61         3.0420    2.6250   -3.8940 ha        1 IC1      0.130000
     28 H71         1.2540    1.5320   -5.2380 ha        1 IC1      0.137000
     29 H101       -2.1570   -1.3650   -0.4390 ha        1 IC1      0.155000
     30 H3'1       -1.3530    1.2030    3.7590 ha        1 IC1      0.153500
     31 H5'1        2.0580   -1.3020    2.8410 ha        1 IC1      0.153500
     32 H111       -4.1620    1.9210    1.6150 h1        1 IC1      0.048367
     33 H112       -3.5330    1.0830    3.1280 h1        1 IC1      0.048367
     34 H113       -2.6530    2.5520    2.4590 h1        1 IC1      0.048367
     35 H121        2.1720    0.1220    6.1510 h1        1 IC1      0.047033
     36 H122        1.9830   -1.3870    5.1160 h1        1 IC1      0.047033
     37 H123        2.8910    0.0680    4.4590 h1        1 IC1      0.047033
     38 H131        2.6900   -3.1370   -0.1640 h1        1 IC1      0.048367
     39 H132        3.1900   -1.7630    0.9520 h1        1 IC1      0.048367
     40 H133        2.2440   -3.1910    1.6200 h1        1 IC1      0.048367
@<TRIPOS>BOND
     1    1    2 1   
     2    1    9 1   
     3    1   24 1   
     4    2    3 2   
     5    2    4 1   
     6    4   10 1   
     7    4   11 2   
     8    5    6 ar  
     9    5   10 ar  
    10    5   25 1   
    11    6    7 ar  
    12    6   26 1   
    13    7    8 ar  
    14    7   27 1   
    15    8    9 ar  
    16    8   28 1   
    17    9   10 ar  
    18   11   12 1   
    19   11   29 1   
    20   12   13 ar  
    21   12   17 ar  
    22   13   14 ar  
    23   13   18 1   
    24   14   15 ar  
    25   14   30 1   
    26   15   16 ar  
    27   15   19 1   
    28   16   17 ar  
    29   16   31 1   
    30   17   20 1   
    31   18   21 1   
    32   19   22 1   
    33   20   23 1   
    34   21   32 1   
    35   21   33 1   
    36   21   34 1   
    37   22   35 1   
    38   22   36 1   
    39   22   37 1   
    40   23   38 1   
    41   23   39 1   
    42   23   40 1   
@<TRIPOS>SUBSTRUCTURE
     1 IC1         1 TEMP              0 ****  ****    0 ROOT
