@<TRIPOS>MOLECULE
IC1
   40    42     1     0     0
SMALL
bcc


@<TRIPOS>ATOM
      1 N1          0.0470   -0.1620   -0.1620 n         1 IC1     -0.484100
      2 C2          1.4360   -0.0170    0.0530 c         1 IC1      0.705700
      3 O2          2.2670    0.0660   -0.8590 o         1 IC1     -0.607500
      4 C3          1.6690    0.0110    1.5480 cc        1 IC1     -0.116400
      5 C4         -0.0930   -0.1600    3.4590 ca        1 IC1     -0.067000
      6 C5         -1.4640   -0.3090    3.7190 ca        1 IC1     -0.170000
      7 C6         -2.3810   -0.4140    2.6800 ca        1 IC1     -0.094000
      8 C7         -1.9760   -0.3740    1.3390 ca        1 IC1     -0.176000
      9 C8         -0.6180   -0.2270    1.0730 ca        1 IC1      0.063600
     10 C9          0.3400   -0.1190    2.1490 ca        1 IC1     -0.092800
     11 C10         2.8980    0.1160    2.0690 cf        1 IC1      0.037800
     12 C1'         3.2500    0.1470    3.4800 ca        1 IC1     -0.173800
     13 C2'         3.9690   -0.9340    4.0440 ca        1 IC1      0.203100
     14 C3'         4.3550   -0.9430    5.3860 ca        1 IC1     -0.295000
     15 C4'         4.0340    0.1680    6.1850 ca        1 IC1      0.200100
     16 C5'         3.3490    1.2690    5.6640 ca        1 IC1     -0.295000
     17 C6'         2.9680    1.2490    4.3140 ca        1 IC1      0.203100
     18 O2'         4.2490   -1.9600    3.1680 os        1 IC1     -0.314900
     19 O4'         4.4530    0.0670    7.4950 os        1 IC1     -0.322900
     20 O6'         2.3140    2.2960    3.7010 os        1 IC1     -0.314900
     21 C11         4.9520   -3.0780    3.7030 c3        1 IC1      0.112200
     22 C12         4.1640    1.1740    8.3420 c3        1 IC1      0.112700
     23 C13         2.0340    3.4370    4.5060 c3        1 IC1      0.112200
     24 HN1        -0.3930   -0.2130   -1.0410 hn        1 IC1      0.339500
     25 H41         0.6290   -0.0700    4.2850 ha        1 IC1      0.141000
     26 H51        -1.8110   -0.3450    4.7610 ha        1 IC1      0.130000
     27 H61        -3.4520   -0.5300    2.9060 ha        1 IC1      0.130000
     28 H71        -2.7130   -0.4570    0.5300 ha        1 IC1      0.137000
     29 H101        3.7660    0.1500    1.3790 ha        1 IC1      0.155000
     30 H3'1        4.9010   -1.7830    5.8330 ha        1 IC1      0.153500
     31 H5'1        3.1170    2.1350    6.2960 ha        1 IC1      0.153500
     32 H111        4.3600   -3.5640    4.5160 h1        1 IC1      0.048367
     33 H112        5.9580   -2.7680    4.0780 h1        1 IC1      0.048367
     34 H113        5.0510   -3.7620    2.8210 h1        1 IC1      0.048367
     35 H121        4.5950    0.8630    9.3280 h1        1 IC1      0.047033
     36 H122        4.6650    2.0990    7.9670 h1        1 IC1      0.047033
     37 H123        3.0610    1.3290    8.4250 h1        1 IC1      0.047033
     38 H131        1.5190    4.1300    3.7920 h1        1 IC1      0.048367
     39 H132        1.3550    3.1670    5.3510 h1        1 IC1      0.048367
     40 H133        2.9790    3.8930    4.8880 h1        1 IC1      0.048367
@<TRIPOS>BOND
     1    1    2 1   
     2    1    9 1   
     3    1   24 1   
     4    2    3 2   
     5    2    4 1   
     6    4   10 1   
     7    4   11 2   
     8    5    6 ar  
     9    5   10 ar  
    10    5   25 1   
    11    6    7 ar  
    12    6   26 1   
    13    7    8 ar  
    14    7   27 1   
    15    8    9 ar  
    16    8   28 1   
    17    9   10 ar  
    18   11   12 1   
    19   11   29 1   
    20   12   13 ar  
    21   12   17 ar  
    22   13   14 ar  
    23   13   18 1   
    24   14   15 ar  
    25   14   30 1   
    26   15   16 ar  
    27   15   19 1   
    28   16   17 ar  
    29   16   31 1   
    30   17   20 1   
    31   18   21 1   
    32   19   22 1   
    33   20   23 1   
    34   21   32 1   
    35   21   33 1   
    36   21   34 1   
    37   22   35 1   
    38   22   36 1   
    39   22   37 1   
    40   23   38 1   
    41   23   39 1   
    42   23   40 1   
@<TRIPOS>SUBSTRUCTURE
     1 IC1         1 TEMP              0 ****  ****    0 ROOT
