@<TRIPOS>MOLECULE
IC3
   28    29     1     0     0
SMALL
bcc


@<TRIPOS>ATOM
      1 N4         -1.7530    0.9340   -1.8560 n1        1 IC3     -0.305800
      2 C11        -0.9900    0.6160   -1.0370 cg        1 IC3      0.237800
      3 C9         -0.0830    0.2340   -0.0470 cc        1 IC3     -0.247300
      4 C10         1.3140    0.0420   -0.1930 cd        1 IC3      0.112500
      5 N5          2.0790    0.1770   -1.3130 nv        1 IC3     -0.382200
      6 C8         -0.3750   -0.0560    1.3470 cc        1 IC3      0.469200
      7 N2          0.7350   -0.3970    2.0110 nd        1 IC3     -0.578800
      8 N1          1.7830   -0.3930    1.1110 na        1 IC3     -0.027600
      9 C1          3.0960   -0.2530    1.5830 cc        1 IC3      0.359300
     10 C2          3.5720   -1.0730    2.6610 cc        1 IC3      0.003300
     11 N3          2.7460   -2.1350    3.2160 nh        1 IC3      0.346500
     12 O2          2.0040   -2.8450    2.6540 o         1 IC3      0.052000
     13 O1          2.9390   -2.3500    4.4920 oh        1 IC3     -0.414200
     14 C3          4.8560   -0.8750    3.2280 cc        1 IC3     -0.073600
     15 C4          5.7040    0.0600    2.6630 cd        1 IC3     -0.182200
     16 C7          7.1190    0.2460    3.2250 c3        1 IC3      0.695100
     17 F3          8.0590   -0.5090    2.5720 f         1 IC3     -0.209967
     18 F2          7.5730    1.5350    3.1470 f         1 IC3     -0.209967
     19 F1          7.2360   -0.1030    4.5460 f         1 IC3     -0.209967
     20 C5          5.2800    0.8440    1.5770 cd        1 IC3      0.033000
     21 C6          4.0010    0.7000    1.0590 cc        1 IC3     -0.271600
     22 H8         -1.3620   -0.0160    1.8270 h4        1 IC3      0.083100
     23 H51N        2.9840   -0.2300   -1.3460 hn        1 IC3      0.299200
     24 H52N        1.5800    0.2440   -2.1750 hn        1 IC3      0.299200
     25 H61C        3.6760    1.3940    0.2620 ha        1 IC3      0.199000
     26 H31C        5.1910   -1.4660    4.1040 ha        1 IC3      0.201000
     27 H5          5.9660    1.6050    1.1550 ha        1 IC3      0.199000
     28 H1          2.3700   -3.0960    4.8300 ho        1 IC3      0.520000
@<TRIPOS>BOND
     1    1    2 3   
     2    2    3 1   
     3    3    4 2   
     4    3    6 1   
     5    4    5 1   
     6    4    8 1   
     7    5   23 1   
     8    5   24 1   
     9    6    7 2   
    10    6   22 1   
    11    7    8 1   
    12    8    9 2   
    13    9   10 1   
    14    9   21 1   
    15   10   11 2   
    16   10   14 1   
    17   11   12 1   
    18   11   13 1   
    19   13   28 1   
    20   14   15 2   
    21   14   26 1   
    22   15   16 1   
    23   15   20 1   
    24   16   17 1   
    25   16   18 1   
    26   16   19 1   
    27   20   21 2   
    28   20   27 1   
    29   21   25 1   
@<TRIPOS>SUBSTRUCTURE
     1 IC3         1 TEMP              0 ****  ****    0 ROOT
