@<TRIPOS>MOLECULE
IC3
   28    23     1     0     0
SMALL
bcc


@<TRIPOS>ATOM
      1 N4         -5.6720    1.4940   -0.6950 n1        1 IC3      0.020000
      2 C11        -4.6360    1.0490   -0.8620 c1        1 IC3     -0.092000
      3 C9         -3.2600    0.4590   -1.0850 c1        1 IC3     -0.178000
      4 C10        -2.1360    0.7530   -0.3690 c1        1 IC3      0.182000
      5 N5         -2.0480    1.6750    0.7050 n2        1 IC3     -0.328000
      6 C8         -2.9200   -0.4410   -2.0530 c1        1 IC3      0.004000
      7 N2         -1.6010   -0.7000   -1.9360 n2        1 IC3     -0.146000
      8 N1         -1.1130    0.0420   -0.8890 n3        1 IC3     -0.167000
      9 C1          0.1590    0.0630   -0.4630 c1        1 IC3      0.218000
     10 C2          0.6020   -0.8920    0.4400 c1        1 IC3     -0.138000
     11 N3         -0.3060   -1.8460    0.9670 n2        1 IC3      0.531000
     12 O2         -1.4710   -1.8510    0.5960 o         1 IC3     -0.098000
     13 O1          0.1260   -2.7740    1.8730 oh        1 IC3     -0.193000
     14 C3          1.9290   -0.9030    0.8410 c2        1 IC3      0.014000
     15 C4          2.8120    0.0400    0.3390 c1        1 IC3     -0.178000
     16 C7          4.2520    0.0490    0.8040 c2        1 IC3      0.477000
     17 F3          5.0210   -0.5500   -0.1150 f         1 IC3     -0.138667
     18 F2          4.6590    1.3140    0.9700 f         1 IC3     -0.138667
     19 F1          4.3510   -0.6080    1.9660 f         1 IC3     -0.138667
     20 C5          2.3690    0.9940   -0.5630 c2        1 IC3      0.034000
     21 C6          1.0420    1.0060   -0.9640 c1        1 IC3     -0.185000
     22 H8         -3.5240   -0.8290   -2.7140 DU        1 IC3      0.220000
     23 H51N       -1.2740    1.7450    1.1860 hn        1 IC3      0.250000
     24 H52N       -2.7620    2.2090    0.9090 hn        1 IC3      0.250000
     25 H61C        0.7300    1.6780   -1.5990 ha        1 IC3      0.199000
     26 H31C        2.2410   -1.5750    1.4760 ha        1 IC3      0.201000
     27 H5          2.9910    1.6590   -0.9160 ha        1 IC3      0.199000
     28 H1         -0.5630   -3.2630    2.1490 ho        1 IC3      0.319000
@<TRIPOS>BOND
     1    1    2 1   
     2    3    4 1   
     3    3    6 1   
     4    4    8 1   
     5    5   23 1   
     6    5   24 1   
     7    6    7 1   
     8    7    8 1   
     9    8    9 1   
    10    9   10 1   
    11   10   14 1   
    12   11   12 1   
    13   11   13 1   
    14   13   28 1   
    15   14   15 1   
    16   14   26 1   
    17   15   20 1   
    18   16   17 1   
    19   16   18 1   
    20   16   19 1   
    21   20   21 1   
    22   20   27 1   
    23   21   25 1   
@<TRIPOS>SUBSTRUCTURE
     1 IC3         1 TEMP              0 ****  ****    0 ROOT
