@<TRIPOS>MOLECULE
IC3
   28    29     1     0     0
SMALL
bcc


@<TRIPOS>ATOM
      1 N4         -1.6970    0.9020   -1.8940 n1        1 IC3     -0.305800
      2 C11        -0.9400    0.5820   -1.0700 cg        1 IC3      0.237800
      3 C9         -0.0390    0.1970   -0.0750 cc        1 IC3     -0.247300
      4 C10         1.3600    0.0150   -0.2100 cd        1 IC3      0.112500
      5 N5          2.1340    0.1630   -1.3230 nh        1 IC3     -0.382200
      6 C8         -0.3430   -0.1050    1.3140 cc        1 IC3      0.469200
      7 N2          0.7630   -0.4450    1.9860 nd        1 IC3     -0.578800
      8 N1          1.8200   -0.4280    1.0940 na        1 IC3     -0.027600
      9 C1          3.1280   -0.2840    1.5800 cc        1 IC3      0.359300
     10 C2          3.5990   -1.1100    2.6550 cc        1 IC3      0.003300
     11 N3          2.7750   -2.1800    3.1950 nh        1 IC3      0.346500
     12 O2          2.0410   -2.8900    2.6200 o         1 IC3      0.052000
     13 O1          2.9580   -2.4050    4.4700 oh        1 IC3     -0.414200
     14 C3          4.8770   -0.9090    3.2350 cc        1 IC3     -0.073600
     15 C4          5.7240    0.0360    2.6850 cd        1 IC3     -0.182200
     16 C7          7.1330    0.2250    3.2610 c3        1 IC3      0.695100
     17 F3          8.0840   -0.5150    2.6070 f         1 IC3     -0.209967
     18 F2          7.5780    1.5190    3.2010 f         1 IC3     -0.209967
     19 F1          7.2420   -0.1380    4.5790 f         1 IC3     -0.209967
     20 C5          5.3050    0.8250    1.6010 cd        1 IC3      0.033000
     21 C6          4.0320    0.6790    1.0710 cc        1 IC3     -0.271600
     22 H8         -1.3340   -0.0740    1.7850 h4        1 IC3      0.083100
     23 H51N        3.0420   -0.2380   -1.3500 hn        1 IC3      0.299200
     24 H52N        1.6420    0.2340   -2.1880 hn        1 IC3      0.299200
     25 H61C        3.7100    1.3770    0.2760 ha        1 IC3      0.199000
     26 H31C        5.2070   -1.5050    4.1090 ha        1 IC3      0.201000
     27 H5          5.9900    1.5940    1.1920 ha        1 IC3      0.199000
     28 H1          2.3900   -3.1570    4.7970 ho        1 IC3      0.520000
@<TRIPOS>BOND
     1    1    2 3   
     2    2    3 1   
     3    3    4 2   
     4    3    6 1   
     5    4    5 1   
     6    4    8 1   
     7    5   23 1   
     8    5   24 1   
     9    6    7 2   
    10    6   22 1   
    11    7    8 1   
    12    8    9 2   
    13    9   10 1   
    14    9   21 1   
    15   10   11 2   
    16   10   14 1   
    17   11   12 1   
    18   11   13 1   
    19   13   28 1   
    20   14   15 2   
    21   14   26 1   
    22   15   16 1   
    23   15   20 1   
    24   16   17 1   
    25   16   18 1   
    26   16   19 1   
    27   20   21 2   
    28   20   27 1   
    29   21   25 1   
@<TRIPOS>SUBSTRUCTURE
     1 IC3         1 TEMP              0 ****  ****    0 ROOT
