@<TRIPOS>MOLECULE
IC3
   28    29     1     0     0
SMALL
bcc


@<TRIPOS>ATOM
      1 N4         -1.7500    0.9180   -1.8650 n1        1 IC3     -0.305800
      2 C11        -0.9880    0.6020   -1.0440 cg        1 IC3      0.237800
      3 C9         -0.0810    0.2220   -0.0540 cc        1 IC3     -0.247300
      4 C10         1.3170    0.0370   -0.1970 cd        1 IC3      0.112500
      5 N5          2.0840    0.1780   -1.3150 nh        1 IC3     -0.382200
      6 C8         -0.3760   -0.0710    1.3400 cc        1 IC3      0.469200
      7 N2          0.7340   -0.4090    2.0060 nd        1 IC3     -0.578800
      8 N1          1.7850   -0.3990    1.1070 na        1 IC3     -0.027600
      9 C1          3.0970   -0.2530    1.5830 cc        1 IC3      0.359300
     10 C2          3.5740   -1.0730    2.6610 cc        1 IC3      0.003300
     11 N3          2.7510   -2.1390    3.2120 nh        1 IC3      0.346500
     12 O2          2.0130   -2.8520    2.6460 o         1 IC3      0.052000
     13 O1          2.9420   -2.3560    4.4870 oh        1 IC3     -0.414200
     14 C3          4.8550   -0.8710    3.2310 cc        1 IC3     -0.073600
     15 C4          5.7000    0.0700    2.6700 cd        1 IC3     -0.182200
     16 C7          7.1130    0.2610    3.2360 c3        1 IC3      0.695100
     17 F3          8.0580   -0.4870    2.5810 f         1 IC3     -0.209967
     18 F2          7.5610    1.5530    3.1630 f         1 IC3     -0.209967
     19 F1          7.2290   -0.0910    4.5550 f         1 IC3     -0.209967
     20 C5          5.2750    0.8540    1.5840 cd        1 IC3      0.033000
     21 C6          3.9980    0.7060    1.0630 cc        1 IC3     -0.271600
     22 H8         -1.3640   -0.0370    1.8170 h4        1 IC3      0.083100
     23 H51N        2.9910   -0.2240   -1.3460 hn        1 IC3      0.299200
     24 H52N        1.5870    0.2440   -2.1780 hn        1 IC3      0.299200
     25 H61C        3.6720    1.3990    0.2660 ha        1 IC3      0.199000
     26 H31C        5.1910   -1.4620    4.1060 ha        1 IC3      0.201000
     27 H5          5.9580    1.6200    1.1660 ha        1 IC3      0.199000
     28 H1          2.3760   -3.1060    4.8220 ho        1 IC3      0.520000
@<TRIPOS>BOND
     1    1    2 3   
     2    2    3 1   
     3    3    4 2   
     4    3    6 1   
     5    4    5 1   
     6    4    8 1   
     7    5   23 1   
     8    5   24 1   
     9    6    7 2   
    10    6   22 1   
    11    7    8 1   
    12    8    9 2   
    13    9   10 1   
    14    9   21 1   
    15   10   11 2   
    16   10   14 1   
    17   11   12 1   
    18   11   13 1   
    19   13   28 1   
    20   14   15 2   
    21   14   26 1   
    22   15   16 1   
    23   15   20 1   
    24   16   17 1   
    25   16   18 1   
    26   16   19 1   
    27   20   21 2   
    28   20   27 1   
    29   21   25 1   
@<TRIPOS>SUBSTRUCTURE
     1 IC3         1 TEMP              0 ****  ****    0 ROOT
