@<TRIPOS>MOLECULE
IC3
   28    29     1     0     0
SMALL
bcc


@<TRIPOS>ATOM
      1 N4         -6.2100    1.7190    0.3470 n1        1 IC3     -0.305800
      2 C11        -5.1760    1.1860    0.3380 cg        1 IC3      0.237800
      3 C9         -3.9380    0.5400    0.3320 cc        1 IC3     -0.247300
      4 C10        -2.7380    0.9920   -0.2700 cd        1 IC3      0.112500
      5 N5         -2.5190    2.1380   -0.9750 nh        1 IC3     -0.382200
      6 C8         -3.6150   -0.7410    0.9400 cc        1 IC3      0.469200
      7 N2         -2.3320   -1.0600    0.7360 nd        1 IC3     -0.578800
      8 N1         -1.7640   -0.0590   -0.0300 na        1 IC3     -0.027600
      9 C1         -0.3730    0.1200   -0.0080 cc        1 IC3      0.359300
     10 C2          0.5060   -0.9990   -0.2000 cc        1 IC3      0.003300
     11 N3         -0.0180   -2.3170   -0.5230 nh        1 IC3      0.346500
     12 O2         -0.9370   -2.5870   -1.1980 o         1 IC3      0.052000
     13 O1          0.6950   -3.3060   -0.0510 oh        1 IC3     -0.414200
     14 C3          1.9110   -0.8640   -0.0740 cc        1 IC3     -0.073600
     15 C4          2.4490    0.3930    0.1380 cd        1 IC3     -0.182200
     16 C7          3.9710    0.5680    0.2170 c3        1 IC3      0.695100
     17 F3          4.5360    0.8970   -0.9890 f         1 IC3     -0.209967
     18 F2          4.3640    1.5550    1.0810 f         1 IC3     -0.209967
     19 F1          4.6330   -0.5600    0.6260 f         1 IC3     -0.209967
     20 C5          1.6130    1.5120    0.2820 cd        1 IC3      0.033000
     21 C6          0.2340    1.3760    0.2250 cc        1 IC3     -0.271600
     22 H8         -4.3040   -1.3910    1.4940 h4        1 IC3      0.083100
     23 H51N       -3.3360    2.6370   -1.2600 hn        1 IC3      0.299200
     24 H52N       -1.7170    2.2150   -1.5560 hn        1 IC3      0.299200
     25 H61C       -0.3910    2.2660    0.4280 ha        1 IC3      0.199000
     26 H31C        2.5790   -1.7440   -0.1560 ha        1 IC3      0.201000
     27 H5          2.0640    2.5060    0.4760 ha        1 IC3      0.199000
     28 H1          0.3150   -4.1910   -0.3090 ho        1 IC3      0.520000
@<TRIPOS>BOND
     1    1    2 3   
     2    2    3 1   
     3    3    4 2   
     4    3    6 1   
     5    4    5 1   
     6    4    8 1   
     7    5   23 1   
     8    5   24 1   
     9    6    7 2   
    10    6   22 1   
    11    7    8 1   
    12    8    9 2   
    13    9   10 1   
    14    9   21 1   
    15   10   11 2   
    16   10   14 1   
    17   11   12 1   
    18   11   13 1   
    19   13   28 1   
    20   14   15 2   
    21   14   26 1   
    22   15   16 1   
    23   15   20 1   
    24   16   17 1   
    25   16   18 1   
    26   16   19 1   
    27   20   21 2   
    28   20   27 1   
    29   21   25 1   
@<TRIPOS>SUBSTRUCTURE
     1 IC3         1 TEMP              0 ****  ****    0 ROOT
