@<TRIPOS>MOLECULE
IC8
   49    53     1     0     0
SMALL
bcc


@<TRIPOS>ATOM
      1 CAT        -1.3370    1.5400   -2.3120 c3        1 IC8     -0.066800
      2 CAP        -1.9580    2.2190   -1.1510 ca        1 IC8     -0.042300
      3 CAQ        -2.3900    3.5450   -1.2710 ca        1 IC8     -0.129000
      4 CAR        -2.9860    4.2080   -0.2020 ca        1 IC8     -0.111000
      5 CAJ        -3.1610    3.5490    1.0140 ca        1 IC8     -0.135000
      6 CAI        -2.7400    2.2320    1.1630 ca        1 IC8     -0.114000
      7 CAH        -2.1270    1.5560    0.0880 ca        1 IC8      0.009600
      8 NAG        -1.7100    0.1990    0.2600 n         1 IC8     -0.321500
      9 CAF        -2.6090   -0.8580   -0.0460 c         1 IC8      0.715100
     10 OAB        -3.7250   -0.5800   -0.5160 o         1 IC8     -0.604500
     11 CAE        -2.1320   -2.2290    0.2280 ca        1 IC8     -0.187600
     12 CAD        -2.9460   -3.3510   -0.0290 ca        1 IC8      0.003700
     13 CAA        -4.3090   -3.2070   -0.5890 c3        1 IC8     -0.064800
     14 CAC        -2.4510   -4.6250    0.2530 ca        1 IC8     -0.159000
     15 CAK        -1.1700   -4.7960    0.7810 ca        1 IC8     -0.089000
     16 CAL        -0.3550   -3.7050    1.0390 ca        1 IC8     -0.129000
     17 CAM        -0.8270   -2.4000    0.7640 ca        1 IC8      0.185400
     18 NAN         0.0080   -1.3070    1.0230 nc        1 IC8     -0.627100
     19 CAO        -0.4280   -0.0930    0.7590 cd        1 IC8      0.470900
     20 CAS         0.4960    1.1100    1.0460 c3        1 IC8      0.018000
     21 N9          1.8940    0.8360    0.9980 na        1 IC8     -0.263000
     22 C8          2.6380    0.0320    1.9050 cc        1 IC8      0.436700
     23 N7          3.8990   -0.1870    1.5170 nd        1 IC8     -0.546100
     24 C5          4.0190    0.4570    0.2740 ca        1 IC8     -0.228200
     25 C4          2.7550    1.0840   -0.0890 ca        1 IC8      0.461800
     26 N3          2.5560    1.7770   -1.2480 nb        1 IC8     -0.743000
     27 C2          3.6650    1.8180   -2.0250 ca        1 IC8      0.686900
     28 N1          4.8990    1.2890   -1.8210 nb        1 IC8     -0.793000
     29 C6          5.1090    0.5960   -0.6490 ca        1 IC8      0.760200
     30 N6          6.3390    0.0700   -0.3510 nh        1 IC8     -0.957500
     31 HAT1       -0.2710    1.2810   -2.0870 hc        1 IC8      0.057033
     32 HAT2       -1.8910    0.5960   -2.5490 hc        1 IC8      0.057033
     33 HAT3       -1.3540    2.1930   -3.2180 hc        1 IC8      0.057033
     34 HAQ        -2.2590    4.0660   -2.2320 ha        1 IC8      0.140000
     35 HAR        -3.3220    5.2490   -0.3180 ha        1 IC8      0.137000
     36 HAJ        -3.6410    4.0660    1.8590 ha        1 IC8      0.138000
     37 HAI        -2.8990    1.7170    2.1240 ha        1 IC8      0.140000
     38 HAA1       -4.2670   -2.6860   -1.5800 hc        1 IC8      0.059367
     39 HAA2       -4.8000   -4.2020   -0.7250 hc        1 IC8      0.059367
     40 HAA3       -4.9430   -2.5800    0.0900 hc        1 IC8      0.059367
     41 HAC        -3.0790   -5.5070    0.0560 ha        1 IC8      0.140000
     42 HAK        -0.8020   -5.8120    0.9940 ha        1 IC8      0.138000
     43 HAL         0.6550   -3.8470    1.4510 ha        1 IC8      0.154000
     44 HAS1        0.2750    1.9310    0.3010 h1        1 IC8      0.098200
     45 HAS2        0.2360    1.4700    2.0850 h1        1 IC8      0.098200
     46 H8          2.1750   -0.3500    2.8230 h5        1 IC8      0.080800
     47 H2          3.5510    2.3680   -2.9850 h5        1 IC8      0.051100
     48 H61N        6.4260   -0.5040    0.4500 hn        1 IC8      0.447800
     49 H62N        7.0710    0.0970   -1.0170 hn        1 IC8      0.447800
@<TRIPOS>BOND
     1    1    2 1   
     2    1   31 1   
     3    1   32 1   
     4    1   33 1   
     5    2    3 ar  
     6    2    7 ar  
     7    3    4 ar  
     8    3   34 1   
     9    4    5 ar  
    10    4   35 1   
    11    5    6 ar  
    12    5   36 1   
    13    6    7 ar  
    14    6   37 1   
    15    7    8 1   
    16    8    9 1   
    17    8   19 1   
    18    9   10 2   
    19    9   11 1   
    20   11   12 ar  
    21   11   17 ar  
    22   12   13 1   
    23   12   14 ar  
    24   13   38 1   
    25   13   39 1   
    26   13   40 1   
    27   14   15 ar  
    28   14   41 1   
    29   15   16 ar  
    30   15   42 1   
    31   16   17 ar  
    32   16   43 1   
    33   17   18 1   
    34   18   19 2   
    35   19   20 1   
    36   20   21 1   
    37   20   44 1   
    38   20   45 1   
    39   21   22 1   
    40   21   25 1   
    41   22   23 2   
    42   22   46 1   
    43   23   24 1   
    44   24   25 ar  
    45   24   29 ar  
    46   25   26 ar  
    47   26   27 ar  
    48   27   28 ar  
    49   27   47 1   
    50   28   29 ar  
    51   29   30 1   
    52   30   48 1   
    53   30   49 1   
@<TRIPOS>SUBSTRUCTURE
     1 IC8         1 TEMP              0 ****  ****    0 ROOT
