@<TRIPOS>MOLECULE
IC8
   50    54     1     0     0
SMALL
bcc


@<TRIPOS>ATOM
      1 CAT        -0.2070   -0.2830   -0.0830 c3        1 IC8     -0.064800
      2 CAP         1.2520   -0.0310   -0.0370 ca        1 IC8     -0.043300
      3 CAQ         1.9000    0.0740    1.2000 ca        1 IC8     -0.125000
      4 CAR         3.2750    0.2720    1.2770 ca        1 IC8     -0.103000
      5 CAJ         4.0320    0.3640    0.1090 ca        1 IC8     -0.128000
      6 CAI         3.4150    0.2640   -1.1330 ca        1 IC8     -0.127000
      7 CAH         2.0190    0.0760   -1.2200 ca        1 IC8     -0.008400
      8 NAG         1.4070   -0.0360   -2.5080 n         1 IC8     -0.315500
      9 CAF         1.0510   -1.3140   -3.0310 c         1 IC8      0.717100
     10 OAB         1.1820   -2.3110   -2.3060 o         1 IC8     -0.578500
     11 CAE         0.5400   -1.3370   -4.4180 ca        1 IC8     -0.180600
     12 CAD         0.1890   -2.5500   -5.0400 ca        1 IC8      0.012700
     13 CAA         0.3090   -3.8490   -4.3390 c3        1 IC8     -0.070800
     14 CAC        -0.2830   -2.5230   -6.3560 ca        1 IC8     -0.145000
     15 CAK        -0.4070   -1.3190   -7.0500 ca        1 IC8     -0.082000
     16 CAL        -0.0650   -0.1150   -6.4500 ca        1 IC8     -0.132000
     17 CAM         0.4150   -0.1070   -5.1220 ca        1 IC8      0.173400
     18 NAN         0.7570    1.1140   -4.5260 nc        1 IC8     -0.652100
     19 CAO         1.2170    1.1090   -3.2920 cd        1 IC8      0.462900
     20 CAS         1.6100    2.4470   -2.6360 c3        1 IC8     -0.001000
     21 N9          1.0810    3.6180   -3.2790 na        1 IC8     -0.235000
     22 C8          1.3270    4.0290   -4.6110 cc        1 IC8      0.544700
     23 N7          0.5640    5.0610   -5.0200 nd        1 IC8     -0.596100
     24 C5         -0.2700    5.3420   -3.9340 ca        1 IC8     -0.124200
     25 C4          0.0230    4.4160   -2.8120 ca        1 IC8      0.459800
     26 N3         -0.6360    4.4600   -1.6310 nb        1 IC8     -0.619000
     27 C2         -1.5940    5.4240   -1.5650 ca        1 IC8      0.671900
     28 N1         -1.9590    6.3300   -2.5150 nb        1 IC8     -0.679000
     29 C6         -1.2880    6.2780   -3.6950 ca        1 IC8      0.510200
     30 N6         -1.6340    7.2280   -4.7690 n4        1 IC8     -0.814300
     31 HAT1       -0.7330    0.5330   -0.6390 hc        1 IC8      0.055700
     32 HAT2       -0.6410   -0.3410    0.9460 hc        1 IC8      0.055700
     33 HAT3       -0.4070   -1.2550   -0.6050 hc        1 IC8      0.055700
     34 HAQ         1.3080   -0.0150    2.1240 ha        1 IC8      0.148000
     35 HAR         3.7670    0.3440    2.2590 ha        1 IC8      0.148000
     36 HAJ         5.1230    0.5020    0.1670 ha        1 IC8      0.147000
     37 HAI         4.0280    0.3120   -2.0470 ha        1 IC8      0.140000
     38 HAA1        1.3670   -4.0180   -4.0130 hc        1 IC8      0.066033
     39 HAA2       -0.0060   -4.6960   -4.9950 hc        1 IC8      0.066033
     40 HAA3       -0.3280   -3.8510   -3.4170 hc        1 IC8      0.066033
     41 HAC        -0.5590   -3.4670   -6.8520 ha        1 IC8      0.152000
     42 HAK        -0.7790   -1.3240   -8.0870 ha        1 IC8      0.146000
     43 HAL        -0.1650    0.8290   -7.0070 ha        1 IC8      0.146000
     44 HAS1        1.2630    2.4460   -1.5590 h1        1 IC8      0.115200
     45 HAS2        2.7390    2.5130   -2.6570 h1        1 IC8      0.115200
     46 H8          2.0890    3.5240   -5.2310 h5        1 IC8      0.116800
     47 H2         -2.1610    5.4840   -0.6060 h5        1 IC8      0.100100
     48 H61N       -1.9330    6.6910   -5.5930 hn        1 IC8      0.477800
     49 H62N       -0.7930    7.7700   -5.0080 hn        1 IC8      0.477800
     50 H63        -2.3860    7.8650   -4.4760 hn        1 IC8      0.477800
@<TRIPOS>BOND
     1    1    2 1   
     2    1   31 1   
     3    1   32 1   
     4    1   33 1   
     5    2    3 ar  
     6    2    7 ar  
     7    3    4 ar  
     8    3   34 1   
     9    4    5 ar  
    10    4   35 1   
    11    5    6 ar  
    12    5   36 1   
    13    6    7 ar  
    14    6   37 1   
    15    7    8 1   
    16    8    9 1   
    17    8   19 1   
    18    9   10 2   
    19    9   11 1   
    20   11   12 ar  
    21   11   17 ar  
    22   12   13 1   
    23   12   14 ar  
    24   13   38 1   
    25   13   39 1   
    26   13   40 1   
    27   14   15 ar  
    28   14   41 1   
    29   15   16 ar  
    30   15   42 1   
    31   16   17 ar  
    32   16   43 1   
    33   17   18 1   
    34   18   19 2   
    35   19   20 1   
    36   20   21 1   
    37   20   44 1   
    38   20   45 1   
    39   21   22 1   
    40   21   25 1   
    41   22   23 2   
    42   22   46 1   
    43   23   24 1   
    44   24   25 ar  
    45   24   29 ar  
    46   25   26 ar  
    47   26   27 ar  
    48   27   28 ar  
    49   27   47 1   
    50   28   29 ar  
    51   29   30 1   
    52   30   48 1   
    53   30   49 1   
    54   30   50 1   
@<TRIPOS>SUBSTRUCTURE
     1 IC8         1 TEMP              0 ****  ****    0 ROOT
