@<TRIPOS>MOLECULE
IC8
   49    53     1     0     0
SMALL
bcc


@<TRIPOS>ATOM
      1 CAT        -0.2490    0.3900   -0.2480 c3        1 IC8     -0.066800
      2 CAP         1.2230    0.2890   -0.1210 ca        1 IC8     -0.042300
      3 CAQ         1.8210    0.3930    1.1400 ca        1 IC8     -0.129000
      4 CAR         3.2010    0.2920    1.2930 ca        1 IC8     -0.111000
      5 CAJ         4.0110    0.0810    0.1780 ca        1 IC8     -0.135000
      6 CAI         3.4440   -0.0250   -1.0880 ca        1 IC8     -0.114000
      7 CAH         2.0480    0.0860   -1.2530 ca        1 IC8      0.009600
      8 NAG         1.4860   -0.0360   -2.5620 n         1 IC8     -0.321500
      9 CAF         1.0880   -1.3130   -3.0410 c         1 IC8      0.715100
     10 OAB         1.1820   -2.2950   -2.2850 o         1 IC8     -0.604500
     11 CAE         0.5870   -1.3700   -4.4300 ca        1 IC8     -0.187600
     12 CAD         0.1740   -2.5870   -5.0080 ca        1 IC8      0.003700
     13 CAA         0.2190   -3.8590   -4.2520 c3        1 IC8     -0.064800
     14 CAC        -0.2860   -2.5880   -6.3260 ca        1 IC8     -0.159000
     15 CAK        -0.3420   -1.4050   -7.0680 ca        1 IC8     -0.089000
     16 CAL         0.0580   -0.2000   -6.5140 ca        1 IC8     -0.129000
     17 CAM         0.5300   -0.1640   -5.1810 ca        1 IC8      0.185400
     18 NAN         0.9250    1.0610   -4.6320 nc        1 IC8     -0.627100
     19 CAO         1.3560    1.0950   -3.3880 cd        1 IC8      0.470900
     20 CAS         1.7910    2.4490   -2.7870 c3        1 IC8      0.018000
     21 N9          1.1620    3.5990   -3.3450 na        1 IC8     -0.263000
     22 C8          1.3350    4.1120   -4.6610 cc        1 IC8      0.436700
     23 N7          0.4920    5.1060   -4.9640 nd        1 IC8     -0.546100
     24 C5         -0.3230    5.2560   -3.8290 ca        1 IC8     -0.228200
     25 C4          0.0630    4.2940   -2.8050 ca        1 IC8      0.461800
     26 N3         -0.5520    4.1890   -1.5900 nb        1 IC8     -0.743000
     27 C2         -1.5620    5.0810   -1.4420 ca        1 IC8      0.686900
     28 N1         -2.0290    6.0270   -2.2960 nb        1 IC8     -0.793000
     29 C6         -1.4070    6.1440   -3.5200 ca        1 IC8      0.760200
     30 N6         -1.7930    7.1030   -4.4190 nh        1 IC8     -0.957500
     31 HAT1       -0.7360    0.4780    0.7540 hc        1 IC8      0.057033
     32 HAT2       -0.5260    1.2920   -0.8510 hc        1 IC8      0.057033
     33 HAT3       -0.6570   -0.5190   -0.7580 hc        1 IC8      0.057033
     34 HAQ         1.1830    0.5530    2.0230 ha        1 IC8      0.140000
     35 HAR         3.6500    0.3740    2.2940 ha        1 IC8      0.137000
     36 HAJ         5.1010   -0.0090    0.2960 ha        1 IC8      0.138000
     37 HAI         4.0940   -0.2080   -1.9580 ha        1 IC8      0.140000
     38 HAA1       -0.4140   -3.7840   -3.3320 hc        1 IC8      0.059367
     39 HAA2       -0.1460   -4.7140   -4.8730 hc        1 IC8      0.059367
     40 HAA3        1.2660   -4.0750   -3.9190 hc        1 IC8      0.059367
     41 HAC        -0.6100   -3.5330   -6.7870 ha        1 IC8      0.140000
     42 HAK        -0.7100   -1.4330   -8.1050 ha        1 IC8      0.138000
     43 HAL         0.0070    0.7290   -7.1030 ha        1 IC8      0.154000
     44 HAS1        2.9050    2.5290   -2.9570 h1        1 IC8      0.098200
     45 HAS2        1.5830    2.4420   -1.6750 h1        1 IC8      0.098200
     46 H8          2.1020    3.6980   -5.3260 h5        1 IC8      0.080800
     47 H2         -2.0990    5.0300   -0.4690 h5        1 IC8      0.051100
     48 H61N       -1.3910    7.0930   -5.3230 hn        1 IC8      0.447800
     49 H62N       -2.5870    7.6660   -4.2420 hn        1 IC8      0.447800
@<TRIPOS>BOND
     1    1    2 1   
     2    1   31 1   
     3    1   32 1   
     4    1   33 1   
     5    2    3 ar  
     6    2    7 ar  
     7    3    4 ar  
     8    3   34 1   
     9    4    5 ar  
    10    4   35 1   
    11    5    6 ar  
    12    5   36 1   
    13    6    7 ar  
    14    6   37 1   
    15    7    8 1   
    16    8    9 1   
    17    8   19 1   
    18    9   10 2   
    19    9   11 1   
    20   11   12 ar  
    21   11   17 ar  
    22   12   13 1   
    23   12   14 ar  
    24   13   38 1   
    25   13   39 1   
    26   13   40 1   
    27   14   15 ar  
    28   14   41 1   
    29   15   16 ar  
    30   15   42 1   
    31   16   17 ar  
    32   16   43 1   
    33   17   18 1   
    34   18   19 2   
    35   19   20 1   
    36   20   21 1   
    37   20   44 1   
    38   20   45 1   
    39   21   22 1   
    40   21   25 1   
    41   22   23 2   
    42   22   46 1   
    43   23   24 1   
    44   24   25 ar  
    45   24   29 ar  
    46   25   26 ar  
    47   26   27 ar  
    48   27   28 ar  
    49   27   47 1   
    50   28   29 ar  
    51   29   30 1   
    52   30   48 1   
    53   30   49 1   
@<TRIPOS>SUBSTRUCTURE
     1 IC8         1 TEMP              0 ****  ****    0 ROOT
