@<TRIPOS>MOLECULE
IC8
   49    53     1     0     0
SMALL
bcc


@<TRIPOS>ATOM
      1 CAT        -0.2460    0.3940   -0.2440 c3        1 IC8     -0.066800
      2 CAP         1.2260    0.2970   -0.1180 ca        1 IC8     -0.042300
      3 CAQ         1.8240    0.4050    1.1430 ca        1 IC8     -0.129000
      4 CAR         3.2040    0.3090    1.2960 ca        1 IC8     -0.111000
      5 CAJ         4.0150    0.0980    0.1820 ca        1 IC8     -0.135000
      6 CAI         3.4480   -0.0130   -1.0840 ca        1 IC8     -0.114000
      7 CAH         2.0520    0.0940   -1.2490 ca        1 IC8      0.009600
      8 NAG         1.4900   -0.0330   -2.5580 n         1 IC8     -0.321500
      9 CAF         1.0960   -1.3120   -3.0340 c         1 IC8      0.715100
     10 OAB         1.1940   -2.2920   -2.2760 o         1 IC8     -0.604500
     11 CAE         0.5950   -1.3730   -4.4230 ca        1 IC8     -0.187600
     12 CAD         0.1870   -2.5920   -5.0000 ca        1 IC8      0.003700
     13 CAA         0.2360   -3.8630   -4.2410 c3        1 IC8     -0.064800
     14 CAC        -0.2730   -2.5970   -6.3170 ca        1 IC8     -0.159000
     15 CAK        -0.3340   -1.4160   -7.0610 ca        1 IC8     -0.089000
     16 CAL         0.0620   -0.2080   -6.5090 ca        1 IC8     -0.129000
     17 CAM         0.5340   -0.1680   -5.1760 ca        1 IC8      0.185400
     18 NAN         0.9240    1.0590   -4.6290 nc        1 IC8     -0.627100
     19 CAO         1.3550    1.0960   -3.3860 cd        1 IC8      0.470900
     20 CAS         1.7850    2.4530   -2.7860 c3        1 IC8      0.018000
     21 N9          1.1550    3.6000   -3.3490 na        1 IC8     -0.263000
     22 C8          1.3300    4.1110   -4.6650 cc        1 IC8      0.436700
     23 N7          0.4840    5.1000   -4.9730 nd        1 IC8     -0.546100
     24 C5         -0.3360    5.2500   -3.8410 ca        1 IC8     -0.228200
     25 C4          0.0500    4.2910   -2.8140 ca        1 IC8      0.461800
     26 N3         -0.5690    4.1870   -1.6020 nb        1 IC8     -0.743000
     27 C2         -1.5830    5.0740   -1.4590 ca        1 IC8      0.686900
     28 N1         -2.0510    6.0170   -2.3180 nb        1 IC8     -0.793000
     29 C6         -1.4250    6.1330   -3.5390 ca        1 IC8      0.760200
     30 N6         -1.8110    7.0890   -4.4410 nv        1 IC8     -0.957500
     31 HAT1       -0.5260    1.2940   -0.8490 hc        1 IC8      0.057033
     32 HAT2       -0.7330    0.4810    0.7580 hc        1 IC8      0.057033
     33 HAT3       -0.6520   -0.5170   -0.7530 hc        1 IC8      0.057033
     34 HAQ         1.1860    0.5650    2.0270 ha        1 IC8      0.140000
     35 HAR         3.6540    0.3940    2.2970 ha        1 IC8      0.137000
     36 HAJ         5.1050    0.0110    0.3000 ha        1 IC8      0.138000
     37 HAI         4.0980   -0.1950   -1.9540 ha        1 IC8      0.140000
     38 HAA1        1.2840   -4.0740   -3.9080 hc        1 IC8      0.059367
     39 HAA2       -0.1260   -4.7200   -4.8600 hc        1 IC8      0.059367
     40 HAA3       -0.3970   -3.7880   -3.3200 hc        1 IC8      0.059367
     41 HAC        -0.5940   -3.5440   -6.7770 ha        1 IC8      0.140000
     42 HAK        -0.7020   -1.4470   -8.0980 ha        1 IC8      0.138000
     43 HAL         0.0080    0.7200   -7.0990 ha        1 IC8      0.154000
     44 HAS1        1.5750    2.4490   -1.6750 h1        1 IC8      0.098200
     45 HAS2        2.8990    2.5360   -2.9540 h1        1 IC8      0.098200
     46 H8          2.1020    3.6990   -5.3270 h5        1 IC8      0.080800
     47 H2         -2.1240    5.0240   -0.4890 h5        1 IC8      0.051100
     48 H61N       -2.6090    7.6490   -4.2690 hn        1 IC8      0.447800
     49 H62N       -1.4060    7.0790   -5.3440 hn        1 IC8      0.447800
@<TRIPOS>BOND
     1    1    2 1   
     2    1   31 1   
     3    1   32 1   
     4    1   33 1   
     5    2    3 ar  
     6    2    7 ar  
     7    3    4 ar  
     8    3   34 1   
     9    4    5 ar  
    10    4   35 1   
    11    5    6 ar  
    12    5   36 1   
    13    6    7 ar  
    14    6   37 1   
    15    7    8 1   
    16    8    9 1   
    17    8   19 1   
    18    9   10 2   
    19    9   11 1   
    20   11   12 ar  
    21   11   17 ar  
    22   12   13 1   
    23   12   14 ar  
    24   13   38 1   
    25   13   39 1   
    26   13   40 1   
    27   14   15 ar  
    28   14   41 1   
    29   15   16 ar  
    30   15   42 1   
    31   16   17 ar  
    32   16   43 1   
    33   17   18 1   
    34   18   19 2   
    35   19   20 1   
    36   20   21 1   
    37   20   44 1   
    38   20   45 1   
    39   21   22 1   
    40   21   25 1   
    41   22   23 2   
    42   22   46 1   
    43   23   24 1   
    44   24   25 ar  
    45   24   29 ar  
    46   25   26 ar  
    47   26   27 ar  
    48   27   28 ar  
    49   27   47 1   
    50   28   29 ar  
    51   29   30 1   
    52   30   48 1   
    53   30   49 1   
@<TRIPOS>SUBSTRUCTURE
     1 IC8         1 TEMP              0 ****  ****    0 ROOT
