@<TRIPOS>MOLECULE
IC8
   49    45     1     0     0
SMALL
bcc


@<TRIPOS>ATOM
      1 CAT         2.7720   -1.4730    1.0510 c3        1 IC8     -0.192000
      2 CAP         1.9870   -1.2320    2.3320 c2        1 IC8     -0.035000
      3 CAQ         2.6370   -1.2680    3.5600 c2        1 IC8     -0.129000
      4 CAR         1.9110   -1.1340    4.7350 c1        1 IC8     -0.111000
      5 CAJ         0.5350   -0.9640    4.6850 c1        1 IC8     -0.116750
      6 CAI        -0.1180   -0.9280    3.4540 c1        1 IC8     -0.116750
      7 CAH         0.6080   -1.0620    2.2800 c1        1 IC8      0.017000
      8 NAG        -0.0770   -1.0850    1.0030 n         1 IC8     -0.255000
      9 CAF        -0.5630   -2.3060    0.4900 c2        1 IC8      0.352000
     10 OAB        -0.3550   -3.3420    1.0900 o         1 IC8     -0.329000
     11 CAE        -1.4090   -2.3150   -0.7650 c2        1 IC8     -0.167000
     12 CAD        -1.8010   -3.5420   -1.3390 c2        1 IC8      0.011000
     13 CAA        -1.7410   -5.0410   -1.1440 c3        1 IC8     -0.190000
     14 CAC        -2.4840   -3.5560   -2.5510 c1        1 IC8     -0.159000
     15 CAK        -2.7810   -2.3580   -3.1960 c1        1 IC8     -0.116750
     16 CAL        -2.3940   -1.1460   -2.6280 c1        1 IC8     -0.116750
     17 CAM        -1.7040   -1.1310   -1.4040 c1        1 IC8      0.046000
     18 NAN        -1.1960    0.1400   -0.8680 n2        1 IC8     -0.200000
     19 CAO        -0.3870    0.1500    0.3330 c2        1 IC8      0.101000
     20 CAS         0.0330    1.5000    0.9720 c3        1 IC8      0.034000
     21 N9         -0.1740    2.5730    0.0170 n3        1 IC8     -0.180000
     22 C8         -1.4090    3.1190   -0.0890 c1        1 IC8     -0.019000
     23 N7         -1.3260    4.1870   -0.9220 n2        1 IC8     -0.119000
     24 C5         -0.0330    4.3020   -1.3330 c1        1 IC8     -0.237000
     25 C4          0.6790    3.3070   -0.7550 c1        1 IC8      0.070000
     26 N3          2.0210    3.2020   -0.9910 n1        1 IC8     -0.217000
     27 C2          2.6460    4.1050   -1.8140 c1        1 IC8      0.024000
     28 N1          1.9270    5.1120   -2.3990 n1        1 IC8     -0.267000
     29 C6          0.6040    5.2180   -2.1690 c1        1 IC8      0.239000
     30 N6          0.0520    6.1390   -3.1450 n3        1 IC8     -0.355000
     31 HAT1        2.1890   -1.8740    0.3810 hc        1 IC8      0.096333
     32 HAT2        3.5240   -2.0810    1.2370 hc        1 IC8      0.096333
     33 HAT3        3.1180   -0.6200    0.7140 hc        1 IC8      0.096333
     34 HAQ         3.6080   -1.3890    3.5960 ha        1 IC8      0.140000
     35 HAR         2.3690   -1.1590    5.5970 ha        1 IC8      0.137000
     36 HAJ         0.0240   -0.8690    5.5140 ha        1 IC8      0.142500
     37 HAI        -1.0910   -0.8070    3.4180 ha        1 IC8      0.142500
     38 HAA1       -2.6290   -5.3760   -0.9240 hc        1 IC8      0.098667
     39 HAA2       -1.4250   -5.4680   -1.9730 hc        1 IC8      0.098667
     40 HAA3       -1.1240   -5.2500   -0.4150 hc        1 IC8      0.098667
     41 HAC        -2.7570   -4.4100   -2.9510 ha        1 IC8      0.140000
     42 HAK        -3.2610   -2.3680   -4.0490 ha        1 IC8      0.142500
     43 HAL        -2.6030   -0.3060   -3.0810 ha        1 IC8      0.142500
     44 HAS1       -0.5100    1.6660    1.7730 h1        1 IC8      0.137500
     45 HAS2        0.9750    1.4640    1.2200 h1        1 IC8      0.137500
     46 H8         -2.2230    2.8000    0.3610 DU        1 IC8      0.210000
     47 H2          3.6090    4.0290   -1.9830 ha        1 IC8      0.188000
     48 H61N       -0.8460    6.3480   -3.1250 hn        1 IC8      0.243000
     49 H62N        0.5960    6.4990   -3.8000 hn        1 IC8      0.243000
@<TRIPOS>BOND
     1    1    2 1   
     2    1   31 1   
     3    1   32 1   
     4    1   33 1   
     5    2    3 1   
     6    2    7 1   
     7    3    4 1   
     8    3   34 1   
     9    4   35 1   
    10    5    6 1   
    11    5   36 1   
    12    6   37 1   
    13    7    8 1   
    14    8    9 1   
    15    8   19 1   
    16    9   10 1   
    17    9   11 1   
    18   11   12 1   
    19   11   17 1   
    20   12   13 1   
    21   12   14 1   
    22   13   38 1   
    23   13   39 1   
    24   13   40 1   
    25   14   41 1   
    26   15   16 1   
    27   15   42 1   
    28   16   43 1   
    29   17   18 1   
    30   18   19 1   
    31   19   20 1   
    32   20   21 1   
    33   20   44 1   
    34   20   45 1   
    35   21   22 1   
    36   21   25 1   
    37   22   23 1   
    38   23   24 1   
    39   24   29 1   
    40   25   26 1   
    41   27   28 1   
    42   27   47 1   
    43   29   30 1   
    44   30   48 1   
    45   30   49 1   
@<TRIPOS>SUBSTRUCTURE
     1 IC8         1 TEMP              0 ****  ****    0 ROOT
