@<TRIPOS>MOLECULE
IC9
   30    30     1     0     0
SMALL
bcc


@<TRIPOS>ATOM
      1 O1         -0.3400   -0.5050   -1.4670 o         1 IC9     -0.613800
      2 S           0.9140   -0.4010   -0.8710 s6        1 IC9      1.291000
      3 O2          1.0150    0.1770    0.3850 o         1 IC9     -0.613800
      4 C3          1.9720   -1.6640   -1.1820 c3        1 IC9     -0.260300
      5 C4          1.5960   -2.8480   -0.3640 ca        1 IC9     -0.164300
      6 C9          0.7190   -3.8120   -0.8810 ca        1 IC9     -0.091500
      7 C8          0.3870   -4.9310   -0.1240 ca        1 IC9     -0.126000
      8 C7          0.9340   -5.1140    1.1540 ca        1 IC9     -0.021300
      9 C7M         0.5930   -6.3140    1.9490 c3        1 IC9     -0.072800
     10 C6          1.8200   -4.1540    1.6610 ca        1 IC9     -0.126000
     11 C5          2.1550   -3.0330    0.9070 ca        1 IC9     -0.091500
     12 C2          1.7100    0.8480   -1.9560 c3        1 IC9     -0.095400
     13 N           0.8370    1.9970   -2.2520 n4        1 IC9     -0.706000
     14 C1          0.8100    2.9930   -1.1500 c3        1 IC9      0.069100
     15 H1          3.0450   -1.4050   -0.9540 h1        1 IC9      0.145700
     16 H2          1.9760   -1.9760   -2.2660 h1        1 IC9      0.145700
     17 H3          0.2880   -3.6870   -1.8870 ha        1 IC9      0.140500
     18 H4         -0.3070   -5.6810   -0.5330 ha        1 IC9      0.155000
     19 H5          0.6720   -6.1080    3.0450 hc        1 IC9      0.062700
     20 H6         -0.4470   -6.6610    1.7260 hc        1 IC9      0.062700
     21 H7          1.3000   -7.1460    1.6980 hc        1 IC9      0.062700
     22 H8          2.2590   -4.2890    2.6620 ha        1 IC9      0.155000
     23 H9          2.8590   -2.2920    1.3170 ha        1 IC9      0.140500
     24 H10         2.0080    0.3660   -2.9270 hx        1 IC9      0.137200
     25 H11         2.6540    1.2150   -1.4660 hx        1 IC9      0.137200
     26 H12         1.1590    2.4580   -3.1110 hn        1 IC9      0.462300
     27 H14         0.5570    2.4790   -0.1790 hx        1 IC9      0.118033
     28 H15         1.8180    3.4780   -1.0580 hx        1 IC9      0.118033
     29 H16         0.0330    3.7700   -1.3830 hx        1 IC9      0.118033
     30 HN3        -0.1200    1.6400   -2.4180 hn        1 IC9      0.462300
@<TRIPOS>BOND
     1    1    2 2   
     2    2    3 2   
     3    2    4 1   
     4    2   12 1   
     5    4    5 1   
     6    4   15 1   
     7    4   16 1   
     8    5    6 ar  
     9    5   11 ar  
    10    6    7 ar  
    11    6   17 1   
    12    7    8 ar  
    13    7   18 1   
    14    8    9 1   
    15    8   10 ar  
    16    9   19 1   
    17    9   20 1   
    18    9   21 1   
    19   10   11 ar  
    20   10   22 1   
    21   11   23 1   
    22   12   13 1   
    23   12   24 1   
    24   12   25 1   
    25   13   14 1   
    26   13   26 1   
    27   13   30 1   
    28   14   27 1   
    29   14   28 1   
    30   14   29 1   
@<TRIPOS>SUBSTRUCTURE
     1 IC9         1 TEMP              0 ****  ****    0 ROOT
