@<TRIPOS>MOLECULE
IC9
   29    23     1     0     0
SMALL
bcc


@<TRIPOS>ATOM
      1 O1         -1.6320   -1.6240   -0.5300 o         1 IC9     -0.914500
      2 S          -0.2050   -1.4990   -0.4090 ss        1 IC9      2.793000
      3 O2         -0.0500   -1.4190    1.0160 o         1 IC9     -0.914500
      4 C3          0.3830   -0.0190   -1.2070 c2        1 IC9     -0.803000
      5 C4          0.0020    1.1890   -0.3740 c1        1 IC9     -0.080000
      6 C9          0.8830    1.6860    0.5600 c1        1 IC9     -0.121000
      7 C8          0.5620    2.8300    1.2760 c1        1 IC9     -0.121000
      8 C7         -0.6370    3.4690    1.0540 c1        1 IC9     -0.057000
      9 C7M        -0.9980    4.6850    1.8580 c2        1 IC9     -0.182000
     10 C6         -1.5260    2.9700    0.1130 c1        1 IC9     -0.131000
     11 C5         -1.2080    1.8330   -0.5990 c1        1 IC9     -0.104000
     12 C2          0.6200   -2.9140   -1.0630 c2        1 IC9     -0.735000
     13 N           0.1380   -4.0890   -0.4110 n3        1 IC9     -0.268000
     14 C1          1.1790   -5.0890   -0.3880 c3        1 IC9     -0.126000
     15 H1          1.3560   -0.0610   -1.2950 ha        1 IC9      0.152000
     16 H2         -0.0240    0.0570   -2.1010 ha        1 IC9      0.152000
     17 H3          1.7350    1.2320    0.7190 ha        1 IC9      0.145000
     18 H4          1.1880    3.1820    1.9390 ha        1 IC9      0.145000
     19 H5         -0.9120    5.4850    1.2980 ha        1 IC9      0.086333
     20 H6         -0.4000    4.7580    2.6220 ha        1 IC9      0.086333
     21 H7         -1.9260    4.6050    2.1750 ha        1 IC9      0.086333
     22 H8         -2.3730    3.4220   -0.0440 ha        1 IC9      0.135000
     23 H9         -1.8270    1.4860   -1.2550 ha        1 IC9      0.133000
     24 H10         1.5750   -2.8300   -0.9130 h4        1 IC9      0.123500
     25 H11         0.4450   -2.9780   -2.0220 h4        1 IC9      0.123500
     26 H12        -0.5940   -4.4160   -0.8690 hn        1 IC9      0.170000
     27 H14         1.9380   -4.7590    0.1430 h1        1 IC9      0.075333
     28 H15         0.8320   -5.9150    0.0160 h1        1 IC9      0.075333
     29 H16         1.4780   -5.2740   -1.3080 h1        1 IC9      0.075333
@<TRIPOS>BOND
     1    1    2 1   
     2    2    3 1   
     3    4    5 1   
     4    4   15 1   
     5    4   16 1   
     6    5   11 1   
     7    6    7 1   
     8    6   17 1   
     9    7   18 1   
    10    8   10 1   
    11    9   19 1   
    12    9   20 1   
    13    9   21 1   
    14   10   22 1   
    15   11   23 1   
    16   12   13 1   
    17   12   24 1   
    18   12   25 1   
    19   13   14 1   
    20   13   26 1   
    21   14   27 1   
    22   14   28 1   
    23   14   29 1   
@<TRIPOS>SUBSTRUCTURE
     1 IC9         1 TEMP              0 ****  ****    0 ROOT
