@<TRIPOS>MOLECULE
IC9
   30    30     1     0     0
SMALL
bcc


@<TRIPOS>ATOM
      1 O1         -0.2820   -0.5780   -1.6170 o         1 IC9     -0.613800
      2 S           0.9020   -0.4150   -0.9010 s6        1 IC9      1.291000
      3 O2          0.8520    0.1680    0.3550 o         1 IC9     -0.613800
      4 C3          2.0420   -1.6280   -1.1000 c3        1 IC9     -0.260300
      5 C4          1.6430   -2.8270   -0.3150 ca        1 IC9     -0.164300
      6 C9          0.8710   -3.8340   -0.9110 ca        1 IC9     -0.091000
      7 C8          0.5190   -4.9660   -0.1830 ca        1 IC9     -0.126000
      8 C7          0.9420   -5.1190    1.1440 ca        1 IC9     -0.021300
      9 C7M         0.5810   -6.3320    1.9110 c3        1 IC9     -0.072800
     10 C6          1.7240   -4.1150    1.7310 ca        1 IC9     -0.126000
     11 C5          2.0790   -2.9810    1.0080 ca        1 IC9     -0.091000
     12 C2          1.7420    0.8690   -1.9110 c3        1 IC9     -0.095400
     13 N           0.8500    1.9760   -2.2970 n4        1 IC9     -0.706000
     14 C1          0.6700    2.9700   -1.2090 c3        1 IC9      0.069100
     15 H1          3.0750   -1.3190   -0.7700 h1        1 IC9      0.145700
     16 H2          2.1670   -1.9410   -2.1760 h1        1 IC9      0.145700
     17 H3          0.5400   -3.7330   -1.9570 ha        1 IC9      0.140500
     18 H4         -0.0930   -5.7510   -0.6560 ha        1 IC9      0.155000
     19 H5         -0.3960   -6.7510    1.5650 hc        1 IC9      0.062367
     20 H6          1.3680   -7.1170    1.7660 hc        1 IC9      0.062367
     21 H7          0.5060   -6.1100    3.0040 hc        1 IC9      0.062367
     22 H8          2.0640   -4.2260    2.7730 ha        1 IC9      0.155000
     23 H9          2.7000   -2.2050    1.4810 ha        1 IC9      0.140500
     24 H10         2.1550    0.3990   -2.8450 hx        1 IC9      0.137200
     25 H11         2.6150    1.2790   -1.3330 hx        1 IC9      0.137200
     26 H12        -0.0690    1.5740   -2.5540 hn        1 IC9      0.462300
     27 H14         1.6410    3.5020   -1.0220 hx        1 IC9      0.118033
     28 H15        -0.1160    3.7100   -1.5210 hx        1 IC9      0.118033
     29 H16         0.3480    2.4460   -0.2640 hx        1 IC9      0.118033
     30 HN3         1.2330    2.4500   -3.1230 hn        1 IC9      0.462300
@<TRIPOS>BOND
     1    1    2 2   
     2    2    3 2   
     3    2    4 1   
     4    2   12 1   
     5    4    5 1   
     6    4   15 1   
     7    4   16 1   
     8    5    6 ar  
     9    5   11 ar  
    10    6    7 ar  
    11    6   17 1   
    12    7    8 ar  
    13    7   18 1   
    14    8    9 1   
    15    8   10 ar  
    16    9   19 1   
    17    9   20 1   
    18    9   21 1   
    19   10   11 ar  
    20   10   22 1   
    21   11   23 1   
    22   12   13 1   
    23   12   24 1   
    24   12   25 1   
    25   13   14 1   
    26   13   26 1   
    27   13   30 1   
    28   14   27 1   
    29   14   28 1   
    30   14   29 1   
@<TRIPOS>SUBSTRUCTURE
     1 IC9         1 TEMP              0 ****  ****    0 ROOT
