@<TRIPOS>MOLECULE
IC9
   29    29     1     0     0
SMALL
bcc


@<TRIPOS>ATOM
      1 O1         -1.5890   -0.1540    1.4800 o         1 IC9     -0.646300
      2 S          -1.4710    0.6370    0.3340 s6        1 IC9      1.295000
      3 O2         -1.0890    1.9780    0.4980 o         1 IC9     -0.646300
      4 C3         -0.5080   -0.1070   -0.8670 c3        1 IC9     -0.248300
      5 C4          0.9320   -0.1680   -0.5170 ca        1 IC9     -0.086300
      6 C9          1.5590   -1.4010   -0.3050 ca        1 IC9     -0.110000
      7 C8          2.9190   -1.4560   -0.0060 ca        1 IC9     -0.129500
      8 C7          3.6750   -0.2820    0.0810 ca        1 IC9     -0.065300
      9 C7M         5.1230   -0.3400    0.3840 c3        1 IC9     -0.056800
     10 C6          3.0450    0.9510   -0.1310 ca        1 IC9     -0.129500
     11 C5          1.6880    1.0100   -0.4300 ca        1 IC9     -0.110000
     12 C2         -3.0130    0.6910   -0.4960 c3        1 IC9     -0.034400
     13 N          -3.5020   -0.6150   -0.8740 n3        1 IC9     -0.794200
     14 C1         -4.2530   -1.2840    0.1620 c3        1 IC9      0.124100
     15 H1         -0.8750   -1.1510   -1.0770 h1        1 IC9      0.124700
     16 H2         -0.6040    0.4370   -1.8470 h1        1 IC9      0.124700
     17 H3          0.9770   -2.3330   -0.3700 ha        1 IC9      0.144000
     18 H4          3.4000   -2.4300    0.1640 ha        1 IC9      0.135000
     19 H5          5.7110   -0.3480   -0.5690 hc        1 IC9      0.046367
     20 H6          5.4410    0.5490    0.9820 hc        1 IC9      0.046367
     21 H7          5.3770   -1.2630    0.9600 hc        1 IC9      0.046367
     22 H8          3.6280    1.8820   -0.0570 ha        1 IC9      0.135000
     23 H9          1.1970    1.9860   -0.5770 ha        1 IC9      0.144000
     24 H10        -3.7390    1.2470    0.1690 h2        1 IC9      0.092200
     25 H11        -2.9160    1.3290   -1.4180 h2        1 IC9      0.092200
     26 H12        -4.0600   -0.5410   -1.7060 hn        1 IC9      0.362800
     27 H14        -3.6050   -1.4020    1.0720 h1        1 IC9      0.048033
     28 H15        -5.1890   -0.7390    0.4620 h1        1 IC9      0.048033
     29 H16        -4.5370   -2.3010   -0.2180 h1        1 IC9      0.048033
@<TRIPOS>BOND
     1    1    2 2   
     2    2    3 2   
     3    2    4 1   
     4    2   12 1   
     5    4    5 1   
     6    4   15 1   
     7    4   16 1   
     8    5    6 ar  
     9    5   11 ar  
    10    6    7 ar  
    11    6   17 1   
    12    7    8 ar  
    13    7   18 1   
    14    8    9 1   
    15    8   10 ar  
    16    9   19 1   
    17    9   20 1   
    18    9   21 1   
    19   10   11 ar  
    20   10   22 1   
    21   11   23 1   
    22   12   13 1   
    23   12   24 1   
    24   12   25 1   
    25   13   14 1   
    26   13   26 1   
    27   14   27 1   
    28   14   28 1   
    29   14   29 1   
@<TRIPOS>SUBSTRUCTURE
     1 IC9         1 TEMP              0 ****  ****    0 ROOT
