@<TRIPOS>MOLECULE
IC9
   30    30     1     0     0
SMALL
bcc


@<TRIPOS>ATOM
      1 O1         -0.2950   -0.5440   -1.5700 o         1 IC9     -0.613800
      2 S           0.9110   -0.4070   -0.8850 s6        1 IC9      1.291000
      3 O2          0.9060    0.1680    0.3760 o         1 IC9     -0.613800
      4 C3          2.0230   -1.6380   -1.1240 c3        1 IC9     -0.260300
      5 C4          1.6250   -2.8360   -0.3360 ca        1 IC9     -0.164300
      6 C9          0.8190   -3.8240   -0.9180 ca        1 IC9     -0.091000
      7 C8          0.4670   -4.9550   -0.1880 ca        1 IC9     -0.126000
      8 C7          0.9230   -5.1250    1.1260 ca        1 IC9     -0.021300
      9 C7M         0.5620   -6.3380    1.8930 c3        1 IC9     -0.072800
     10 C6          1.7390   -4.1400    1.6980 ca        1 IC9     -0.126000
     11 C5          2.0940   -3.0070    0.9730 ca        1 IC9     -0.091000
     12 C2          1.7460    0.8690   -1.9080 c3        1 IC9     -0.095400
     13 N           0.8640    1.9940   -2.2620 ny        1 IC9     -0.706000
     14 C1          0.7310    2.9840   -1.1630 c3        1 IC9      0.069100
     15 H1          3.0700   -1.3500   -0.8190 h1        1 IC9      0.145700
     16 H2          2.1140   -1.9460   -2.2050 h1        1 IC9      0.145700
     17 H3          0.4610   -3.7100   -1.9530 ha        1 IC9      0.140500
     18 H4         -0.1720   -5.7260   -0.6490 ha        1 IC9      0.155000
     19 H5         -0.4330   -6.7350    1.5740 hc        1 IC9      0.062367
     20 H6          1.3290   -7.1370    1.7200 hc        1 IC9      0.062367
     21 H7          0.5230   -6.1240    2.9900 hc        1 IC9      0.062367
     22 H8          2.1060   -4.2650    2.7300 ha        1 IC9      0.155000
     23 H9          2.7420   -2.2460    1.4340 ha        1 IC9      0.140500
     24 H10         2.1250    0.4000   -2.8570 hx        1 IC9      0.137200
     25 H11         2.6420    1.2600   -1.3520 hx        1 IC9      0.137200
     26 H12        -0.0690    1.6110   -2.4970 hn        1 IC9      0.462300
     27 H14         1.7160    3.4970   -0.9990 hx        1 IC9      0.118033
     28 H15        -0.0500    3.7400   -1.4490 hx        1 IC9      0.118033
     29 H16         0.4250    2.4590   -0.2130 hx        1 IC9      0.118033
     30 HN3         1.2330    2.4680   -3.0950 hn        1 IC9      0.462300
@<TRIPOS>BOND
     1    1    2 2   
     2    2    3 2   
     3    2    4 1   
     4    2   12 1   
     5    4    5 1   
     6    4   15 1   
     7    4   16 1   
     8    5    6 ar  
     9    5   11 ar  
    10    6    7 ar  
    11    6   17 1   
    12    7    8 ar  
    13    7   18 1   
    14    8    9 1   
    15    8   10 ar  
    16    9   19 1   
    17    9   20 1   
    18    9   21 1   
    19   10   11 ar  
    20   10   22 1   
    21   11   23 1   
    22   12   13 1   
    23   12   24 1   
    24   12   25 1   
    25   13   14 1   
    26   13   26 1   
    27   13   30 1   
    28   14   27 1   
    29   14   28 1   
    30   14   29 1   
@<TRIPOS>SUBSTRUCTURE
     1 IC9         1 TEMP              0 ****  ****    0 ROOT
