@<TRIPOS>MOLECULE
ICC
   19    19     1     0     0
SMALL
bcc


@<TRIPOS>ATOM
      1 O          -0.0600   -0.1540    0.0200 o         1 ICC     -0.651500
      2 C6          1.1850   -0.0740   -0.0300 c         1 ICC      0.693500
      3 N           1.9040   -0.1180    1.1490 n         1 ICC     -0.572900
      4 C5          1.9160    0.0420   -1.3510 c3        1 ICC     -0.146400
      5 C4          2.6250    1.3710   -1.4950 c3        1 ICC     -0.075400
      6 C3          3.9690    1.4150   -0.8010 c3        1 ICC     -0.080400
      7 C2          3.8730    1.3770    0.7070 c3        1 ICC     -0.106400
      8 C1          3.3240    0.0480    1.2280 c3        1 ICC      0.101000
      9 HN          1.3870   -0.0970    1.9980 hn        1 ICC      0.316500
     10 H5          2.6430   -0.8060   -1.4530 hc        1 ICC      0.071200
     11 H5A         1.1470   -0.0640   -2.1630 hc        1 ICC      0.071200
     12 H4          2.7850    1.5660   -2.5900 hc        1 ICC      0.051200
     13 H4A         1.9690    2.1940   -1.1050 hc        1 ICC      0.051200
     14 H3          4.6010    0.5580   -1.1570 hc        1 ICC      0.043200
     15 H3A         4.4950    2.3610   -1.1020 hc        1 ICC      0.043200
     16 H2          3.2440    2.2310    1.0710 hc        1 ICC      0.050700
     17 H2A         4.9010    1.5110    1.1380 hc        1 ICC      0.050700
     18 H1          3.8210   -0.7900    0.6570 h1        1 ICC      0.045700
     19 H1A         3.6180   -0.0570    2.3120 h1        1 ICC      0.045700
@<TRIPOS>BOND
     1    1    2 2   
     2    2    3 1   
     3    2    4 1   
     4    3    8 1   
     5    3    9 1   
     6    4    5 1   
     7    4   10 1   
     8    4   11 1   
     9    5    6 1   
    10    5   12 1   
    11    5   13 1   
    12    6    7 1   
    13    6   14 1   
    14    6   15 1   
    15    7    8 1   
    16    7   16 1   
    17    7   17 1   
    18    8   18 1   
    19    8   19 1   
@<TRIPOS>SUBSTRUCTURE
     1 ICC         1 TEMP              0 ****  ****    0 ROOT
