@<TRIPOS>MOLECULE
ICC
   19    19     1     0     0
SMALL
bcc


@<TRIPOS>ATOM
      1 O          -0.0620   -0.1470    0.0160 o         1 ICC     -0.651500
      2 C6          1.1830   -0.0690   -0.0330 c         1 ICC      0.693500
      3 N           1.9010   -0.1210    1.1450 ns        1 ICC     -0.572900
      4 C5          1.9140    0.0500   -1.3530 c3        1 ICC     -0.146400
      5 C4          2.6270    1.3780   -1.4920 c3        1 ICC     -0.075400
      6 C3          3.9710    1.4140   -0.7980 c3        1 ICC     -0.080400
      7 C2          3.8750    1.3700    0.7110 c3        1 ICC     -0.106400
      8 C1          3.3220    0.0400    1.2260 c3        1 ICC      0.101000
      9 HN          1.3850   -0.1030    1.9940 hn        1 ICC      0.316500
     10 H5          1.1450   -0.0490   -2.1660 hc        1 ICC      0.071200
     11 H5A         2.6390   -0.7990   -1.4600 hc        1 ICC      0.071200
     12 H4          1.9740    2.2010   -1.0980 hc        1 ICC      0.051200
     13 H4A         2.7880    1.5780   -2.5860 hc        1 ICC      0.051200
     14 H3          4.5000    2.3600   -1.0950 hc        1 ICC      0.043200
     15 H3A         4.6010    0.5570   -1.1570 hc        1 ICC      0.043200
     16 H2          3.2490    2.2240    1.0780 hc        1 ICC      0.050700
     17 H2A         4.9040    1.4990    1.1420 hc        1 ICC      0.050700
     18 H1          3.8170   -0.7970    0.6500 h1        1 ICC      0.045700
     19 H1A         3.6150   -0.0700    2.3090 h1        1 ICC      0.045700
@<TRIPOS>BOND
     1    1    2 2   
     2    2    3 1   
     3    2    4 1   
     4    3    8 1   
     5    3    9 1   
     6    4    5 1   
     7    4   10 1   
     8    4   11 1   
     9    5    6 1   
    10    5   12 1   
    11    5   13 1   
    12    6    7 1   
    13    6   14 1   
    14    6   15 1   
    15    7    8 1   
    16    7   16 1   
    17    7   17 1   
    18    8   18 1   
    19    8   19 1   
@<TRIPOS>SUBSTRUCTURE
     1 ICC         1 TEMP              0 ****  ****    0 ROOT
