@<TRIPOS>MOLECULE
ICC
   19    18     1     0     0
SMALL
bcc


@<TRIPOS>ATOM
      1 O          -1.3470   -1.0450   -0.7230 o         1 ICC     -0.282000
      2 C6         -0.1350   -1.0450   -0.7230 c1        1 ICC      0.275000
      3 N           0.5330   -1.0450    0.3560 n2        1 ICC     -0.314000
      4 C5          0.4900   -0.4540   -1.5700 c3        1 ICC     -0.218000
      5 C4          0.7300    0.9090   -1.0240 c3        1 ICC     -0.157000
      6 C3         -0.5770    1.3960    0.0220 c3        1 ICC     -0.167000
      7 C2         -0.6140    0.4150    1.5250 c3        1 ICC     -0.200000
      8 C1         -0.1570   -1.0150    1.2580 c3        1 ICC     -0.068000
      9 HN          1.4390   -1.1420    0.4030 hn        1 ICC      0.168000
     10 H5          0.0060   -0.4370   -2.4180 hc        1 ICC      0.113500
     11 H5A         1.3180   -0.9050   -1.8210 hc        1 ICC      0.113500
     12 H4          0.8040    1.5430   -1.7630 hc        1 ICC      0.086000
     13 H4A         1.5650    0.9090   -0.5170 hc        1 ICC      0.086000
     14 H3         -1.4240    1.2850   -0.4520 hc        1 ICC      0.090000
     15 H3A        -0.4640    2.3370    0.2570 hc        1 ICC      0.090000
     16 H2         -0.0220    0.8220    2.1870 hc        1 ICC      0.087500
     17 H2A        -1.5250    0.4000    1.8760 hc        1 ICC      0.087500
     18 H1          0.3180   -1.3540    2.0400 h1        1 ICC      0.105000
     19 H1A        -0.9370   -1.5760    1.0860 h1        1 ICC      0.105000
@<TRIPOS>BOND
     1    1    2 1   
     2    2    4 1   
     3    3    8 1   
     4    3    9 1   
     5    4    5 1   
     6    4   10 1   
     7    4   11 1   
     8    5    6 1   
     9    5   12 1   
    10    5   13 1   
    11    6    7 1   
    12    6   14 1   
    13    6   15 1   
    14    7    8 1   
    15    7   16 1   
    16    7   17 1   
    17    8   18 1   
    18    8   19 1   
@<TRIPOS>SUBSTRUCTURE
     1 ICC         1 TEMP              0 ****  ****    0 ROOT
