@<TRIPOS>MOLECULE
ICC
   19    19     1     0     0
SMALL
bcc


@<TRIPOS>ATOM
      1 O          -2.4740   -0.0990   -0.2630 o         1 ICC     -0.651500
      2 C6         -1.2890    0.0100    0.1150 c         1 ICC      0.693500
      3 N          -0.6890    1.2520    0.0770 n         1 ICC     -0.572900
      4 C5         -0.5160   -1.1820    0.6360 c3        1 ICC     -0.146400
      5 C4          0.6460   -1.5460   -0.2630 c3        1 ICC     -0.075400
      6 C3          1.8790   -0.7010   -0.0250 c3        1 ICC     -0.080400
      7 C2          1.7150    0.7420   -0.4460 c3        1 ICC     -0.106400
      8 C1          0.6860    1.4890    0.4040 c3        1 ICC      0.101000
      9 HN         -1.1930    1.9890   -0.3590 hn        1 ICC      0.316500
     10 H5         -0.1570   -0.9710    1.6780 hc        1 ICC      0.071200
     11 H5A        -1.2340   -2.0440    0.6870 hc        1 ICC      0.071200
     12 H4          0.9120   -2.6210   -0.0760 hc        1 ICC      0.051200
     13 H4A         0.3320   -1.4640   -1.3380 hc        1 ICC      0.051200
     14 H3          2.1560   -0.7440    1.0620 hc        1 ICC      0.043200
     15 H3A         2.7330   -1.1470   -0.6020 hc        1 ICC      0.043200
     16 H2          2.6990    1.2670   -0.3250 hc        1 ICC      0.050700
     17 H2A         1.4390    0.7930   -1.5320 hc        1 ICC      0.050700
     18 H1          0.8740    2.5960    0.2980 h1        1 ICC      0.045700
     19 H1A         0.8540    1.2160    1.4880 h1        1 ICC      0.045700
@<TRIPOS>BOND
     1    1    2 2   
     2    2    3 1   
     3    2    4 1   
     4    3    8 1   
     5    3    9 1   
     6    4    5 1   
     7    4   10 1   
     8    4   11 1   
     9    5    6 1   
    10    5   12 1   
    11    5   13 1   
    12    6    7 1   
    13    6   14 1   
    14    6   15 1   
    15    7    8 1   
    16    7   16 1   
    17    7   17 1   
    18    8   18 1   
    19    8   19 1   
@<TRIPOS>SUBSTRUCTURE
     1 ICC         1 TEMP              0 ****  ****    0 ROOT
