@<TRIPOS>MOLECULE
ICC
   19    19     1     0     0
SMALL
bcc


@<TRIPOS>ATOM
      1 O          -0.0590   -0.1660    0.0110 o         1 ICC     -0.651500
      2 C6          1.1860   -0.0820   -0.0360 c         1 ICC      0.693500
      3 N           1.9020   -0.1200    1.1440 n         1 ICC     -0.572900
      4 C5          1.9200    0.0300   -1.3550 c3        1 ICC     -0.146400
      5 C4          2.6260    1.3610   -1.5030 c3        1 ICC     -0.075400
      6 C3          3.9680    1.4100   -0.8060 c3        1 ICC     -0.080400
      7 C2          3.8690    1.3790    0.7020 c3        1 ICC     -0.106400
      8 C1          3.3220    0.0500    1.2270 c3        1 ICC      0.101000
      9 HN          1.3830   -0.0980    1.9920 hn        1 ICC      0.316500
     10 H5          2.6500   -0.8160   -1.4530 hc        1 ICC      0.071200
     11 H5A         1.1530   -0.0800   -2.1690 hc        1 ICC      0.071200
     12 H4          1.9670    2.1830   -1.1170 hc        1 ICC      0.051200
     13 H4A         2.7880    1.5520   -2.5980 hc        1 ICC      0.051200
     14 H3          4.4920    2.3560   -1.1100 hc        1 ICC      0.043200
     15 H3A         4.6030    0.5530   -1.1570 hc        1 ICC      0.043200
     16 H2          4.8950    1.5160    1.1350 hc        1 ICC      0.050700
     17 H2A         3.2370    2.2320    1.0610 hc        1 ICC      0.050700
     18 H1          3.6130   -0.0500    2.3120 h1        1 ICC      0.045700
     19 H1A         3.8220   -0.7890    0.6600 h1        1 ICC      0.045700
@<TRIPOS>BOND
     1    1    2 2   
     2    2    3 1   
     3    2    4 1   
     4    3    8 1   
     5    3    9 1   
     6    4    5 1   
     7    4   10 1   
     8    4   11 1   
     9    5    6 1   
    10    5   12 1   
    11    5   13 1   
    12    6    7 1   
    13    6   14 1   
    14    6   15 1   
    15    7    8 1   
    16    7   16 1   
    17    7   17 1   
    18    8   18 1   
    19    8   19 1   
@<TRIPOS>SUBSTRUCTURE
     1 ICC         1 TEMP              0 ****  ****    0 ROOT
