@<TRIPOS>MOLECULE
ICD
   36    38     1     0     0
SMALL
bcc


@<TRIPOS>ATOM
      1 CAA         0.0560    0.0280   -0.1300 ca        1 ICD      0.034200
      2 CAB         1.4500   -0.0040    0.0610 ca        1 ICD     -0.351500
      3 CAC        -0.8290    0.0600    1.0430 ce        1 ICD      0.175900
      4 CAD        -0.4850    0.0440   -1.4200 ca        1 ICD     -0.106000
      5 SAE         2.1700   -0.0670    1.5920 sy        1 ICD      1.511200
      6 CAF         2.2790    0.0040   -1.0660 ca        1 ICD     -0.021000
      7 CAG        -0.3490    0.3120    2.3080 cf        1 ICD     -0.068200
      8 OAH        -2.1180   -0.2690    0.7420 oh        1 ICD     -0.487100
      9 CAI         0.3610    0.0380   -2.5290 ca        1 ICD     -0.076000
     10 NAJ         1.0020    0.6410    2.5130 nh        1 ICD     -0.658300
     11 OAK         3.3340    0.7230    1.5930 o         1 ICD     -0.639300
     12 OAL         2.3510   -1.4020    1.9720 o         1 ICD     -0.639300
     13 CAM         1.7440    0.0220   -2.3530 ca        1 ICD     -0.134000
     14 CAN        -1.2840    0.2810    3.4830 c         1 ICD      0.699300
     15 CAO         1.2960    1.7490    3.3810 c3        1 ICD      0.193100
     16 NAP        -0.7890   -0.2420    4.6650 ns        1 ICD     -0.512400
     17 OAQ        -2.4580    0.6880    3.3650 o         1 ICD     -0.617100
     18 CAR        -1.5190   -0.3320    5.8500 cc        1 ICD      0.426200
     19 NAS        -1.0350   -0.8550    7.0190 nd        1 ICD     -0.404300
     20 CAT        -2.9070    0.1100    6.0700 cc        1 ICD     -0.353600
     21 OAU        -1.9790   -0.7800    7.9310 os        1 ICD     -0.115100
     22 CAV        -3.1510   -0.1930    7.3910 cd        1 ICD      0.274000
     23 CAW        -4.2890   -0.0520    8.2970 c3        1 ICD     -0.141400
     24 HAD        -1.5790    0.0580   -1.5500 ha        1 ICD      0.163000
     25 HAF         3.3750    0.0040   -0.9280 ha        1 ICD      0.158000
     26 HAH        -2.7030   -0.0650    1.4940 ho        1 ICD      0.464000
     27 HAI        -0.0670    0.0480   -3.5430 ha        1 ICD      0.144000
     28 HAM         2.4140    0.0240   -3.2260 ha        1 ICD      0.147000
     29 HAO         2.2010    2.2960    2.9950 h1        1 ICD      0.058700
     30 HAOA        0.4350    2.4670    3.4290 h1        1 ICD      0.058700
     31 HAOB        1.5150    1.3800    4.4200 h1        1 ICD      0.058700
     32 HNAP        0.1400   -0.6100    4.6780 hn        1 ICD      0.352500
     33 HAT        -3.5540    0.5680    5.3250 ha        1 ICD      0.203000
     34 HAW        -5.0870   -0.7890    8.0230 hc        1 ICD      0.067367
     35 HAWA       -4.7140    0.9800    8.2190 hc        1 ICD      0.067367
     36 HAWB       -3.9790   -0.2390    9.3560 hc        1 ICD      0.067367
@<TRIPOS>BOND
     1    1    2 ar  
     2    1    3 1   
     3    1    4 ar  
     4    2    5 1   
     5    2    6 ar  
     6    3    7 2   
     7    3    8 1   
     8    4    9 ar  
     9    4   24 1   
    10    5   10 1   
    11    5   11 2   
    12    5   12 2   
    13    6   13 ar  
    14    6   25 1   
    15    7   10 1   
    16    7   14 1   
    17    8   26 1   
    18    9   13 ar  
    19    9   27 1   
    20   10   15 1   
    21   13   28 1   
    22   14   16 1   
    23   14   17 2   
    24   15   29 1   
    25   15   30 1   
    26   15   31 1   
    27   16   18 1   
    28   16   32 1   
    29   18   19 2   
    30   18   20 1   
    31   19   21 1   
    32   20   22 2   
    33   20   33 1   
    34   21   22 1   
    35   22   23 1   
    36   23   34 1   
    37   23   35 1   
    38   23   36 1   
@<TRIPOS>SUBSTRUCTURE
     1 ICD         1 TEMP              0 ****  ****    0 ROOT
