@<TRIPOS>MOLECULE
ICD
   36    31     1     0     0
SMALL
bcc


@<TRIPOS>ATOM
      1 CAA         0.6430   -1.0170   -2.4180 c1        1 ICD      0.070000
      2 CAB         2.0040   -1.2290   -2.5210 c1        1 ICD     -0.818000
      3 CAC        -0.0420   -1.0180   -1.0160 c2        1 ICD     -0.058000
      4 CAD        -0.1300   -0.8570   -3.5750 c1        1 ICD     -0.145000
      5 SAE         2.9870   -1.3260   -1.0710 s4        1 ICD      2.069800
      6 CAF         2.6080   -1.2850   -3.7800 c1        1 ICD     -0.013000
      7 CAG         0.7910   -0.7250    0.2500 c1        1 ICD      0.051000
      8 OAH        -1.4200   -1.2820   -0.9060 oh        1 ICD     -0.266000
      9 CAI         0.4700   -0.9120   -4.8240 c1        1 ICD     -0.104500
     10 NAJ         2.1630   -1.0970    0.3000 n1        1 ICD     -0.723000
     11 OAK         3.6430   -2.6030   -1.0130 o         1 ICD     -0.524900
     12 OAL         4.0820   -0.4020   -1.1710 o         1 ICD     -0.524900
     13 CAM         1.8400   -1.1260   -4.9280 c1        1 ICD     -0.104500
     14 CAN         0.1870    0.0780    1.3800 c2        1 ICD      0.348000
     15 CAO         2.7940   -1.3280    1.5580 c3        1 ICD     -0.100000
     16 NAP        -1.1420    0.5600    1.2730 n         1 ICD     -0.283000
     17 OAQ         0.8700    0.3910    2.3350 o         1 ICD     -0.279000
     18 CAR        -1.6720    1.4050    2.2800 c2        1 ICD      0.014000
     19 NAS        -0.9560    2.1010    3.1880 n2        1 ICD     -0.022000
     20 CAT        -3.0020    1.7250    2.4510 c1        1 ICD     -0.258000
     21 OAU        -1.8400    2.8650    3.9390 os        1 ICD     -0.063000
     22 CAV        -3.0920    2.6290    3.4800 c1        1 ICD     -0.001000
     23 CAW        -4.3690    3.1980    4.0520 c2        1 ICD     -0.166000
     24 HAD        -1.0930   -0.7060   -3.5020 ha        1 ICD      0.148000
     25 HAF         3.5700   -1.4350   -3.8530 ha        1 ICD      0.155000
     26 HAH        -1.5660   -2.1520   -1.0270 ho        1 ICD      0.227000
     27 HAI        -0.0690   -0.8000   -5.6300 ha        1 ICD      0.144500
     28 HAM         2.2630   -1.1650   -5.8070 ha        1 ICD      0.144500
     29 HAO         2.2020   -1.8650    2.1270 h1        1 ICD      0.108667
     30 HAOA        3.6380   -1.8100    1.4170 h1        1 ICD      0.108667
     31 HAOB        2.9770   -0.4680    1.9950 h1        1 ICD      0.108667
     32 HNAP       -1.6570    0.3210    0.5610 hn        1 ICD      0.259000
     33 HAT        -3.7490    1.3700    1.9310 DU        1 ICD      0.175000
     34 HAW        -4.1610    3.9880    4.5930 ha        1 ICD      0.107000
     35 HAWA       -4.8050    2.5230    4.6140 ha        1 ICD      0.107000
     36 HAWB       -4.9690    3.4510    3.3210 ha        1 ICD      0.107000
@<TRIPOS>BOND
     1    1    3 1   
     2    1    4 1   
     3    2    5 1   
     4    2    6 1   
     5    3    7 1   
     6    3    8 1   
     7    4   24 1   
     8    5   11 1   
     9    5   12 1   
    10    6   25 1   
    11    7   14 1   
    12    8   26 1   
    13    9   13 1   
    14    9   27 1   
    15   10   15 1   
    16   13   28 1   
    17   14   16 1   
    18   14   17 1   
    19   15   29 1   
    20   15   30 1   
    21   15   31 1   
    22   16   18 1   
    23   16   32 1   
    24   18   19 1   
    25   18   20 1   
    26   19   21 1   
    27   20   22 1   
    28   21   22 1   
    29   23   34 1   
    30   23   35 1   
    31   23   36 1   
@<TRIPOS>SUBSTRUCTURE
     1 ICD         1 TEMP              0 ****  ****    0 ROOT
