@<TRIPOS>MOLECULE
ICD
   37    39     1     0     0
SMALL
bcc


@<TRIPOS>ATOM
      1 CAA        -0.1120    0.2970    0.1910 ca        1 ICD     -0.049800
      2 CAB         1.1010   -0.3660    0.5000 ca        1 ICD     -0.344500
      3 CAC        -0.8570    0.9070    1.3010 ce        1 ICD      0.265900
      4 CAD        -0.5840    0.3430   -1.1170 ca        1 ICD     -0.107000
      5 SAE         1.7590   -0.3450    2.0640 sy        1 ICD      1.500200
      6 CAF         1.7930   -0.9980   -0.5310 ca        1 ICD     -0.002000
      7 CAG        -0.2060    1.2060    2.4860 cf        1 ICD     -0.137200
      8 OAH        -2.2030    1.0480    1.2660 oh        1 ICD     -0.452100
      9 CAI         0.1310   -0.2980   -2.1390 ca        1 ICD     -0.058000
     10 NAJ         1.1960    1.1240    2.5810 nh        1 ICD     -0.656300
     11 OAK         3.1500   -0.3960    2.0110 o         1 ICD     -0.635300
     12 OAL         1.0980   -1.2740    2.9060 o         1 ICD     -0.635300
     13 CAM         1.3090   -0.9750   -1.8450 ca        1 ICD     -0.102000
     14 CAN        -0.9800    1.4580    3.7130 c         1 ICD      0.598300
     15 CAO         1.9560    2.3350    2.6930 c3        1 ICD      0.199100
     16 NAP        -0.5340    0.4960    4.8330 n4        1 ICD     -0.637500
     17 OAQ        -1.8830    2.2320    3.9480 o         1 ICD     -0.362100
     18 CAR        -1.5530    0.2510    5.8270 cc        1 ICD      0.348200
     19 NAS        -1.9630    1.1410    6.7800 nd        1 ICD     -0.271300
     20 CAT        -2.3100   -0.9950    5.9610 cc        1 ICD     -0.348600
     21 OAU        -2.8920    0.5720    7.4880 os        1 ICD     -0.067100
     22 CAV        -3.1530   -0.7520    7.0300 cd        1 ICD      0.330000
     23 CAW        -4.1820   -1.4970    7.7490 c3        1 ICD     -0.161400
     24 HAD        -1.5040    0.8940   -1.3710 ha        1 ICD      0.153000
     25 HAF         2.7500   -1.5110   -0.3150 ha        1 ICD      0.176000
     26 HAH        -2.5520    0.6830    0.4320 ho        1 ICD      0.466000
     27 HAI        -0.2460   -0.2590   -3.1750 ha        1 ICD      0.169000
     28 HAM         1.8730   -1.4850   -2.6440 ha        1 ICD      0.172000
     29 HAO         1.7090    2.8560    3.6570 h1        1 ICD      0.065033
     30 HAOA        1.7430    3.0410    1.8450 h1        1 ICD      0.065033
     31 HAOB        3.0500    2.0700    2.6890 h1        1 ICD      0.065033
     32 HNAP        0.2980    0.9010    5.2850 hn        1 ICD      0.488300
     33 HAT        -2.2080   -1.8910    5.3550 ha        1 ICD      0.203000
     34 HAW        -5.0100   -1.7780    7.0480 hc        1 ICD      0.092033
     35 HAWA       -4.6100   -0.8830    8.5840 hc        1 ICD      0.092033
     36 HAWB       -3.7430   -2.4340    8.1800 hc        1 ICD      0.092033
     37 HAP2       -0.2650   -0.4140    4.4090 hn        1 ICD      0.488300
@<TRIPOS>BOND
     1    1    2 ar  
     2    1    3 1   
     3    1    4 ar  
     4    2    5 1   
     5    2    6 ar  
     6    3    7 2   
     7    3    8 1   
     8    4    9 ar  
     9    4   24 1   
    10    5   10 1   
    11    5   11 2   
    12    5   12 2   
    13    6   13 ar  
    14    6   25 1   
    15    7   10 1   
    16    7   14 1   
    17    8   26 1   
    18    9   13 ar  
    19    9   27 1   
    20   10   15 1   
    21   13   28 1   
    22   14   16 1   
    23   14   17 2   
    24   15   29 1   
    25   15   30 1   
    26   15   31 1   
    27   16   18 1   
    28   16   32 1   
    29   16   37 1   
    30   18   19 2   
    31   18   20 1   
    32   19   21 1   
    33   20   22 2   
    34   20   33 1   
    35   21   22 1   
    36   22   23 1   
    37   23   34 1   
    38   23   35 1   
    39   23   36 1   
@<TRIPOS>SUBSTRUCTURE
     1 ICD         1 TEMP              0 ****  ****    0 ROOT
