@<TRIPOS>MOLECULE
ICD
   36    38     1     0     0
SMALL
bcc


@<TRIPOS>ATOM
      1 CAA         2.4810   -0.9640    0.2380 ca        1 ICD      0.035200
      2 CAB         3.1280    0.2550   -0.0380 ca        1 ICD     -0.361500
      3 CAC         1.0240   -1.0150    0.1970 ce        1 ICD      0.042900
      4 CAD         3.2310   -2.1160    0.5050 ca        1 ICD     -0.145000
      5 SAE         2.2870    1.6900   -0.3300 sy        1 ICD      1.511200
      6 CAF         4.5270    0.2850   -0.0530 ca        1 ICD     -0.011000
      7 CAG         0.2690   -0.0350   -0.3980 cf        1 ICD      0.073800
      8 OAH         0.3640   -2.1070    0.7230 oh        1 ICD     -0.492100
      9 CAI         4.6230   -2.0590    0.5000 ca        1 ICD     -0.061000
     10 NAJ         0.8560    1.1110   -0.9320 nh        1 ICD     -0.639300
     11 OAK         2.9570    2.4420   -1.3110 o         1 ICD     -0.637800
     12 OAL         2.0710    2.3520    0.8840 o         1 ICD     -0.637800
     13 CAM         5.2740   -0.8570    0.2190 ca        1 ICD     -0.143000
     14 CAN        -1.2270   -0.2090   -0.5520 c         1 ICD      0.699300
     15 CAO         0.2090    1.7580   -2.0450 c3        1 ICD      0.188100
     16 NAP        -1.9200   -0.3610    0.6420 n         1 ICD     -0.509400
     17 OAQ        -1.7710   -0.1750   -1.6660 o         1 ICD     -0.568100
     18 CAR        -3.2890   -0.6150    0.7170 cc        1 ICD      0.430200
     19 NAS        -3.9510   -0.9850    1.8570 nd        1 ICD     -0.410300
     20 CAT        -4.2660   -0.4980   -0.3800 cc        1 ICD     -0.351600
     21 OAU        -5.2310   -1.1010    1.5760 os        1 ICD     -0.118100
     22 CAV        -5.4700   -0.8130    0.2080 cd        1 ICD      0.273000
     23 CAW        -6.8550   -0.9030   -0.2480 c3        1 ICD     -0.139400
     24 HAD         2.7230   -3.0750    0.6940 ha        1 ICD      0.146000
     25 HAF         5.0420    1.2330   -0.2950 ha        1 ICD      0.159000
     26 HAH         0.8480   -2.3760    1.5200 ho        1 ICD      0.430000
     27 HAI         5.2090   -2.9680    0.7100 ha        1 ICD      0.144000
     28 HAM         6.3740   -0.8130    0.2090 ha        1 ICD      0.149000
     29 HAO        -0.0300    1.0150   -2.8530 h1        1 ICD      0.067033
     30 HAOA       -0.7520    2.2350   -1.7120 h1        1 ICD      0.067033
     31 HAOB        0.8950    2.5460   -2.4600 h1        1 ICD      0.067033
     32 HNAP       -1.3840   -0.5200    1.4700 hn        1 ICD      0.341500
     33 HAT        -4.0350   -0.2310   -1.4080 ha        1 ICD      0.202000
     34 HAW        -7.2770   -1.9130   -0.0110 hc        1 ICD      0.066367
     35 HAWA       -7.4830   -0.1320    0.2680 hc        1 ICD      0.066367
     36 HAWB       -6.9040   -0.7350   -1.3510 hc        1 ICD      0.066367
@<TRIPOS>BOND
     1    1    2 ar  
     2    1    3 1   
     3    1    4 ar  
     4    2    5 1   
     5    2    6 ar  
     6    3    7 2   
     7    3    8 1   
     8    4    9 ar  
     9    4   24 1   
    10    5   10 1   
    11    5   11 2   
    12    5   12 2   
    13    6   13 ar  
    14    6   25 1   
    15    7   10 1   
    16    7   14 1   
    17    8   26 1   
    18    9   13 ar  
    19    9   27 1   
    20   10   15 1   
    21   13   28 1   
    22   14   16 1   
    23   14   17 2   
    24   15   29 1   
    25   15   30 1   
    26   15   31 1   
    27   16   18 1   
    28   16   32 1   
    29   18   19 2   
    30   18   20 1   
    31   19   21 1   
    32   20   22 2   
    33   20   33 1   
    34   21   22 1   
    35   22   23 1   
    36   23   34 1   
    37   23   35 1   
    38   23   36 1   
@<TRIPOS>SUBSTRUCTURE
     1 ICD         1 TEMP              0 ****  ****    0 ROOT
