@<TRIPOS>MOLECULE
ICF
   12    11     1     0     0
SMALL
bcc


@<TRIPOS>ATOM
      1 FAC        -0.1590   -0.9810   -2.3940 f         1 ICF     -0.219633
      2 CAJ         0.2920   -0.0320   -1.5150 c3        1 ICF      0.634900
      3 FAD        -0.0150    1.1720   -2.0790 f         1 ICF     -0.219633
      4 FAE         1.6580   -0.1220   -1.5670 f         1 ICF     -0.219633
      5 CAI        -0.2570   -0.2470   -0.0510 c3        1 ICF      0.203500
      6 CLAF       -2.0070   -0.1010   -0.0010 cl        1 ICF     -0.117400
      7 OAG         0.3600    0.7590    0.7270 os        1 ICF     -0.438600
      8 CAH         0.8620    0.4060    2.0000 c3        1 ICF      0.591700
      9 FAB        -0.1440   -0.1470    2.7340 f         1 ICF     -0.238800
     10 FAA         1.7740   -0.5950    1.8350 f         1 ICF     -0.238800
     11 HAI         0.0100   -1.2800    0.2920 h2        1 ICF      0.117700
     12 HAH         1.2880    1.3580    2.4340 h3        1 ICF      0.144700
@<TRIPOS>BOND
     1    1    2 1   
     2    2    3 1   
     3    2    4 1   
     4    2    5 1   
     5    5    6 1   
     6    5    7 1   
     7    5   11 1   
     8    7    8 1   
     9    8    9 1   
    10    8   10 1   
    11    8   12 1   
@<TRIPOS>SUBSTRUCTURE
     1 ICF         1 TEMP              0 ****  ****    0 ROOT
