@<TRIPOS>MOLECULE
ICF
   12    11     1     0     0
SMALL
bcc


@<TRIPOS>ATOM
      1 FAC         0.1190   -0.2680   -0.1490 f         1 ICF     -0.219633
      2 CAJ         1.4540   -0.0580    0.0760 c3        1 ICF      0.634900
      3 FAD         1.8520    0.8460   -0.8650 f         1 ICF     -0.219633
      4 FAE         2.0610   -1.2360   -0.2680 f         1 ICF     -0.219633
      5 CAI         1.7630    0.3500    1.5700 c3        1 ICF      0.203500
      6 CLAF        0.9980    1.8760    1.9830 cl        1 ICF     -0.117400
      7 OAG         3.1710    0.4500    1.6420 os        1 ICF     -0.438600
      8 CAH         3.8230   -0.0960    2.7700 c3        1 ICF      0.591700
      9 FAB         3.2960    0.4580    3.8970 f         1 ICF     -0.238800
     10 FAA         3.5070   -1.4210    2.8450 f         1 ICF     -0.238800
     11 HAI         1.3520   -0.4360    2.2560 h2        1 ICF      0.117700
     12 HAH         4.9230    0.1120    2.6170 h3        1 ICF      0.144700
@<TRIPOS>BOND
     1    1    2 1   
     2    2    3 1   
     3    2    4 1   
     4    2    5 1   
     5    5    6 1   
     6    5    7 1   
     7    5   11 1   
     8    7    8 1   
     9    8    9 1   
    10    8   10 1   
    11    8   12 1   
@<TRIPOS>SUBSTRUCTURE
     1 ICF         1 TEMP              0 ****  ****    0 ROOT
