@<TRIPOS>MOLECULE
ICI
   18    16     1     0     0
SMALL
bcc


@<TRIPOS>ATOM
      1 C1         -2.1640   -0.2040   -1.0980 c1        1 ICI      0.314000
      2 C2         -0.6680    0.0090   -1.1240 c2        1 ICI      0.006000
      3 C3         -0.1410    0.0560    0.2920 c3        1 ICI     -0.144000
      4 C4          1.1030    0.9160    0.3390 c3        1 ICI     -0.175000
      5 C5          1.5680    1.0530    1.7720 c2        1 ICI      0.322000
      6 C6          0.1970   -1.3450    0.7520 c2        1 ICI      0.338000
      7 O1         -2.9400    0.7870   -1.0400 o         1 ICI     -0.628000
      8 O2         -2.6360   -1.3710   -1.1350 o         1 ICI     -0.628000
      9 O3          2.6270    0.4850    2.1470 o         1 ICI     -0.640000
     10 O4          0.8970    1.7360    2.5890 o         1 ICI     -0.640000
     11 O5         -0.5040   -1.9040    1.6370 o         1 ICI     -0.634500
     12 O6          1.1790   -1.9530    0.2510 o         1 ICI     -0.634500
     13 O7         -0.0560   -1.0520   -1.8170 oh        1 ICI     -0.383000
     14 H2         -0.4660    0.8520   -1.5750 h4        1 ICI      0.078000
     15 H3         -0.8210    0.4370    0.8800 hc        1 ICI      0.108000
     16 H41         0.9020    1.8020   -0.0240 hc        1 ICI      0.058000
     17 H42         1.8090    0.4980   -0.1940 hc        1 ICI      0.058000
     18 HO7         0.1130   -0.8020   -2.6530 ho        1 ICI      0.226000
@<TRIPOS>BOND
     1    1    7 1   
     2    1    8 1   
     3    2    3 1   
     4    2   13 1   
     5    2   14 1   
     6    3    4 1   
     7    3    6 1   
     8    3   15 1   
     9    4    5 1   
    10    4   16 1   
    11    4   17 1   
    12    5    9 1   
    13    5   10 1   
    14    6   11 1   
    15    6   12 1   
    16   13   18 1   
@<TRIPOS>SUBSTRUCTURE
     1 ICI         1 TEMP              0 ****  ****    0 ROOT
