@<TRIPOS>MOLECULE
ICI
   18    17     1     0     0
SMALL
bcc


@<TRIPOS>ATOM
      1 C1         -1.3860    0.1900    1.7780 c         1 ICI      0.894600
      2 C2         -0.7690   -0.4640    0.5230 c3        1 ICI      0.067100
      3 C3          0.3920    0.2940   -0.1380 c3        1 ICI     -0.154700
      4 C4          0.6580   -0.2540   -1.5400 c3        1 ICI     -0.146400
      5 C5         -0.1580    0.2860   -2.7130 c         1 ICI      0.902600
      6 C6          1.7210    0.2200    0.6440 c         1 ICI      0.918600
      7 O1         -1.1900   -0.3350    2.9200 o         1 ICI     -0.893300
      8 O2         -2.1710    1.1830    1.6480 o         1 ICI     -0.893300
      9 O3         -0.1920    1.5260   -2.9870 o         1 ICI     -0.905300
     10 O4         -0.7220   -0.5520   -3.4970 o         1 ICI     -0.905300
     11 O5          2.1880   -0.9000    1.0360 o         1 ICI     -0.899800
     12 O6          2.3830    1.2880    0.8440 o         1 ICI     -0.899800
     13 O7         -0.4290   -1.8140    0.8160 oh        1 ICI     -0.655800
     14 H2         -1.5970   -0.5530   -0.2420 h1        1 ICI      0.038700
     15 H3          0.0900    1.3730   -0.2140 hc        1 ICI      0.068700
     16 H41         1.7310   -0.0420   -1.7990 hc        1 ICI      0.018700
     17 H42         0.5340   -1.3680   -1.5070 hc        1 ICI      0.018700
     18 HO7         0.3150   -1.7640    1.4340 ho        1 ICI      0.427000
@<TRIPOS>BOND
     1    1    2 1   
     2    1    7 1   
     3    1    8 1   
     4    2    3 1   
     5    2   13 1   
     6    2   14 1   
     7    3    4 1   
     8    3    6 1   
     9    3   15 1   
    10    4    5 1   
    11    4   16 1   
    12    4   17 1   
    13    5    9 1   
    14    5   10 1   
    15    6   11 1   
    16    6   12 1   
    17   13   18 1   
@<TRIPOS>SUBSTRUCTURE
     1 ICI         1 TEMP              0 ****  ****    0 ROOT
