@<TRIPOS>MOLECULE
ICI
   18    17     1     0     0
SMALL
bcc


@<TRIPOS>ATOM
      1 C1         -0.0720    0.2560   -0.2610 c         1 ICI      0.894600
      2 C2          1.4400   -0.0250   -0.1250 c3        1 ICI      0.067100
      3 C3          2.0050   -0.0300    1.3040 c3        1 ICI     -0.154700
      4 C4          3.5320    0.0470    1.2760 c3        1 ICI     -0.146400
      5 C5          4.2020    1.4170    1.1810 c         1 ICI      0.902600
      6 C6          1.6230   -1.2770    2.1300 c         1 ICI      0.918600
      7 O1         -0.8570   -0.6850   -0.6020 o         1 ICI     -0.893300
      8 O2         -0.5030    1.4460   -0.1380 o         1 ICI     -0.893300
      9 O3          3.9710    2.3320    2.0320 o         1 ICI     -0.905300
     10 O4          5.0990    1.5930    0.2870 o         1 ICI     -0.905300
     11 O5          1.7970   -2.4500    1.6620 o         1 ICI     -0.899800
     12 O6          1.1870   -1.1260    3.3150 o         1 ICI     -0.899800
     13 O7          1.7620   -1.2180   -0.8310 oh        1 ICI     -0.655800
     14 H2          1.9780    0.7840   -0.7000 h1        1 ICI      0.038700
     15 H3          1.5990    0.8750    1.8300 hc        1 ICI      0.068700
     16 H41         3.8950   -0.5830    0.4220 hc        1 ICI      0.018700
     17 H42         3.9210   -0.4120    2.2250 hc        1 ICI      0.018700
     18 HO7         1.3520   -1.9350   -0.3260 ho        1 ICI      0.427000
@<TRIPOS>BOND
     1    1    2 1   
     2    1    7 1   
     3    1    8 1   
     4    2    3 1   
     5    2   13 1   
     6    2   14 1   
     7    3    4 1   
     8    3    6 1   
     9    3   15 1   
    10    4    5 1   
    11    4   16 1   
    12    4   17 1   
    13    5    9 1   
    14    5   10 1   
    15    6   11 1   
    16    6   12 1   
    17   13   18 1   
@<TRIPOS>SUBSTRUCTURE
     1 ICI         1 TEMP              0 ****  ****    0 ROOT
