@<TRIPOS>MOLECULE
ICJ
   86    88     1     0     0
SMALL
bcc


@<TRIPOS>ATOM
      1 O1          0.9830    0.4490    0.2850 oh        1 ICJ     -0.589800
      2 O2          2.7220   -1.5110    3.7300 oh        1 ICJ     -0.599800
      3 O3         -4.8620   -1.7410   -7.8680 oh        1 ICJ     -0.599800
      4 C01         2.3410    0.0180    0.3040 c3        1 ICJ      0.186300
      5 C02         2.8580   -0.1400    1.7310 c3        1 ICJ     -0.146400
      6 C03         2.1810   -1.3130    2.4290 c3        1 ICJ      0.146100
      7 C04         2.4220   -2.6100    1.6610 c3        1 ICJ     -0.035200
      8 C05         1.9670   -2.4830    0.2450 ce        1 ICJ     -0.073200
      9 C06         1.2100   -3.4510   -0.3120 cf        1 ICJ     -0.108000
     10 C07         0.6830   -3.4190   -1.6570 cf        1 ICJ     -0.150000
     11 C08         0.3150   -4.4900   -2.3810 c2        1 ICJ     -0.081400
     12 C09         0.4810   -5.9120   -1.9500 c3        1 ICJ     -0.044200
     13 C10         2.4110   -1.2810   -0.4590 ce        1 ICJ     -0.070200
     14 C11        -0.7420   -6.7750   -2.2090 c3        1 ICJ     -0.073400
     15 C12        -1.3570   -6.5870   -3.5860 c3        1 ICJ     -0.067400
     16 C13        -1.6060   -5.1140   -3.8700 c3        1 ICJ     -0.040000
     17 C14        -0.2310   -4.3940   -3.7600 c3        1 ICJ     -0.036500
     18 C15        -0.4730   -3.0420   -4.4140 c3        1 ICJ     -0.074400
     19 C16        -1.4910   -3.3290   -5.5200 c3        1 ICJ     -0.078400
     20 C17        -2.0090   -4.7690   -5.3230 c3        1 ICJ     -0.053700
     21 C18        -2.6030   -4.5360   -2.8800 c3        1 ICJ     -0.082100
     22 C19         2.8830   -1.3000   -1.7120 c2        1 ICJ     -0.192000
     23 C20        -3.4880   -4.8980   -5.6730 c3        1 ICJ     -0.053700
     24 C21        -4.0080   -6.3010   -5.4260 c3        1 ICJ     -0.090100
     25 C22        -3.7500   -4.4680   -7.1260 c3        1 ICJ     -0.064700
     26 C23        -5.1940   -4.0110   -7.2990 c3        1 ICJ     -0.073400
     27 C24        -5.3970   -2.5670   -6.8400 c3        1 ICJ      0.142100
     28 C25        -6.8780   -2.2640   -6.5690 c3        1 ICJ     -0.103700
     29 C26        -7.0350   -0.9170   -5.8940 c3        1 ICJ     -0.092600
     30 C27        -7.6980   -2.3200   -7.8390 c3        1 ICJ     -0.092600
     31 C28        -3.4170   -5.5790   -8.1130 c3        1 ICJ     -0.072400
     32 C29        -3.1210   -5.0420   -9.4980 c3        1 ICJ     -0.081400
     33 C30        -2.8410   -6.1680  -10.4730 c3        1 ICJ     -0.080400
     34 C31        -2.5330   -5.6420  -11.8500 c3        1 ICJ     -0.092100
     35 HO1         0.9390    1.2430    0.8310 ho        1 ICJ      0.396000
     36 HO3        -5.0470   -0.8290   -7.6170 ho        1 ICJ      0.398000
     37 H01         2.9670    0.8000   -0.2200 h1        1 ICJ      0.034700
     38 H02         2.6690    0.8020    2.3070 hc        1 ICJ      0.052700
     39 H02A        3.9660   -0.3100    1.7060 hc        1 ICJ      0.052700
     40 H03         1.0750   -1.1130    2.5050 h1        1 ICJ      0.048700
     41 H04         3.5190   -2.8490    1.6810 hc        1 ICJ      0.062200
     42 H04A        1.8880   -3.4450    2.1860 hc        1 ICJ      0.062200
     43 H06         0.9310   -4.3270    0.3020 ha        1 ICJ      0.124000
     44 H07         0.5770   -2.4070   -2.0930 ha        1 ICJ      0.137000
     45 H09         0.7360   -5.9740   -0.8600 hc        1 ICJ      0.046700
     46 H09A        1.3560   -6.3370   -2.5170 hc        1 ICJ      0.046700
     47 H11        -1.5190   -6.5500   -1.4310 hc        1 ICJ      0.040200
     48 H11A       -0.4520   -7.8520   -2.0860 hc        1 ICJ      0.040200
     49 H12        -2.3160   -7.1630   -3.6380 hc        1 ICJ      0.041700
     50 H12A       -0.6710   -7.0060   -4.3680 hc        1 ICJ      0.041700
     51 H14         0.4940   -4.9560   -4.4240 hc        1 ICJ      0.053700
     52 H15        -0.8910   -2.3090   -3.6800 hc        1 ICJ      0.045700
     53 H15A        0.4720   -2.6150   -4.8270 hc        1 ICJ      0.045700
     54 H16        -1.0170   -3.2270   -6.5270 hc        1 ICJ      0.043700
     55 H16A       -2.3360   -2.5970   -5.4630 hc        1 ICJ      0.043700
     56 H17        -1.4320   -5.4550   -6.0050 hc        1 ICJ      0.047700
     57 H18        -3.5290   -5.1590   -2.8470 hc        1 ICJ      0.037033
     58 H18A       -2.1620   -4.5030   -1.8540 hc        1 ICJ      0.037033
     59 H18B       -2.8820   -3.4950   -3.1720 hc        1 ICJ      0.037033
     60 H19         3.2100   -0.3900   -2.2310 ha        1 ICJ      0.120000
     61 H19A        2.9730   -2.2320   -2.2880 ha        1 ICJ      0.120000
     62 H20        -4.0630   -4.1930   -5.0050 hc        1 ICJ      0.047700
     63 H21        -3.2880   -7.0660   -5.8050 hc        1 ICJ      0.033700
     64 H21A       -4.1670   -6.4740   -4.3340 hc        1 ICJ      0.033700
     65 H21B       -4.9870   -6.4530   -5.9440 hc        1 ICJ      0.033700
     66 H22        -3.0920   -3.5840   -7.3650 hc        1 ICJ      0.066700
     67 H23        -5.4810   -4.0790   -8.3820 hc        1 ICJ      0.053200
     68 H23A       -5.8840   -4.6760   -6.7190 hc        1 ICJ      0.053200
     69 H24        -4.8150   -2.3800   -5.8910 h1        1 ICJ      0.032700
     70 H25        -7.2540   -3.0550   -5.8610 hc        1 ICJ      0.054700
     71 H26        -8.0970   -0.7630   -5.5860 hc        1 ICJ      0.036867
     72 H26A       -6.7530   -0.0880   -6.5880 hc        1 ICJ      0.036867
     73 H26B       -6.3900   -0.8550   -4.9850 hc        1 ICJ      0.036867
     74 H27        -7.2700   -1.6300   -8.6070 hc        1 ICJ      0.036867
     75 H27A       -8.7540   -2.0210   -7.6350 hc        1 ICJ      0.036867
     76 H27B       -7.6930   -3.3560   -8.2570 hc        1 ICJ      0.036867
     77 H28        -2.5190   -6.1460   -7.7470 hc        1 ICJ      0.038700
     78 H28A       -4.2690   -6.3070   -8.1640 hc        1 ICJ      0.038700
     79 H29        -3.9880   -4.4330   -9.8670 hc        1 ICJ      0.044700
     80 H29A       -2.2340   -4.3560   -9.4540 hc        1 ICJ      0.044700
     81 H30        -3.7310   -6.8500  -10.5210 hc        1 ICJ      0.036200
     82 H30A       -1.9770   -6.7790  -10.1000 hc        1 ICJ      0.036200
     83 H31        -2.3320   -6.4860  -12.5530 hc        1 ICJ      0.032367
     84 H31A       -3.3920   -5.0480  -12.2470 hc        1 ICJ      0.032367
     85 H31B       -1.6330   -4.9800  -11.8270 hc        1 ICJ      0.032367
     86 HO2         2.5590   -0.6990    4.2230 ho        1 ICJ      0.398000
@<TRIPOS>BOND
     1    1    4 1   
     2    1   35 1   
     3    2    6 1   
     4    2   86 1   
     5    3   27 1   
     6    3   36 1   
     7    4    5 1   
     8    4   13 1   
     9    4   37 1   
    10    5    6 1   
    11    5   38 1   
    12    5   39 1   
    13    6    7 1   
    14    6   40 1   
    15    7    8 1   
    16    7   41 1   
    17    7   42 1   
    18    8    9 2   
    19    8   13 1   
    20    9   10 1   
    21    9   43 1   
    22   10   11 2   
    23   10   44 1   
    24   11   12 1   
    25   11   17 1   
    26   12   14 1   
    27   12   45 1   
    28   12   46 1   
    29   13   22 2   
    30   14   15 1   
    31   14   47 1   
    32   14   48 1   
    33   15   16 1   
    34   15   49 1   
    35   15   50 1   
    36   16   17 1   
    37   16   20 1   
    38   16   21 1   
    39   17   18 1   
    40   17   51 1   
    41   18   19 1   
    42   18   52 1   
    43   18   53 1   
    44   19   20 1   
    45   19   54 1   
    46   19   55 1   
    47   20   23 1   
    48   20   56 1   
    49   21   57 1   
    50   21   58 1   
    51   21   59 1   
    52   22   60 1   
    53   22   61 1   
    54   23   24 1   
    55   23   25 1   
    56   23   62 1   
    57   24   63 1   
    58   24   64 1   
    59   24   65 1   
    60   25   26 1   
    61   25   31 1   
    62   25   66 1   
    63   26   27 1   
    64   26   67 1   
    65   26   68 1   
    66   27   28 1   
    67   27   69 1   
    68   28   29 1   
    69   28   30 1   
    70   28   70 1   
    71   29   71 1   
    72   29   72 1   
    73   29   73 1   
    74   30   74 1   
    75   30   75 1   
    76   30   76 1   
    77   31   32 1   
    78   31   77 1   
    79   31   78 1   
    80   32   33 1   
    81   32   79 1   
    82   32   80 1   
    83   33   34 1   
    84   33   81 1   
    85   33   82 1   
    86   34   83 1   
    87   34   84 1   
    88   34   85 1   
@<TRIPOS>SUBSTRUCTURE
     1 ICJ         1 TEMP              0 ****  ****    0 ROOT
