@<TRIPOS>MOLECULE
ICJ
   86    88     1     0     0
SMALL
bcc


@<TRIPOS>ATOM
      1 O1          0.9810    0.4410    0.2790 oh        1 ICJ     -0.589800
      2 O2          2.6980   -1.5180    3.7360 oh        1 ICJ     -0.599800
      3 O3         -4.8300   -1.7520   -7.8990 oh        1 ICJ     -0.599800
      4 C01         2.3390    0.0070    0.3060 c3        1 ICJ      0.186300
      5 C02         2.8480   -0.1510    1.7350 c3        1 ICJ     -0.146400
      6 C03         2.1650   -1.3210    2.4320 c3        1 ICJ      0.146100
      7 C04         2.4060   -2.6200    1.6670 c3        1 ICJ     -0.035200
      8 C05         1.9580   -2.4940    0.2490 ce        1 ICJ     -0.073200
      9 C06         1.2020   -3.4610   -0.3110 cf        1 ICJ     -0.108000
     10 C07         0.6820   -3.4300   -1.6590 cf        1 ICJ     -0.150000
     11 C08         0.3160   -4.5020   -2.3820 c2        1 ICJ     -0.081400
     12 C09         0.4770   -5.9230   -1.9490 c3        1 ICJ     -0.044200
     13 C10         2.4080   -1.2940   -0.4550 ce        1 ICJ     -0.070200
     14 C11        -0.7460   -6.7840   -2.2130 c3        1 ICJ     -0.073400
     15 C12        -1.3540   -6.5970   -3.5930 c3        1 ICJ     -0.067400
     16 C13        -1.5990   -5.1240   -3.8800 c3        1 ICJ     -0.040000
     17 C14        -0.2240   -4.4070   -3.7640 c3        1 ICJ     -0.036500
     18 C15        -0.4610   -3.0550   -4.4210 c3        1 ICJ     -0.074400
     19 C16        -1.4740   -3.3420   -5.5320 c3        1 ICJ     -0.078400
     20 C17        -1.9940   -4.7810   -5.3360 c3        1 ICJ     -0.053700
     21 C18        -2.6000   -4.5440   -2.8950 c3        1 ICJ     -0.082100
     22 C19         2.8860   -1.3160   -1.7060 c2        1 ICJ     -0.192000
     23 C20        -3.4720   -4.9080   -5.6920 c3        1 ICJ     -0.053700
     24 C21        -3.9950   -6.3100   -5.4470 c3        1 ICJ     -0.090100
     25 C22        -3.7260   -4.4790   -7.1480 c3        1 ICJ     -0.064700
     26 C23        -5.1690   -4.0210   -7.3290 c3        1 ICJ     -0.073400
     27 C24        -5.3720   -2.5760   -6.8730 c3        1 ICJ      0.142100
     28 C25        -6.8540   -2.2700   -6.6100 c3        1 ICJ     -0.103700
     29 C26        -7.0120   -0.9220   -5.9370 c3        1 ICJ     -0.092600
     30 C27        -7.6670   -2.3270   -7.8840 c3        1 ICJ     -0.092600
     31 C28        -3.3890   -5.5920   -8.1320 c3        1 ICJ     -0.072400
     32 C29        -3.0860   -5.0580   -9.5160 c3        1 ICJ     -0.081400
     33 C30        -2.8030   -6.1850  -10.4870 c3        1 ICJ     -0.080400
     34 C31        -2.4860   -5.6610  -11.8640 c3        1 ICJ     -0.092100
     35 HO1         0.9370    1.2360    0.8240 ho        1 ICJ      0.396000
     36 HO3        -5.0160   -0.8390   -7.6500 ho        1 ICJ      0.398000
     37 H01         2.9690    0.7860   -0.2160 h1        1 ICJ      0.034700
     38 H02         3.9550   -0.3240    1.7160 hc        1 ICJ      0.052700
     39 H02A        2.6590    0.7930    2.3090 hc        1 ICJ      0.052700
     40 H03         1.0580   -1.1180    2.5020 h1        1 ICJ      0.048700
     41 H04         3.5030   -2.8620    1.6930 hc        1 ICJ      0.062200
     42 H04A        1.8680   -3.4530    2.1910 hc        1 ICJ      0.062200
     43 H06         0.9180   -4.3350    0.3030 ha        1 ICJ      0.124000
     44 H07         0.5800   -2.4180   -2.0970 ha        1 ICJ      0.137000
     45 H09         1.3540   -6.3500   -2.5110 hc        1 ICJ      0.046700
     46 H09A        0.7270   -5.9840   -0.8570 hc        1 ICJ      0.046700
     47 H11        -0.4580   -7.8610   -2.0870 hc        1 ICJ      0.040200
     48 H11A       -1.5260   -6.5580   -1.4380 hc        1 ICJ      0.040200
     49 H12        -2.3140   -7.1720   -3.6490 hc        1 ICJ      0.041700
     50 H12A       -0.6640   -7.0190   -4.3710 hc        1 ICJ      0.041700
     51 H14         0.5040   -4.9700   -4.4240 hc        1 ICJ      0.053700
     52 H15         0.4870   -2.6300   -4.8300 hc        1 ICJ      0.045700
     53 H15A       -0.8800   -2.3200   -3.6900 hc        1 ICJ      0.045700
     54 H16        -0.9940   -3.2410   -6.5370 hc        1 ICJ      0.043700
     55 H16A       -2.3170   -2.6090   -5.4810 hc        1 ICJ      0.043700
     56 H17        -1.4150   -5.4680   -6.0130 hc        1 ICJ      0.047700
     57 H18        -2.1640   -4.5090   -1.8670 hc        1 ICJ      0.037033
     58 H18A       -3.5270   -5.1650   -2.8670 hc        1 ICJ      0.037033
     59 H18B       -2.8760   -3.5020   -3.1910 hc        1 ICJ      0.037033
     60 H19         2.9770   -2.2480   -2.2800 ha        1 ICJ      0.120000
     61 H19A        3.2180   -0.4080   -2.2240 ha        1 ICJ      0.120000
     62 H20        -4.0490   -4.2010   -5.0280 hc        1 ICJ      0.047700
     63 H21        -4.9720   -6.4610   -5.9690 hc        1 ICJ      0.033700
     64 H21A       -4.1600   -6.4820   -4.3560 hc        1 ICJ      0.033700
     65 H21B       -3.2750   -7.0760   -5.8210 hc        1 ICJ      0.033700
     66 H22        -3.0650   -3.5960   -7.3840 hc        1 ICJ      0.066700
     67 H23        -5.4510   -4.0900   -8.4130 hc        1 ICJ      0.053200
     68 H23A       -5.8620   -4.6840   -6.7510 hc        1 ICJ      0.053200
     69 H24        -4.7940   -2.3880   -5.9210 h1        1 ICJ      0.032700
     70 H25        -7.2340   -3.0600   -5.9020 hc        1 ICJ      0.054700
     71 H26        -6.3710   -0.8600   -5.0250 hc        1 ICJ      0.036867
     72 H26A       -8.0750   -0.7670   -5.6350 hc        1 ICJ      0.036867
     73 H26B       -6.7250   -0.0950   -6.6300 hc        1 ICJ      0.036867
     74 H27        -7.2340   -1.6380   -8.6500 hc        1 ICJ      0.036867
     75 H27A       -8.7240   -2.0260   -7.6850 hc        1 ICJ      0.036867
     76 H27B       -7.6620   -3.3630   -8.3000 hc        1 ICJ      0.036867
     77 H28        -2.4950   -6.1600   -7.7610 hc        1 ICJ      0.038700
     78 H28A       -4.2420   -6.3190   -8.1860 hc        1 ICJ      0.038700
     79 H29        -2.1990   -4.3720   -9.4680 hc        1 ICJ      0.044700
     80 H29A       -3.9500   -4.4480   -9.8900 hc        1 ICJ      0.044700
     81 H30        -1.9410   -6.7960  -10.1100 hc        1 ICJ      0.036200
     82 H30A       -3.6920   -6.8670  -10.5390 hc        1 ICJ      0.036200
     83 H31        -2.2830   -6.5060  -12.5650 hc        1 ICJ      0.032367
     84 H31A       -3.3430   -5.0670  -12.2670 hc        1 ICJ      0.032367
     85 H31B       -1.5870   -5.0000  -11.8380 hc        1 ICJ      0.032367
     86 HO2         2.5350   -0.7050    4.2270 ho        1 ICJ      0.398000
@<TRIPOS>BOND
     1    1    4 1   
     2    1   35 1   
     3    2    6 1   
     4    2   86 1   
     5    3   27 1   
     6    3   36 1   
     7    4    5 1   
     8    4   13 1   
     9    4   37 1   
    10    5    6 1   
    11    5   38 1   
    12    5   39 1   
    13    6    7 1   
    14    6   40 1   
    15    7    8 1   
    16    7   41 1   
    17    7   42 1   
    18    8    9 2   
    19    8   13 1   
    20    9   10 1   
    21    9   43 1   
    22   10   11 2   
    23   10   44 1   
    24   11   12 1   
    25   11   17 1   
    26   12   14 1   
    27   12   45 1   
    28   12   46 1   
    29   13   22 2   
    30   14   15 1   
    31   14   47 1   
    32   14   48 1   
    33   15   16 1   
    34   15   49 1   
    35   15   50 1   
    36   16   17 1   
    37   16   20 1   
    38   16   21 1   
    39   17   18 1   
    40   17   51 1   
    41   18   19 1   
    42   18   52 1   
    43   18   53 1   
    44   19   20 1   
    45   19   54 1   
    46   19   55 1   
    47   20   23 1   
    48   20   56 1   
    49   21   57 1   
    50   21   58 1   
    51   21   59 1   
    52   22   60 1   
    53   22   61 1   
    54   23   24 1   
    55   23   25 1   
    56   23   62 1   
    57   24   63 1   
    58   24   64 1   
    59   24   65 1   
    60   25   26 1   
    61   25   31 1   
    62   25   66 1   
    63   26   27 1   
    64   26   67 1   
    65   26   68 1   
    66   27   28 1   
    67   27   69 1   
    68   28   29 1   
    69   28   30 1   
    70   28   70 1   
    71   29   71 1   
    72   29   72 1   
    73   29   73 1   
    74   30   74 1   
    75   30   75 1   
    76   30   76 1   
    77   31   32 1   
    78   31   77 1   
    79   31   78 1   
    80   32   33 1   
    81   32   79 1   
    82   32   80 1   
    83   33   34 1   
    84   33   81 1   
    85   33   82 1   
    86   34   83 1   
    87   34   84 1   
    88   34   85 1   
@<TRIPOS>SUBSTRUCTURE
     1 ICJ         1 TEMP              0 ****  ****    0 ROOT
