@<TRIPOS>MOLECULE
ICJ
   86    85     1     0     0
SMALL
bcc


@<TRIPOS>ATOM
      1 O1         -0.4870    4.3840    7.9700 oh        1 ICJ     -0.325000
      2 O2         -2.5920    1.3330    6.0090 oh        1 ICJ     -0.323000
      3 O3         -1.6090   -4.0030   -2.9910 oh        1 ICJ     -0.328000
      4 C01        -0.8030    3.3960    6.9630 c3        1 ICJ      0.070000
      5 C02        -2.3820    3.5230    6.4930 c3        1 ICJ     -0.222000
      6 C03        -2.7270    2.7680    5.5420 c3        1 ICJ      0.038000
      7 C04        -1.8430    2.9410    4.1250 c3        1 ICJ     -0.115000
      8 C05        -0.4360    2.8850    4.3880 c2        1 ICJ     -0.066000
      9 C06         0.4570    2.3510    3.4590 c1        1 ICJ     -0.116000
     10 C07        -0.0680    1.7970    2.0990 c1        1 ICJ     -0.157000
     11 C08         0.8330    1.5430    1.0470 c1        1 ICJ     -0.074000
     12 C09         2.4450    1.8330    1.2550 c2        1 ICJ     -0.124000
     13 C10         0.0920    3.4940    5.8640 c2        1 ICJ     -0.084000
     14 C11         3.1860    1.2250    0.1550 c3        1 ICJ     -0.148000
     15 C12         2.4850    0.9520   -0.7770 c3        1 ICJ     -0.145000
     16 C13         1.4910    1.6560   -1.1950 c3        1 ICJ     -0.034000
     17 C14         0.7150    2.1870   -0.0770 c3        1 ICJ     -0.071000
     18 C15        -0.1630    2.3000   -0.3560 c3        1 ICJ     -0.156000
     19 C16        -0.4120    1.1940   -1.5950 c3        1 ICJ     -0.157000
     20 C17         0.6390    0.8010   -1.8570 c3        1 ICJ     -0.097000
     21 C18         1.9620    2.7780   -2.1180 c3        1 ICJ     -0.206000
     22 C19         1.3260    4.0560    5.9990 c1        1 ICJ     -0.185000
     23 C20         0.8370   -0.8250   -1.2660 c3        1 ICJ     -0.088000
     24 C21         2.2250   -1.1060   -1.0960 c3        1 ICJ     -0.209000
     25 C22         0.2630   -1.7640   -2.2190 c3        1 ICJ     -0.100000
     26 C23        -1.2530   -1.8890   -1.9680 c3        1 ICJ     -0.160000
     27 C24        -1.8970   -2.6500   -3.1150 c3        1 ICJ      0.033000
     28 C25        -3.4150   -2.4440   -3.0760 c3        1 ICJ     -0.145000
     29 C26        -4.0710   -3.6330   -2.3880 c3        1 ICJ     -0.208500
     30 C27        -3.9490   -2.3220   -4.4990 c3        1 ICJ     -0.208500
     31 C28         0.9320   -3.1490   -2.0470 c3        1 ICJ     -0.155000
     32 C29         1.6480   -3.5460   -3.3690 c3        1 ICJ     -0.158000
     33 C30         2.1900   -4.9920   -3.2480 c3        1 ICJ     -0.160000
     34 C31         2.8890   -5.3870   -4.5490 c3        1 ICJ     -0.211000
     35 HO1        -0.5130    4.0070    8.7720 ho        1 ICJ      0.198000
     36 HO2        -3.3420    1.0810    6.4150 ho        1 ICJ      0.195000
     37 HO3        -1.8750   -4.4320   -3.7220 ho        1 ICJ      0.198000
     38 H01        -0.6530    2.5650    7.4620 h1        1 ICJ      0.093000
     39 H02        -2.9530    3.3200    7.2700 hc        1 ICJ      0.092000
     40 H02A       -2.5470    4.4460    6.2240 hc        1 ICJ      0.092000
     41 H03        -3.6650    2.9390    5.3410 h1        1 ICJ      0.071000
     42 H04        -2.1270    2.4170    3.3520 hc        1 ICJ      0.102500
     43 H04A       -2.0460    3.8450    3.7960 hc        1 ICJ      0.102500
     44 H06         1.4090    2.3240    3.6600 ha        1 ICJ      0.128000
     45 H07        -1.0160    1.6270    1.9780 ha        1 ICJ      0.131000
     46 H09         2.6250    2.7770    1.4340 ha        1 ICJ      0.087000
     47 H09A        2.7610    1.4280    2.0890 ha        1 ICJ      0.087000
     48 H11         3.8760    1.8480   -0.1420 hc        1 ICJ      0.076500
     49 H11A        3.6180    0.4040    0.4790 hc        1 ICJ      0.076500
     50 H12         2.1270    0.0740   -0.5900 hc        1 ICJ      0.083500
     51 H12A        3.0900    0.8540   -1.5490 hc        1 ICJ      0.083500
     52 H14         1.0680    3.0930    0.0940 hc        1 ICJ      0.096000
     53 H15        -0.7760    2.1190    0.3830 hc        1 ICJ      0.085000
     54 H15A       -0.2950    3.2070   -0.6860 hc        1 ICJ      0.085000
     55 H16        -0.9820    0.4620   -1.2870 hc        1 ICJ      0.080000
     56 H16A       -0.8140    1.6370   -2.3720 hc        1 ICJ      0.080000
     57 H17         0.7930    0.8400   -2.8270 hc        1 ICJ      0.091000
     58 H18         1.1910    3.1580   -2.5920 hc        1 ICJ      0.075333
     59 H18A        2.3960    3.4800   -1.5850 hc        1 ICJ      0.075333
     60 H18B        2.6020    2.4190   -2.7700 hc        1 ICJ      0.075333
     61 H19         1.6130    4.4050    6.8720 DU        1 ICJ      0.134000
     62 H19A        1.9260    4.1120    5.2280 ha        1 ICJ      0.112000
     63 H20         0.3810   -0.9160   -0.4080 hc        1 ICJ      0.087000
     64 H21         2.7530   -0.5250   -1.6910 hc        1 ICJ      0.075000
     65 H21A        2.4810   -0.9390   -0.1620 hc        1 ICJ      0.075000
     66 H21B        2.3970   -2.0420   -1.3180 hc        1 ICJ      0.075000
     67 H22         0.4160   -1.4400   -3.1260 hc        1 ICJ      0.089000
     68 H23        -1.6460   -0.9980   -1.9060 hc        1 ICJ      0.096500
     69 H23A       -1.4050   -2.3700   -1.1340 hc        1 ICJ      0.096500
     70 H24        -1.5450   -2.3200   -3.9620 h1        1 ICJ      0.072000
     71 H25        -3.6210   -1.6250   -2.5790 hc        1 ICJ      0.098000
     72 H26        -3.7070   -3.7290   -1.4850 hc        1 ICJ      0.075167
     73 H26A       -3.8910   -4.4480   -2.9020 hc        1 ICJ      0.075167
     74 H26B       -5.0460   -3.4860   -2.3360 hc        1 ICJ      0.075167
     75 H27        -3.4810   -2.9560   -5.0790 hc        1 ICJ      0.075167
     76 H27A       -3.8010   -1.4120   -4.8250 hc        1 ICJ      0.075167
     77 H27B       -4.9120   -2.5200   -4.5060 hc        1 ICJ      0.075167
     78 H28         1.5830   -3.1070   -1.3240 hc        1 ICJ      0.082000
     79 H28A        0.2500   -3.8160   -1.8330 hc        1 ICJ      0.082000
     80 H29         2.3930   -2.9320   -3.5340 hc        1 ICJ      0.079500
     81 H29A        1.0130   -3.4970   -4.1120 hc        1 ICJ      0.079500
     82 H30         2.8270   -5.0390   -2.5110 hc        1 ICJ      0.078000
     83 H30A        1.4450   -5.6070   -3.0770 hc        1 ICJ      0.078000
     84 H31         3.7830   -4.9840   -4.5750 hc        1 ICJ      0.071667
     85 H31A        2.3660   -5.0670   -5.3100 hc        1 ICJ      0.071667
     86 H31B        2.9680   -6.3680   -4.5940 hc        1 ICJ      0.071667
@<TRIPOS>BOND
     1    1    4 1   
     2    1   35 1   
     3    2    6 1   
     4    2   36 1   
     5    3   27 1   
     6    3   37 1   
     7    4    5 1   
     8    4   13 1   
     9    4   38 1   
    10    5    6 1   
    11    5   39 1   
    12    5   40 1   
    13    6    7 1   
    14    6   41 1   
    15    7    8 1   
    16    7   42 1   
    17    7   43 1   
    18    8    9 1   
    19    8   13 1   
    20    9   44 1   
    21   10   11 1   
    22   10   45 1   
    23   11   17 1   
    24   12   14 1   
    25   12   46 1   
    26   12   47 1   
    27   13   22 1   
    28   14   15 1   
    29   14   48 1   
    30   14   49 1   
    31   15   16 1   
    32   15   50 1   
    33   15   51 1   
    34   16   17 1   
    35   16   20 1   
    36   16   21 1   
    37   17   18 1   
    38   17   52 1   
    39   18   19 1   
    40   18   53 1   
    41   18   54 1   
    42   19   20 1   
    43   19   55 1   
    44   19   56 1   
    45   20   23 1   
    46   20   57 1   
    47   21   58 1   
    48   21   59 1   
    49   21   60 1   
    50   22   62 1   
    51   23   24 1   
    52   23   25 1   
    53   23   63 1   
    54   24   64 1   
    55   24   65 1   
    56   24   66 1   
    57   25   26 1   
    58   25   31 1   
    59   25   67 1   
    60   26   27 1   
    61   26   68 1   
    62   26   69 1   
    63   27   28 1   
    64   27   70 1   
    65   28   29 1   
    66   28   30 1   
    67   28   71 1   
    68   29   72 1   
    69   29   73 1   
    70   29   74 1   
    71   30   75 1   
    72   30   76 1   
    73   30   77 1   
    74   31   32 1   
    75   31   78 1   
    76   31   79 1   
    77   32   33 1   
    78   32   80 1   
    79   32   81 1   
    80   33   34 1   
    81   33   82 1   
    82   33   83 1   
    83   34   84 1   
    84   34   85 1   
    85   34   86 1   
@<TRIPOS>SUBSTRUCTURE
     1 ICJ         1 TEMP              0 ****  ****    0 ROOT
