@<TRIPOS>MOLECULE
ICJ
   86    88     1     0     0
SMALL
bcc


@<TRIPOS>ATOM
      1 O1         -5.6420    2.5230    1.0180 oh        1 ICJ     -0.596800
      2 O2         -8.9150    0.3880   -0.5630 oh        1 ICJ     -0.600800
      3 O3          4.4140    2.6920    1.0560 oh        1 ICJ     -0.595800
      4 C01        -6.1880    1.4280    1.7490 c3        1 ICJ      0.183300
      5 C02        -7.6010    1.2040    1.2210 c3        1 ICJ     -0.069400
      6 C03        -7.5630    0.6120   -0.1820 c3        1 ICJ      0.145100
      7 C04        -6.7790   -0.7000   -0.2060 c3        1 ICJ     -0.075200
      8 C05        -5.4070   -0.5250    0.3510 ce        1 ICJ     -0.068200
      9 C06        -4.3350   -1.0210   -0.3020 cf        1 ICJ     -0.116000
     10 C07        -2.9640   -0.8850    0.1300 cf        1 ICJ     -0.152000
     11 C08        -1.9360   -1.6590   -0.2600 c2        1 ICJ     -0.076400
     12 C09        -2.0530   -2.8600   -1.1410 c3        1 ICJ     -0.044200
     13 C10        -5.3380    0.1880    1.6270 ce        1 ICJ     -0.121200
     14 C11        -0.9930   -2.9240   -2.2280 c3        1 ICJ     -0.073400
     15 C12         0.4130   -2.6170   -1.7450 c3        1 ICJ     -0.067400
     16 C13         0.4450   -1.3080   -0.9710 c3        1 ICJ     -0.040000
     17 C14        -0.5430   -1.4640    0.2200 c3        1 ICJ     -0.038500
     18 C15        -0.1850   -0.3090    1.1440 c3        1 ICJ     -0.073400
     19 C16         1.3250   -0.1350    0.9720 c3        1 ICJ     -0.080400
     20 C17         1.7660   -1.0010   -0.2260 c3        1 ICJ     -0.053700
     21 C18         0.0430   -0.1460   -1.8630 c3        1 ICJ     -0.083100
     22 C19        -4.5930   -0.2330    2.6570 c2        1 ICJ     -0.193000
     23 C20         2.8700   -0.3330   -1.0400 c3        1 ICJ     -0.050700
     24 C21         3.2660   -1.1610   -2.2470 c3        1 ICJ     -0.091100
     25 C22         4.0960   -0.0310   -0.1610 c3        1 ICJ     -0.066700
     26 C23         4.9000    1.1260   -0.7430 c3        1 ICJ     -0.109400
     27 C24         4.3160    2.4800   -0.3430 c3        1 ICJ      0.137100
     28 C25         4.9560    3.6250   -1.1420 c3        1 ICJ     -0.096700
     29 C26         4.1540    4.8960   -0.9490 c3        1 ICJ     -0.093100
     30 C27         6.4030    3.8560   -0.7620 c3        1 ICJ     -0.093100
     31 C28         4.9750   -1.2610    0.0260 c3        1 ICJ     -0.075400
     32 C29         5.8280   -1.1710    1.2740 c3        1 ICJ     -0.079400
     33 C30         6.7180   -2.3870    1.4170 c3        1 ICJ     -0.080400
     34 C31         7.5640   -2.3090    2.6620 c3        1 ICJ     -0.093100
     35 HO1        -4.6890    2.5160    1.1650 ho        1 ICJ      0.404000
     36 HO3         5.3490    2.6450    1.2900 ho        1 ICJ      0.396000
     37 H01        -6.2490    1.7350    2.8350 h1        1 ICJ      0.038700
     38 H02        -8.1470    0.5120    1.9100 hc        1 ICJ      0.067200
     39 H02A       -8.1480    2.1810    1.1930 hc        1 ICJ      0.067200
     40 H03        -7.0880    1.3520   -0.8870 h1        1 ICJ      0.053700
     41 H04        -7.3300   -1.4640    0.4070 hc        1 ICJ      0.053700
     42 H04A       -6.7360   -1.0840   -1.2590 hc        1 ICJ      0.053700
     43 H06        -4.4970   -1.5490   -1.2600 ha        1 ICJ      0.124000
     44 H07        -2.7760   -0.0560    0.8390 ha        1 ICJ      0.128000
     45 H09        -1.9620   -3.7700   -0.4860 hc        1 ICJ      0.047200
     46 H09A       -3.0630   -2.9060   -1.6270 hc        1 ICJ      0.047200
     47 H11        -1.0060   -3.9520   -2.6780 hc        1 ICJ      0.040700
     48 H11A       -1.2630   -2.2030   -3.0450 hc        1 ICJ      0.040700
     49 H12         0.7780   -3.4480   -1.0850 hc        1 ICJ      0.042700
     50 H12A        1.1000   -2.5650   -2.6290 hc        1 ICJ      0.042700
     51 H14        -0.2640   -2.4180    0.7640 hc        1 ICJ      0.054700
     52 H15        -0.7220    0.6260    0.8460 hc        1 ICJ      0.044200
     53 H15A       -0.4540   -0.5360    2.2040 hc        1 ICJ      0.044200
     54 H16         1.5700    0.9420    0.7910 hc        1 ICJ      0.047200
     55 H16A        1.8640   -0.4570    1.8960 hc        1 ICJ      0.047200
     56 H17         2.1680   -1.9780    0.1640 hc        1 ICJ      0.047700
     57 H18        -1.0360   -0.2230   -2.1430 hc        1 ICJ      0.037367
     58 H18A        0.1950    0.8240   -1.3300 hc        1 ICJ      0.037367
     59 H18B        0.6520   -0.1400   -2.7980 hc        1 ICJ      0.037367
     60 H19        -4.5610    0.3030    3.6150 ha        1 ICJ      0.121000
     61 H19A       -3.9810   -1.1430    2.6040 ha        1 ICJ      0.121000
     62 H20         2.4730    0.6560   -1.4110 hc        1 ICJ      0.048700
     63 H21         3.3660   -2.2400   -1.9760 hc        1 ICJ      0.034033
     64 H21A        2.5000   -1.0680   -3.0540 hc        1 ICJ      0.034033
     65 H21B        4.2440   -0.8110   -2.6590 hc        1 ICJ      0.034033
     66 H22         3.7350    0.2950    0.8580 hc        1 ICJ      0.068700
     67 H23         5.9590    1.0650   -0.3770 hc        1 ICJ      0.047200
     68 H23A        4.9270    1.0550   -1.8600 hc        1 ICJ      0.047200
     69 H24         3.2010    2.4860   -0.5270 h1        1 ICJ      0.074700
     70 H25         4.9160    3.3360   -2.2300 hc        1 ICJ      0.050700
     71 H26         4.0750    5.1350    0.1400 hc        1 ICJ      0.037200
     72 H26A        4.6470    5.7500   -1.4710 hc        1 ICJ      0.037200
     73 H26B        3.1240    4.7720   -1.3600 hc        1 ICJ      0.037200
     74 H27         6.9940    2.9140   -0.8630 hc        1 ICJ      0.037200
     75 H27A        6.8550    4.6290   -1.4280 hc        1 ICJ      0.037200
     76 H27B        6.4810    4.2170    0.2930 hc        1 ICJ      0.037200
     77 H28         4.3260   -2.1740    0.0990 hc        1 ICJ      0.041200
     78 H28A        5.6330   -1.3950   -0.8730 hc        1 ICJ      0.041200
     79 H29         6.4620   -0.2460    1.2400 hc        1 ICJ      0.039200
     80 H29A        5.1670   -1.0820    2.1760 hc        1 ICJ      0.039200
     81 H30         6.0840   -3.3120    1.4500 hc        1 ICJ      0.038200
     82 H30A        7.3810   -2.4740    0.5160 hc        1 ICJ      0.038200
     83 H31         8.2110   -3.2150    2.7490 hc        1 ICJ      0.032700
     84 H31A        8.2220   -1.4070    2.6370 hc        1 ICJ      0.032700
     85 H31B        6.9200   -2.2470    3.5730 hc        1 ICJ      0.032700
     86 HO2        -8.8950    0.0560   -1.4680 ho        1 ICJ      0.398000
@<TRIPOS>BOND
     1    1    4 1   
     2    1   35 1   
     3    2    6 1   
     4    2   86 1   
     5    3   27 1   
     6    3   36 1   
     7    4    5 1   
     8    4   13 1   
     9    4   37 1   
    10    5    6 1   
    11    5   38 1   
    12    5   39 1   
    13    6    7 1   
    14    6   40 1   
    15    7    8 1   
    16    7   41 1   
    17    7   42 1   
    18    8    9 2   
    19    8   13 1   
    20    9   10 1   
    21    9   43 1   
    22   10   11 2   
    23   10   44 1   
    24   11   12 1   
    25   11   17 1   
    26   12   14 1   
    27   12   45 1   
    28   12   46 1   
    29   13   22 2   
    30   14   15 1   
    31   14   47 1   
    32   14   48 1   
    33   15   16 1   
    34   15   49 1   
    35   15   50 1   
    36   16   17 1   
    37   16   20 1   
    38   16   21 1   
    39   17   18 1   
    40   17   51 1   
    41   18   19 1   
    42   18   52 1   
    43   18   53 1   
    44   19   20 1   
    45   19   54 1   
    46   19   55 1   
    47   20   23 1   
    48   20   56 1   
    49   21   57 1   
    50   21   58 1   
    51   21   59 1   
    52   22   60 1   
    53   22   61 1   
    54   23   24 1   
    55   23   25 1   
    56   23   62 1   
    57   24   63 1   
    58   24   64 1   
    59   24   65 1   
    60   25   26 1   
    61   25   31 1   
    62   25   66 1   
    63   26   27 1   
    64   26   67 1   
    65   26   68 1   
    66   27   28 1   
    67   27   69 1   
    68   28   29 1   
    69   28   30 1   
    70   28   70 1   
    71   29   71 1   
    72   29   72 1   
    73   29   73 1   
    74   30   74 1   
    75   30   75 1   
    76   30   76 1   
    77   31   32 1   
    78   31   77 1   
    79   31   78 1   
    80   32   33 1   
    81   32   79 1   
    82   32   80 1   
    83   33   34 1   
    84   33   81 1   
    85   33   82 1   
    86   34   83 1   
    87   34   84 1   
    88   34   85 1   
@<TRIPOS>SUBSTRUCTURE
     1 ICJ         1 TEMP              0 ****  ****    0 ROOT
