@<TRIPOS>MOLECULE
ICL
   48    48     1     0     0
SMALL
bcc


@<TRIPOS>ATOM
      1 C1         -0.2850    0.4760    0.0820 c         1 ICL      0.594500
      2 O1         -0.7380    0.9560   -0.9650 o         1 ICL     -0.578100
      3 C2         -1.1140   -0.0460    1.1850 ca        1 ICL     -0.221600
      4 C3         -0.4970   -0.3850    2.4050 ca        1 ICL      0.074400
      5 Cl          1.1830   -0.2420    2.6140 cl        1 ICL     -0.049400
      6 C4         -1.2420   -0.8430    3.4970 ca        1 ICL     -0.133000
      7 C5         -2.6230   -0.9690    3.3850 ca        1 ICL     -0.064000
      8 C6         -3.2670   -0.6600    2.1910 ca        1 ICL     -0.140000
      9 C7         -2.5240   -0.2110    1.0830 ca        1 ICL      0.088600
     10 N1         -3.1750    0.0340   -0.1500 ns        1 ICL     -0.424100
     11 C8         -4.3530    0.7270   -0.2680 c         1 ICL      0.655100
     12 O2         -5.1550    0.9550    0.6600 o         1 ICL     -0.597100
     13 C9         -4.7040    1.2090   -1.7060 c3        1 ICL      0.038500
     14 C10        -3.8150    2.4150   -2.0740 c3        1 ICL     -0.093700
     15 C11        -3.9290    2.7440   -3.5460 c3        1 ICL     -0.118100
     16 C12        -4.1100    3.6260   -1.2170 c3        1 ICL     -0.118100
     17 N2         -6.1650    1.5510   -1.7800 ny        1 ICL     -0.640800
     18 C13        -7.0200    0.4520   -2.3490 c         1 ICL      0.635100
     19 O3         -6.5450   -0.5020   -2.9490 o         1 ICL     -0.439000
     20 O4         -8.3020    0.7280   -2.0970 os        1 ICL     -0.422900
     21 C14        -9.3590   -0.2400   -2.5260 c3        1 ICL      0.200800
     22 C15       -10.6140    0.4560   -2.0200 c3        1 ICL     -0.129433
     23 C16        -9.3420   -0.3550   -4.0340 c3        1 ICL     -0.129433
     24 C17        -9.1270   -1.5650   -1.8340 c3        1 ICL     -0.129433
     25 H1          0.8180    0.4290    0.2450 h4        1 ICL      0.044200
     26 H4         -0.7370   -1.0990    4.4430 ha        1 ICL      0.171000
     27 H5         -3.2130   -1.3190    4.2480 ha        1 ICL      0.161000
     28 H6         -4.3640   -0.7570    2.1230 ha        1 ICL      0.167000
     29 HN1        -2.5880   -0.0190   -0.9640 hn        1 ICL      0.352500
     30 H9         -4.5120    0.3720   -2.4500 hx        1 ICL      0.144700
     31 H10        -2.7480    2.0870   -1.8750 hc        1 ICL      0.124700
     32 H111       -3.1470    3.4980   -3.8160 hc        1 ICL      0.058533
     33 H112       -3.7660    1.8350   -4.1750 hc        1 ICL      0.058533
     34 H113       -4.9230    3.1860   -3.8000 hc        1 ICL      0.058533
     35 H121       -5.0520    4.1370   -1.5330 hc        1 ICL      0.058533
     36 H122       -4.1970    3.3410   -0.1390 hc        1 ICL      0.058533
     37 H123       -3.2760    4.3640   -1.3170 hc        1 ICL      0.058533
     38 HN2        -6.2880    2.3880   -2.3650 hn        1 ICL      0.485300
     39 H151      -10.7270    1.4580   -2.4970 hc        1 ICL      0.072367
     40 H152      -11.4960   -0.1770   -2.2820 hc        1 ICL      0.072367
     41 H153      -10.5720    0.5850   -0.9120 hc        1 ICL      0.072367
     42 H161      -10.2190   -0.9670   -4.3610 hc        1 ICL      0.072367
     43 H162       -8.4080   -0.8570   -4.3870 hc        1 ICL      0.072367
     44 H163       -9.4170    0.6540   -4.5060 hc        1 ICL      0.072367
     45 H171       -8.1990   -2.0580   -2.2150 hc        1 ICL      0.072367
     46 H172       -9.9960   -2.2390   -2.0390 hc        1 ICL      0.072367
     47 H173       -9.0400   -1.4230   -0.7290 hc        1 ICL      0.072367
     48 H22        -6.5080    1.7660   -0.8220 hn        1 ICL      0.485300
@<TRIPOS>BOND
     1    1    2 2   
     2    1    3 1   
     3    1   25 1   
     4    3    4 ar  
     5    3    9 ar  
     6    4    5 1   
     7    4    6 ar  
     8    6    7 ar  
     9    6   26 1   
    10    7    8 ar  
    11    7   27 1   
    12    8    9 ar  
    13    8   28 1   
    14    9   10 1   
    15   10   11 1   
    16   10   29 1   
    17   11   12 2   
    18   11   13 1   
    19   13   14 1   
    20   13   17 1   
    21   13   30 1   
    22   14   15 1   
    23   14   16 1   
    24   14   31 1   
    25   15   32 1   
    26   15   33 1   
    27   15   34 1   
    28   16   35 1   
    29   16   36 1   
    30   16   37 1   
    31   17   18 1   
    32   17   38 1   
    33   17   48 1   
    34   18   19 2   
    35   18   20 1   
    36   20   21 1   
    37   21   22 1   
    38   21   23 1   
    39   21   24 1   
    40   22   39 1   
    41   22   40 1   
    42   22   41 1   
    43   23   42 1   
    44   23   43 1   
    45   23   44 1   
    46   24   45 1   
    47   24   46 1   
    48   24   47 1   
@<TRIPOS>SUBSTRUCTURE
     1 ICL         1 TEMP              0 ****  ****    0 ROOT
