@<TRIPOS>MOLECULE
ICL
   47    47     1     0     0
SMALL
bcc


@<TRIPOS>ATOM
      1 C1          1.4340   -0.8250    3.4500 c         1 ICL      0.587500
      2 O1          2.2650   -1.0300    2.5580 o         1 ICL     -0.556100
      3 C2         -0.0070   -0.6110    3.2390 ca        1 ICL     -0.245600
      4 C3         -0.8790   -0.7920    4.3310 ca        1 ICL      0.079400
      5 CL         -0.2940   -1.3370    5.8390 cl        1 ICL     -0.088400
      6 C4         -2.2460   -0.5510    4.2300 ca        1 ICL     -0.167000
      7 C5         -2.7710   -0.1170    3.0120 ca        1 ICL     -0.067000
      8 C6         -1.9520    0.0540    1.9080 ca        1 ICL     -0.171000
      9 C7         -0.5600   -0.1980    1.9910 ca        1 ICL      0.145600
     10 N1          0.2610   -0.0670    0.8660 n         1 ICL     -0.469100
     11 C8          0.0050    0.7040   -0.2600 c         1 ICL      0.635100
     12 O2         -1.0270    1.3830   -0.4070 o         1 ICL     -0.592100
     13 C9          1.1150    0.6850   -1.3520 c3        1 ICL      0.033700
     14 C10         2.1660    1.7500   -0.9590 c3        1 ICL     -0.061700
     15 C11         3.4360    1.5550   -1.7580 c3        1 ICL     -0.098100
     16 C12         1.6440    3.1620   -1.1140 c3        1 ICL     -0.098100
     17 N2          0.5730    0.8960   -2.6720 n         1 ICL     -0.505900
     18 C13         0.2270   -0.2130   -3.4400 c         1 ICL      0.738100
     19 O3          0.6390   -1.3750   -3.2930 o         1 ICL     -0.588000
     20 O4         -0.6120    0.1280   -4.4700 os        1 ICL     -0.441900
     21 C14        -0.9040   -0.8500   -5.5050 c3        1 ICL      0.185800
     22 C15        -1.7850   -0.0590   -6.4710 c3        1 ICL     -0.114433
     23 C16         0.3710   -1.3010   -6.1960 c3        1 ICL     -0.114433
     24 C17        -1.6750   -2.0240   -4.9250 c3        1 ICL     -0.114433
     25 H1          1.7630   -0.7870    4.5150 h4        1 ICL      0.021200
     26 H4         -2.9070   -0.6990    5.0970 ha        1 ICL      0.154000
     27 H5         -3.8510    0.0830    2.9260 ha        1 ICL      0.146000
     28 H6         -2.3980    0.3920    0.9570 ha        1 ICL      0.178000
     29 HN1         1.1520   -0.5220    0.9080 hn        1 ICL      0.353500
     30 H9          1.6240   -0.3290   -1.3530 h1        1 ICL      0.108700
     31 H10         2.4040    1.5720    0.1300 hc        1 ICL      0.057700
     32 H111        4.2090    2.2890   -1.4220 hc        1 ICL      0.044700
     33 H112        3.8380    0.5230   -1.6130 hc        1 ICL      0.044700
     34 H113        3.2500    1.7130   -2.8480 hc        1 ICL      0.044700
     35 H121        1.6040    3.4580   -2.1900 hc        1 ICL      0.044700
     36 H122        0.6170    3.2510   -0.6800 hc        1 ICL      0.044700
     37 H123        2.3200    3.8750   -0.5830 hc        1 ICL      0.044700
     38 HN2         0.0040    1.7100   -2.7810 hn        1 ICL      0.328500
     39 H151       -2.0850   -0.7230   -7.3140 hc        1 ICL      0.052700
     40 H152       -2.6980    0.3080   -5.9460 hc        1 ICL      0.052700
     41 H153       -1.2250    0.8190   -6.8710 hc        1 ICL      0.052700
     42 H161        0.9650   -0.4140   -6.5220 hc        1 ICL      0.052700
     43 H162        0.9930   -1.9190   -5.5040 hc        1 ICL      0.052700
     44 H163        0.1090   -1.9130   -7.0920 hc        1 ICL      0.052700
     45 H171       -2.5490   -1.6560   -4.3370 hc        1 ICL      0.052700
     46 H172       -2.0420   -2.6720   -5.7560 hc        1 ICL      0.052700
     47 H173       -1.0180   -2.6310   -4.2550 hc        1 ICL      0.052700
@<TRIPOS>BOND
     1    1    2 2   
     2    1    3 1   
     3    1   25 1   
     4    3    4 ar  
     5    3    9 ar  
     6    4    5 1   
     7    4    6 ar  
     8    6    7 ar  
     9    6   26 1   
    10    7    8 ar  
    11    7   27 1   
    12    8    9 ar  
    13    8   28 1   
    14    9   10 1   
    15   10   11 1   
    16   10   29 1   
    17   11   12 2   
    18   11   13 1   
    19   13   14 1   
    20   13   17 1   
    21   13   30 1   
    22   14   15 1   
    23   14   16 1   
    24   14   31 1   
    25   15   32 1   
    26   15   33 1   
    27   15   34 1   
    28   16   35 1   
    29   16   36 1   
    30   16   37 1   
    31   17   18 1   
    32   17   38 1   
    33   18   19 2   
    34   18   20 1   
    35   20   21 1   
    36   21   22 1   
    37   21   23 1   
    38   21   24 1   
    39   22   39 1   
    40   22   40 1   
    41   22   41 1   
    42   23   42 1   
    43   23   43 1   
    44   23   44 1   
    45   24   45 1   
    46   24   46 1   
    47   24   47 1   
@<TRIPOS>SUBSTRUCTURE
     1 ICL         1 TEMP              0 ****  ****    0 ROOT
