@<TRIPOS>MOLECULE
ICL
   48    48     1     0     0
SMALL
bcc


@<TRIPOS>ATOM
      1 C1         -0.2890    0.6670    0.1130 c         1 ICL      0.594500
      2 O1         -0.7540    1.1250   -0.9390 o         1 ICL     -0.578100
      3 C2         -1.1030    0.1160    1.2130 ca        1 ICL     -0.221600
      4 C3         -0.4810   -0.1950    2.4370 ca        1 ICL      0.074400
      5 CL          1.1910    0.0130    2.6540 cl        1 ICL     -0.049400
      6 C4         -1.2140   -0.6780    3.5260 ca        1 ICL     -0.133000
      7 C5         -2.5880   -0.8570    3.4080 ca        1 ICL     -0.064000
      8 C6         -3.2370   -0.5770    2.2090 ca        1 ICL     -0.140000
      9 C7         -2.5060   -0.1030    1.1030 ca        1 ICL      0.088600
     10 N1         -3.1590    0.1130   -0.1340 n         1 ICL     -0.424100
     11 C8         -4.3610    0.7590   -0.2600 c         1 ICL      0.656100
     12 O2         -5.1770    0.9600    0.6620 o         1 ICL     -0.597100
     13 C9         -4.7230    1.2230   -1.7020 c3        1 ICL      0.038500
     14 C10        -3.8790    2.4610   -2.0690 c3        1 ICL     -0.093700
     15 C11        -3.9980    2.7810   -3.5430 c3        1 ICL     -0.118100
     16 C12        -4.2250    3.6630   -1.2180 c3        1 ICL     -0.118100
     17 N2         -6.1960    1.5090   -1.7850 n4        1 ICL     -0.640800
     18 C13        -7.0050    0.3770   -2.3570 c         1 ICL      0.635100
     19 O3         -6.4900   -0.5620   -2.9470 o         1 ICL     -0.439000
     20 O4         -8.2990    0.6070   -2.1190 os        1 ICL     -0.422900
     21 C14        -9.3160   -0.4000   -2.5520 c3        1 ICL      0.200800
     22 C15       -10.5990    0.2530   -2.0620 c3        1 ICL     -0.129433
     23 C16        -9.2790   -0.5210   -4.0600 c3        1 ICL     -0.129433
     24 C17        -9.0430   -1.7130   -1.8510 c3        1 ICL     -0.129433
     25 H1          0.8130    0.6630    0.2820 h4        1 ICL      0.044200
     26 H4         -0.7040   -0.9110    4.4760 ha        1 ICL      0.171000
     27 H5         -3.1690   -1.2280    4.2680 ha        1 ICL      0.161000
     28 H6         -4.3290   -0.7170    2.1350 ha        1 ICL      0.167000
     29 HN1        -2.5660    0.0800   -0.9440 hn        1 ICL      0.352500
     30 H9         -4.4950    0.3930   -2.4420 hx        1 ICL      0.144700
     31 H10        -2.8010    2.1750   -1.8640 hc        1 ICL      0.124700
     32 H111       -3.2440    3.5640   -3.8120 hc        1 ICL      0.058533
     33 H112       -5.0070    3.1830   -3.8040 hc        1 ICL      0.058533
     34 H113       -3.7960    1.8770   -4.1680 hc        1 ICL      0.058533
     35 H121       -5.1840    4.1370   -1.5410 hc        1 ICL      0.058533
     36 H122       -3.4190    4.4330   -1.3160 hc        1 ICL      0.058533
     37 H123       -4.3070    3.3780   -0.1400 hc        1 ICL      0.058533
     38 HN2        -6.5520    1.7120   -0.8300 hn        1 ICL      0.485300
     39 H151      -10.7450    1.2480   -2.5470 hc        1 ICL      0.072367
     40 H152      -11.4560   -0.4140   -2.3290 hc        1 ICL      0.072367
     41 H153      -10.5730    0.3890   -0.9550 hc        1 ICL      0.072367
     42 H161       -8.3250   -0.9920   -4.4010 hc        1 ICL      0.072367
     43 H162      -10.1300   -1.1660   -4.3920 hc        1 ICL      0.072367
     44 H163       -9.3850    0.4820   -4.5380 hc        1 ICL      0.072367
     45 H171       -8.0940   -2.1730   -2.2200 hc        1 ICL      0.072367
     46 H172       -8.9720   -1.5620   -0.7470 hc        1 ICL      0.072367
     47 H173       -9.8840   -2.4180   -2.0620 hc        1 ICL      0.072367
     48 H22        -6.3470    2.3400   -2.3720 hn        1 ICL      0.485300
@<TRIPOS>BOND
     1    1    2 2   
     2    1    3 1   
     3    1   25 1   
     4    3    4 ar  
     5    3    9 ar  
     6    4    5 1   
     7    4    6 ar  
     8    6    7 ar  
     9    6   26 1   
    10    7    8 ar  
    11    7   27 1   
    12    8    9 ar  
    13    8   28 1   
    14    9   10 1   
    15   10   11 1   
    16   10   29 1   
    17   11   12 2   
    18   11   13 1   
    19   13   14 1   
    20   13   17 1   
    21   13   30 1   
    22   14   15 1   
    23   14   16 1   
    24   14   31 1   
    25   15   32 1   
    26   15   33 1   
    27   15   34 1   
    28   16   35 1   
    29   16   36 1   
    30   16   37 1   
    31   17   18 1   
    32   17   38 1   
    33   17   48 1   
    34   18   19 2   
    35   18   20 1   
    36   20   21 1   
    37   21   22 1   
    38   21   23 1   
    39   21   24 1   
    40   22   39 1   
    41   22   40 1   
    42   22   41 1   
    43   23   42 1   
    44   23   43 1   
    45   23   44 1   
    46   24   45 1   
    47   24   46 1   
    48   24   47 1   
@<TRIPOS>SUBSTRUCTURE
     1 ICL         1 TEMP              0 ****  ****    0 ROOT
