@<TRIPOS>MOLECULE
ICL
   49    49     1     0     0
SMALL
bcc


@<TRIPOS>ATOM
      1 C1         -2.0660   -1.0260   -1.4670 c         1 ICL      0.607500
      2 O1         -3.1380   -0.7440   -2.0210 o         1 ICL     -0.596100
      3 C2         -1.8180   -0.7170   -0.0410 ca        1 ICL     -0.194600
      4 C3         -0.4940   -0.6670    0.4300 ca        1 ICL      0.072400
      5 CL          0.8130   -0.9040   -0.6090 cl        1 ICL      0.023600
      6 C4         -0.2170   -0.4080    1.7860 ca        1 ICL     -0.071000
      7 C5         -1.2560   -0.1960    2.6810 ca        1 ICL     -0.058000
      8 C6         -2.5840   -0.2350    2.2460 ca        1 ICL     -0.110000
      9 C7         -2.8610   -0.4890    0.8950 ca        1 ICL     -0.014400
     10 N1         -4.2740   -0.5840    0.4970 n4        1 ICL     -0.529200
     11 C8         -4.9670    0.7460    0.4590 c         1 ICL      0.538100
     12 O2         -5.5970    1.0810    1.4510 o         1 ICL     -0.388100
     13 C9         -4.8700    1.5680   -0.8340 c3        1 ICL      0.063500
     14 C10        -4.0970    2.8830   -0.5590 c3        1 ICL     -0.075700
     15 C11        -3.6410    3.4900   -1.8700 c3        1 ICL     -0.132100
     16 C12        -4.8920    3.8820    0.2520 c3        1 ICL     -0.132100
     17 N2         -6.2480    1.8280   -1.3660 n4        1 ICL     -0.663800
     18 C13        -6.9730    0.5390   -1.7300 c         1 ICL      0.669100
     19 O3         -6.6160   -0.5000   -1.1800 o         1 ICL     -0.516000
     20 O4         -7.9080    0.7820   -2.6180 os        1 ICL     -0.407900
     21 C14        -8.8130   -0.3540   -3.1280 c3        1 ICL      0.228800
     22 C15        -9.6900    0.4270   -4.0850 c3        1 ICL     -0.138767
     23 C16        -7.9330   -1.3650   -3.8180 c3        1 ICL     -0.138767
     24 C17        -9.5670   -0.9070   -1.9460 c3        1 ICL     -0.138767
     25 H1         -1.2370   -1.5240   -2.0230 h4        1 ICL      0.089200
     26 H4          0.8330   -0.3820    2.1360 ha        1 ICL      0.205000
     27 H5         -1.0400    0.0000    3.7490 ha        1 ICL      0.197000
     28 H6         -3.3930   -0.0700    2.9810 ha        1 ICL      0.178000
     29 HN1        -4.7600   -1.1770    1.1930 hn        1 ICL      0.495800
     30 H9         -4.3120    0.9860   -1.6400 hx        1 ICL      0.169700
     31 H10        -3.1840    2.5780    0.0310 hc        1 ICL      0.099700
     32 H111       -2.9700    4.3620   -1.6550 hc        1 ICL      0.073700
     33 H112       -4.5020    3.8690   -2.4710 hc        1 ICL      0.073700
     34 H113       -3.0650    2.7530   -2.4810 hc        1 ICL      0.073700
     35 H121       -4.2020    4.6840    0.6230 hc        1 ICL      0.073700
     36 H122       -5.3680    3.4050    1.1430 hc        1 ICL      0.073700
     37 H123       -5.6770    4.3860   -0.3630 hc        1 ICL      0.073700
     38 HN2        -6.8060    2.3380   -0.6640 hn        1 ICL      0.491300
     39 H151       -9.0810    0.8930   -4.8970 hc        1 ICL      0.083033
     40 H152      -10.4210   -0.2870   -4.5450 hc        1 ICL      0.083033
     41 H153      -10.2560    1.2260   -3.5480 hc        1 ICL      0.083033
     42 H161       -7.3220   -0.8840   -4.6200 hc        1 ICL      0.083033
     43 H162       -8.5850   -2.1430   -4.2930 hc        1 ICL      0.083033
     44 H163       -7.2550   -1.8730   -3.0890 hc        1 ICL      0.083033
     45 H171      -10.1240   -0.0990   -1.4130 hc        1 ICL      0.083033
     46 H172       -8.8770   -1.4170   -1.2310 hc        1 ICL      0.083033
     47 H173      -10.3110   -1.6600   -2.3150 hc        1 ICL      0.083033
     48 H12        -4.3670   -1.0330   -0.4360 hn        1 ICL      0.495800
     49 H22        -6.1670    2.4270   -2.2040 hn        1 ICL      0.491300
@<TRIPOS>BOND
     1    1    2 2   
     2    1    3 1   
     3    1   25 1   
     4    3    4 ar  
     5    3    9 ar  
     6    4    5 1   
     7    4    6 ar  
     8    6    7 ar  
     9    6   26 1   
    10    7    8 ar  
    11    7   27 1   
    12    8    9 ar  
    13    8   28 1   
    14    9   10 1   
    15   10   11 1   
    16   10   29 1   
    17   10   48 1   
    18   11   12 2   
    19   11   13 1   
    20   13   14 1   
    21   13   17 1   
    22   13   30 1   
    23   14   15 1   
    24   14   16 1   
    25   14   31 1   
    26   15   32 1   
    27   15   33 1   
    28   15   34 1   
    29   16   35 1   
    30   16   36 1   
    31   16   37 1   
    32   17   18 1   
    33   17   38 1   
    34   17   49 1   
    35   18   19 2   
    36   18   20 1   
    37   20   21 1   
    38   21   22 1   
    39   21   23 1   
    40   21   24 1   
    41   22   39 1   
    42   22   40 1   
    43   22   41 1   
    44   23   42 1   
    45   23   43 1   
    46   23   44 1   
    47   24   45 1   
    48   24   46 1   
    49   24   47 1   
@<TRIPOS>SUBSTRUCTURE
     1 ICL         1 TEMP              0 ****  ****    0 ROOT
