@<TRIPOS>MOLECULE
ICN
   19    18     1     0     0
SMALL
bcc


@<TRIPOS>ATOM
      1 C1          0.9210    1.8530    0.1190 c3        1 ICN     -0.094100
      2 C2          0.8950    0.4730   -0.4980 c3        1 ICN     -0.087700
      3 C3          2.2490   -0.1940   -0.3740 c3        1 ICN     -0.094100
      4 C4         -0.2160   -0.4100    0.1160 c3        1 ICN      0.226900
      5 C5         -0.0510   -0.6260    1.6190 c3        1 ICN     -0.085100
      6 O6         -0.1900   -1.7140   -0.4620 oh        1 ICN     -0.579800
      7 C7         -1.5240    0.2120   -0.1510 c1        1 ICN      0.180700
      8 N8         -2.5620    0.6900   -0.3560 n1        1 ICN     -0.360800
      9 H11         1.6530    2.4960   -0.4280 hc        1 ICN      0.043700
     10 H12        -0.0860    2.3330    0.0610 hc        1 ICN      0.043700
     11 H13         1.2320    1.8040    1.1910 hc        1 ICN      0.043700
     12 H2          0.6560    0.5800   -1.5960 hc        1 ICN      0.051700
     13 H31         2.6070   -0.1730    0.6840 hc        1 ICN      0.043700
     14 H32         2.1910   -1.2580   -0.7080 hc        1 ICN      0.043700
     15 H33         2.9950    0.3450   -1.0070 hc        1 ICN      0.043700
     16 H51        -0.1390    0.3490    2.1520 hc        1 ICN      0.057700
     17 H52        -0.8400   -1.3240    1.9880 hc        1 ICN      0.057700
     18 H53         0.9490   -1.0770    1.8210 hc        1 ICN      0.057700
     19 H6         -0.2090   -1.6070   -1.4210 ho        1 ICN      0.409000
@<TRIPOS>BOND
     1    1    2 1   
     2    1    9 1   
     3    1   10 1   
     4    1   11 1   
     5    2    3 1   
     6    2    4 1   
     7    2   12 1   
     8    3   13 1   
     9    3   14 1   
    10    3   15 1   
    11    4    5 1   
    12    4    6 1   
    13    4    7 1   
    14    5   16 1   
    15    5   17 1   
    16    5   18 1   
    17    6   19 1   
    18    7    8 3   
@<TRIPOS>SUBSTRUCTURE
     1 ICN         1 TEMP              0 ****  ****    0 ROOT
