@<TRIPOS>MOLECULE
ICN
   19    18     1     0     0
SMALL
bcc


@<TRIPOS>ATOM
      1 C1          0.0570   -0.0770    0.0040 c3        1 ICN     -0.094600
      2 C2          1.5620    0.0540    0.0630 c3        1 ICN     -0.051700
      3 C3          2.0210    1.2970   -0.6700 c3        1 ICN     -0.094600
      4 C4          2.0820    0.0490    1.5200 c3        1 ICN      0.226900
      5 C5          1.6490    1.2760    2.3180 c3        1 ICN     -0.125100
      6 O6          3.5050    0.0080    1.4120 oh        1 ICN     -0.581800
      7 C7          1.6160   -1.1630    2.2130 c1        1 ICN      0.181700
      8 N8          1.2610   -2.1200    2.7680 n1        1 ICN     -0.361800
      9 H11        -0.4420    0.8110    0.4600 hc        1 ICN      0.042533
     10 H12        -0.2680   -0.1490   -1.0630 hc        1 ICN      0.042533
     11 H13        -0.2870   -0.9940    0.5390 hc        1 ICN      0.042533
     12 H2          2.0260   -0.8420   -0.4400 hc        1 ICN      0.071700
     13 H31         1.8050    1.1920   -1.7600 hc        1 ICN      0.042533
     14 H32         3.1200    1.4420   -0.5320 hc        1 ICN      0.042533
     15 H33         1.4880    2.2030   -0.2920 hc        1 ICN      0.042533
     16 H51         2.0930    2.1910    1.8570 hc        1 ICN      0.055367
     17 H52         0.5370    1.3660    2.3180 hc        1 ICN      0.055367
     18 H53         2.0040    1.1980    3.3740 hc        1 ICN      0.055367
     19 H6          3.8640    0.0780    2.3060 ho        1 ICN      0.409000
@<TRIPOS>BOND
     1    1    2 1   
     2    1    9 1   
     3    1   10 1   
     4    1   11 1   
     5    2    3 1   
     6    2    4 1   
     7    2   12 1   
     8    3   13 1   
     9    3   14 1   
    10    3   15 1   
    11    4    5 1   
    12    4    6 1   
    13    4    7 1   
    14    5   16 1   
    15    5   17 1   
    16    5   18 1   
    17    6   19 1   
    18    7    8 3   
@<TRIPOS>SUBSTRUCTURE
     1 ICN         1 TEMP              0 ****  ****    0 ROOT
