@<TRIPOS>MOLECULE
ICN
   19    18     1     0     0
SMALL
bcc


@<TRIPOS>ATOM
      1 C1          0.0520   -0.0700    0.0090 c3        1 ICN     -0.094600
      2 C2          1.5580    0.0580    0.0620 c3        1 ICN     -0.051700
      3 C3          2.0150    1.3040   -0.6670 c3        1 ICN     -0.094600
      4 C4          2.0840    0.0440    1.5160 c3        1 ICN      0.226900
      5 C5          1.6590    1.2690    2.3220 c3        1 ICN     -0.125100
      6 O6          3.5070   -0.0000    1.4010 oh        1 ICN     -0.581800
      7 C7          1.6190   -1.1690    2.2060 c1        1 ICN      0.181700
      8 N8          1.2630   -2.1280    2.7570 n1        1 ICN     -0.361800
      9 H11        -0.4440    0.8170    0.4730 hc        1 ICN      0.042533
     10 H12        -0.2780   -0.1350   -1.0570 hc        1 ICN      0.042533
     11 H13        -0.2920   -0.9890    0.5410 hc        1 ICN      0.042533
     12 H2          2.0170   -0.8370   -0.4490 hc        1 ICN      0.071700
     13 H31         1.7940    1.2040   -1.7580 hc        1 ICN      0.042533
     14 H32         3.1150    1.4460   -0.5340 hc        1 ICN      0.042533
     15 H33         1.4860    2.2090   -0.2830 hc        1 ICN      0.042533
     16 H51         2.1030    2.1850    1.8630 hc        1 ICN      0.055367
     17 H52         0.5470    1.3630    2.3270 hc        1 ICN      0.055367
     18 H53         2.0180    1.1850    3.3750 hc        1 ICN      0.055367
     19 H6          3.8700    0.0640    2.2930 ho        1 ICN      0.409000
@<TRIPOS>BOND
     1    1    2 1   
     2    1    9 1   
     3    1   10 1   
     4    1   11 1   
     5    2    3 1   
     6    2    4 1   
     7    2   12 1   
     8    3   13 1   
     9    3   14 1   
    10    3   15 1   
    11    4    5 1   
    12    4    6 1   
    13    4    7 1   
    14    5   16 1   
    15    5   17 1   
    16    5   18 1   
    17    6   19 1   
    18    7    8 3   
@<TRIPOS>SUBSTRUCTURE
     1 ICN         1 TEMP              0 ****  ****    0 ROOT
