@<TRIPOS>MOLECULE
ICN
   19    18     1     0     0
SMALL
bcc


@<TRIPOS>ATOM
      1 C1          0.0040   -0.0460   -0.0730 c3        1 ICN     -0.094600
      2 C2          1.5130    0.0470   -0.0200 c3        1 ICN     -0.051700
      3 C3          2.0000    1.2760   -0.7590 c3        1 ICN     -0.094600
      4 C4          2.0390    0.0320    1.4340 c3        1 ICN      0.226900
      5 C5          1.6400    1.2720    2.2310 c3        1 ICN     -0.125100
      6 O6          3.4600   -0.0450    1.3200 oh        1 ICN     -0.581800
      7 C7          1.5460   -1.1660    2.1330 c1        1 ICN      0.181700
      8 N8          1.1690   -2.1130    2.6910 n1        1 ICN     -0.361800
      9 H11        -0.4700    0.8570    0.3840 hc        1 ICN      0.042533
     10 H12        -0.3270   -0.1130   -1.1380 hc        1 ICN      0.042533
     11 H13        -0.3610   -0.9520    0.4680 hc        1 ICN      0.042533
     12 H2          1.9510   -0.8630   -0.5230 hc        1 ICN      0.071700
     13 H31         3.1030    1.3930   -0.6270 hc        1 ICN      0.042533
     14 H32         1.4920    2.1960   -0.3810 hc        1 ICN      0.042533
     15 H33         1.7760    1.1730   -1.8480 hc        1 ICN      0.042533
     16 H51         2.1040    2.1740    1.7660 hc        1 ICN      0.055367
     17 H52         0.5310    1.3890    2.2360 hc        1 ICN      0.055367
     18 H53         1.9990    1.1880    3.2850 hc        1 ICN      0.055367
     19 H6          3.8240    0.0180    2.2120 ho        1 ICN      0.409000
@<TRIPOS>BOND
     1    1    2 1   
     2    1    9 1   
     3    1   10 1   
     4    1   11 1   
     5    2    3 1   
     6    2    4 1   
     7    2   12 1   
     8    3   13 1   
     9    3   14 1   
    10    3   15 1   
    11    4    5 1   
    12    4    6 1   
    13    4    7 1   
    14    5   16 1   
    15    5   17 1   
    16    5   18 1   
    17    6   19 1   
    18    7    8 3   
@<TRIPOS>SUBSTRUCTURE
     1 ICN         1 TEMP              0 ****  ****    0 ROOT
