@<TRIPOS>MOLECULE
ICN
   19    18     1     0     0
SMALL
bcc


@<TRIPOS>ATOM
      1 C1         -1.6500   -0.0840   -0.7550 c3        1 ICN     -0.094100
      2 C2         -0.1380   -0.0430   -0.7430 c3        1 ICN     -0.045700
      3 C3          0.3360    1.2500   -1.3710 c3        1 ICN     -0.094100
      4 C4          0.3580   -0.1220    0.6840 c3        1 ICN      0.224900
      5 C5          0.3860   -1.5670    1.1290 c3        1 ICN     -0.127100
      6 O6         -0.5040    0.6100    1.5210 oh        1 ICN     -0.576800
      7 C7          1.7520    0.4580    0.7660 c1        1 ICN      0.180700
      8 N8          2.8030    0.8960    0.8280 n1        1 ICN     -0.360800
      9 H11        -1.9690   -0.1350   -1.6800 hc        1 ICN      0.043700
     10 H12        -1.9590   -0.8710   -0.2590 hc        1 ICN      0.043700
     11 H13        -2.0020    0.7270   -0.3320 hc        1 ICN      0.043700
     12 H2          0.2120   -0.7990   -1.2520 hc        1 ICN      0.054700
     13 H31         1.2800    1.1650   -1.6200 hc        1 ICN      0.043700
     14 H32         0.2320    1.9820   -0.7290 hc        1 ICN      0.043700
     15 H33        -0.1970    1.4390   -2.1720 hc        1 ICN      0.043700
     16 H51        -0.5320   -1.8920    1.2400 hc        1 ICN      0.055367
     17 H52         0.8450   -2.1080    0.4520 hc        1 ICN      0.055367
     18 H53         0.8640   -1.6370    1.9820 hc        1 ICN      0.055367
     19 H6         -0.1170    0.7310    2.3120 ho        1 ICN      0.409000
@<TRIPOS>BOND
     1    1    2 1   
     2    1    9 1   
     3    1   10 1   
     4    1   11 1   
     5    2    3 1   
     6    2    4 1   
     7    2   12 1   
     8    3   13 1   
     9    3   14 1   
    10    3   15 1   
    11    4    5 1   
    12    4    6 1   
    13    4    7 1   
    14    5   16 1   
    15    5   17 1   
    16    5   18 1   
    17    6   19 1   
    18    7    8 3   
@<TRIPOS>SUBSTRUCTURE
     1 ICN         1 TEMP              0 ****  ****    0 ROOT
