@<TRIPOS>MOLECULE
ICO
   18    19     1     0     0
SMALL
bcc


@<TRIPOS>ATOM
      1 CAA        -0.0070    0.0230   -0.0230 ca        1 ICO     -0.061800
      2 CAD         1.3840   -0.0010   -0.0350 ca        1 ICO     -0.061000
      3 CAI         2.0620   -0.0090    1.1810 ca        1 ICO     -0.188000
      4 CAJ         1.3690    0.0140    2.4000 ca        1 ICO     -0.136000
      5 CAF        -0.0200    0.0490    2.4500 ca        1 ICO     -0.168000
      6 CAB        -0.7180    0.0560    1.2370 ca        1 ICO     -0.077200
      7 NAE        -2.0950    0.1660    0.9670 na        1 ICO     -0.202400
      8 CAG        -2.2450    0.0640   -0.4410 cc        1 ICO     -0.137100
      9 CAC        -1.0130    0.0260   -1.0740 cd        1 ICO     -0.137400
     10 CAH        -0.7670   -0.0150   -2.5560 c         1 ICO      0.927800
     11 OAL        -1.7750   -0.0300   -3.3200 o         1 ICO     -0.837300
     12 OAK         0.4290   -0.0370   -2.9660 o         1 ICO     -0.837300
     13 HAD         1.9010   -0.0150   -1.0090 ha        1 ICO      0.176000
     14 HAI         3.1600   -0.0330    1.1910 ha        1 ICO      0.109000
     15 HAJ         1.9390    0.0030    3.3410 ha        1 ICO      0.102000
     16 HAF        -0.5490    0.0730    3.4110 ha        1 ICO      0.108000
     17 HAE        -2.7620   -0.2250    1.5820 hn        1 ICO      0.252700
     18 HAG        -3.2370    0.0810   -0.8960 h4        1 ICO      0.167000
@<TRIPOS>BOND
     1    1    2 ar  
     2    1    6 ar  
     3    1    9 1   
     4    2    3 ar  
     5    2   13 1   
     6    3    4 ar  
     7    3   14 1   
     8    4    5 ar  
     9    4   15 1   
    10    5    6 ar  
    11    5   16 1   
    12    6    7 1   
    13    7    8 1   
    14    7   17 1   
    15    8    9 2   
    16    8   18 1   
    17    9   10 1   
    18   10   11 1   
    19   10   12 1   
@<TRIPOS>SUBSTRUCTURE
     1 ICO         1 TEMP              0 ****  ****    0 ROOT
