@<TRIPOS>MOLECULE
ICO
   18    19     1     0     0
SMALL
bcc


@<TRIPOS>ATOM
      1 CAA        -0.3660    0.1920    0.0150 ca        1 ICO     -0.061800
      2 CAD        -0.9010    1.4760   -0.0010 ca        1 ICO     -0.061000
      3 CAI        -2.2850    1.6240   -0.0110 ca        1 ICO     -0.188000
      4 CAJ        -3.1350    0.5090    0.0000 ca        1 ICO     -0.136000
      5 CAF        -2.6370   -0.7890    0.0270 ca        1 ICO     -0.168000
      6 CAB        -1.2480   -0.9560    0.0370 ca        1 ICO     -0.077200
      7 NAE        -0.4600   -2.1180    0.1390 na        1 ICO     -0.202400
      8 CAG         0.8940   -1.7040    0.0450 cc        1 ICO     -0.137100
      9 CAC         0.9950   -0.3220    0.0180 cd        1 ICO     -0.137400
     10 CAH         2.2610    0.4850   -0.0130 c         1 ICO      0.927800
     11 OAL         3.3600   -0.1430   -0.0300 o         1 ICO     -0.837300
     12 OAK         2.1710    1.7460   -0.0250 o         1 ICO     -0.837300
     13 HAD        -0.2060    2.3340   -0.0060 ha        1 ICO      0.176000
     14 HAI        -2.7240    2.6310   -0.0280 ha        1 ICO      0.109000
     15 HAJ        -4.2230    0.6650   -0.0130 ha        1 ICO      0.102000
     16 HAF        -3.3140   -1.6520    0.0420 ha        1 ICO      0.108000
     17 HAE        -0.7640   -2.9690   -0.2590 hn        1 ICO      0.252700
     18 HAG         1.7010   -2.4380    0.0590 h4        1 ICO      0.167000
@<TRIPOS>BOND
     1    1    2 ar  
     2    1    6 ar  
     3    1    9 1   
     4    2    3 ar  
     5    2   13 1   
     6    3    4 ar  
     7    3   14 1   
     8    4    5 ar  
     9    4   15 1   
    10    5    6 ar  
    11    5   16 1   
    12    6    7 1   
    13    7    8 1   
    14    7   17 1   
    15    8    9 2   
    16    8   18 1   
    17    9   10 1   
    18   10   11 1   
    19   10   12 1   
@<TRIPOS>SUBSTRUCTURE
     1 ICO         1 TEMP              0 ****  ****    0 ROOT
