@<TRIPOS>MOLECULE
ICO
   18    11     1     0     0
SMALL
bcc


@<TRIPOS>ATOM
      1 CAA         0.1580    0.0150   -0.2890 c1        1 ICO     -0.041000
      2 CAD         1.5630    0.0280   -0.3010 c1        1 ICO     -0.138250
      3 CAI         2.2670    0.0280    0.8940 c1        1 ICO     -0.138250
      4 CAJ         1.5840    0.0150    2.1030 c1        1 ICO     -0.138250
      5 CAF         0.1970    0.0030    2.1150 c1        1 ICO     -0.138250
      6 CAB        -0.5170    0.0030    0.9050 c1        1 ICO     -0.041000
      7 NAE        -1.8730   -0.0070    0.6290 n1        1 ICO     -0.225000
      8 CAG        -2.0290   -0.0010   -0.7290 c1        1 ICO     -0.110000
      9 CAC        -0.7740    0.0120   -1.3040 c1        1 ICO     -0.130000
     10 CAH        -0.7540   -0.0380   -2.8150 c1        1 ICO      0.378000
     11 OAL        -0.5710    1.0160   -3.4780 o         1 ICO     -0.572000
     12 OAK        -0.9110   -1.1370   -3.4110 o         1 ICO     -0.572000
     13 HAD         2.0440    0.0360   -1.1510 ha        1 ICO      0.123750
     14 HAI         3.2430    0.0410    0.8860 ha        1 ICO      0.123750
     15 HAJ         2.0790    0.0150    2.9440 ha        1 ICO      0.123750
     16 HAF        -0.2840   -0.0060    2.9650 ha        1 ICO      0.123750
     17 HAE        -2.5450   -0.0160    1.2450 DU        1 ICO      0.185000
     18 HAG        -2.8790   -0.0070   -1.2080 DU        1 ICO      0.185000
@<TRIPOS>BOND
     1    1    6 1   
     2    2    3 1   
     3    2   13 1   
     4    3   14 1   
     5    4    5 1   
     6    4   15 1   
     7    5   16 1   
     8    7    8 1   
     9    8    9 1   
    10   10   11 1   
    11   10   12 1   
@<TRIPOS>SUBSTRUCTURE
     1 ICO         1 TEMP              0 ****  ****    0 ROOT
