@<TRIPOS>MOLECULE
ICP
   16    16     1     0     0
SMALL
bcc


@<TRIPOS>ATOM
      1 N1A        -0.0370    0.1240   -0.0230 nc        1 ICP     -0.689000
      2 C2A         1.3950    0.0050   -0.0080 cc        1 ICP      0.651300
      3 CM2         2.0270    0.0090   -1.3790 c3        1 ICP     -0.122400
      4 N3A         2.1460   -0.1000    1.0590 nd        1 ICP     -0.737000
      5 C4A         1.5370   -0.1030    2.3610 cd        1 ICP      0.664600
      6 N4A         2.2170   -0.2030    3.4610 n2        1 ICP     -0.757100
      7 C5A         0.0460    0.0180    2.4290 cd        1 ICP     -0.334200
      8 C6A        -0.6300    0.1260    1.1280 cd        1 ICP      0.509500
      9 C7A        -0.6490    0.0280    3.5760 c2        1 ICP     -0.088000
     10 HM21        1.7720    0.9640   -1.9010 hc        1 ICP      0.065700
     11 HM22        1.6220   -0.8470   -1.9740 hc        1 ICP      0.065700
     12 HM23        3.1380   -0.0850   -1.3150 hc        1 ICP      0.065700
     13 HN4         3.2090   -0.2810    3.3680 hn        1 ICP      0.408400
     14 H6A1       -1.7360    0.2170    1.1350 h4        1 ICP      0.031800
     15 H7A1       -1.7450    0.1180    3.5840 ha        1 ICP      0.134000
     16 H7A2       -0.1730   -0.0510    4.5640 ha        1 ICP      0.134000
@<TRIPOS>BOND
     1    1    2 1   
     2    1    8 2   
     3    2    3 1   
     4    2    4 2   
     5    3   10 1   
     6    3   11 1   
     7    3   12 1   
     8    4    5 1   
     9    5    6 2   
    10    5    7 1   
    11    6   13 1   
    12    7    8 1   
    13    7    9 2   
    14    8   14 1   
    15    9   15 1   
    16    9   16 1   
@<TRIPOS>SUBSTRUCTURE
     1 ICP         1 TEMP              0 ****  ****    0 ROOT
