@<TRIPOS>MOLECULE
ICP
   16    16     1     0     0
SMALL
bcc


@<TRIPOS>ATOM
      1 N1A         1.2890    0.1540    1.0860 nc        1 ICP     -0.689000
      2 C2A        -0.0880    0.0070    1.4680 cc        1 ICP      0.651300
      3 CM2        -0.3170    0.0060    2.9600 c3        1 ICP     -0.122400
      4 N3A        -1.1030   -0.1200    0.6500 nd        1 ICP     -0.737000
      5 C4A        -0.8780   -0.1190   -0.7690 cd        1 ICP      0.664600
      6 N4A        -1.8330   -0.2390   -1.6380 n2        1 ICP     -0.757100
      7 C5A         0.5340    0.0310   -1.2480 cd        1 ICP     -0.334200
      8 C6A         1.5410    0.1610   -0.1840 cd        1 ICP      0.509500
      9 C7A         0.8840    0.0480   -2.5420 c2        1 ICP     -0.088000
     10 HM21        0.2540   -0.8380    3.4210 hc        1 ICP      0.065700
     11 HM22        0.0530    0.9690    3.3900 hc        1 ICP      0.065700
     12 HM23       -1.4000   -0.1110    3.2060 hc        1 ICP      0.065700
     13 HN4        -2.7590   -0.3370   -1.2750 hn        1 ICP      0.408400
     14 H6A1        2.5990    0.2730   -0.4960 h4        1 ICP      0.031800
     15 H7A1        1.9330    0.1600   -2.8530 ha        1 ICP      0.134000
     16 H7A2        0.1550   -0.0460   -3.3600 ha        1 ICP      0.134000
@<TRIPOS>BOND
     1    1    2 1   
     2    1    8 2   
     3    2    3 1   
     4    2    4 2   
     5    3   10 1   
     6    3   11 1   
     7    3   12 1   
     8    4    5 1   
     9    5    6 2   
    10    5    7 1   
    11    6   13 1   
    12    7    8 1   
    13    7    9 2   
    14    8   14 1   
    15    9   15 1   
    16    9   16 1   
@<TRIPOS>SUBSTRUCTURE
     1 ICP         1 TEMP              0 ****  ****    0 ROOT
