@<TRIPOS>MOLECULE
ICP
   16    16     1     0     0
SMALL
bcc


@<TRIPOS>ATOM
      1 N1A        -0.0430    0.1040   -0.0210 nc        1 ICP     -0.689000
      2 C2A         1.3900   -0.0040   -0.0100 cc        1 ICP      0.651300
      3 CM2         2.0170   -0.0100   -1.3830 c3        1 ICP     -0.122400
      4 N3A         2.1460   -0.0930    1.0550 nd        1 ICP     -0.737000
      5 C4A         1.5420   -0.0860    2.3590 cd        1 ICP      0.664600
      6 N4A         2.2260   -0.1700    3.4580 n2        1 ICP     -0.757100
      7 C5A         0.0500    0.0230    2.4320 cd        1 ICP     -0.334200
      8 C6A        -0.6320    0.1140    1.1320 cd        1 ICP      0.509500
      9 C7A        -0.6410    0.0400    3.5810 c2        1 ICP     -0.088000
     10 HM21        1.7540    0.9390   -1.9130 hc        1 ICP      0.065700
     11 HM22        1.6160   -0.8740   -1.9680 hc        1 ICP      0.065700
     12 HM23        3.1290   -0.0970   -1.3230 hc        1 ICP      0.065700
     13 HN4         3.2180   -0.2410    3.3620 hn        1 ICP      0.408400
     14 H6A1       -1.7370    0.1970    1.1420 h4        1 ICP      0.031800
     15 H7A1       -1.7380    0.1220    3.5930 ha        1 ICP      0.134000
     16 H7A2       -0.1610   -0.0260    4.5690 ha        1 ICP      0.134000
@<TRIPOS>BOND
     1    1    2 1   
     2    1    8 2   
     3    2    3 1   
     4    2    4 2   
     5    3   10 1   
     6    3   11 1   
     7    3   12 1   
     8    4    5 1   
     9    5    6 2   
    10    5    7 1   
    11    6   13 1   
    12    7    8 1   
    13    7    9 2   
    14    8   14 1   
    15    9   15 1   
    16    9   16 1   
@<TRIPOS>SUBSTRUCTURE
     1 ICP         1 TEMP              0 ****  ****    0 ROOT
