@<TRIPOS>MOLECULE
ICP
   16    12     1     0     0
SMALL
bcc


@<TRIPOS>ATOM
      1 N1A        -0.9350    0.1590   -1.3490 n1        1 ICP     -0.182000
      2 C2A         0.5270    0.1590   -1.3490 c1        1 ICP      0.069000
      3 CM2         1.2830    0.1620   -2.6590 c3        1 ICP     -0.165000
      4 N3A         1.2590    0.1590   -0.0840 n1        1 ICP     -0.230000
      5 C4A         0.5600    0.0030    1.1410 c1        1 ICP      0.071000
      6 N4A         1.2140    0.0090    2.2720 n1        1 ICP     -0.225000
      7 C5A        -0.9080   -0.0790    1.1400 c2        1 ICP     -0.161000
      8 C6A        -1.6450    0.0020   -0.1300 c2        1 ICP      0.006000
      9 C7A        -1.5690   -0.3260    2.2880 c1        1 ICP     -0.088000
     10 HM21        0.6550    0.2820   -3.3970 hc        1 ICP      0.105000
     11 HM22        1.9300    0.8920   -2.6600 hc        1 ICP      0.105000
     12 HM23        1.7510   -0.6880   -2.7660 hc        1 ICP      0.105000
     13 HN4         2.1190    0.1140    2.2750 DU        1 ICP      0.140500
     14 H6A1       -2.6200   -0.0250   -0.1310 h4        1 ICP      0.161000
     15 H7A1       -2.5440   -0.3800    2.2880 DU        1 ICP      0.140500
     16 H7A2       -1.0740   -0.4450    3.1210 ha        1 ICP      0.151000
@<TRIPOS>BOND
     1    1    8 1   
     2    2    3 1   
     3    2    4 1   
     4    3   10 1   
     5    3   11 1   
     6    3   12 1   
     7    5    6 1   
     8    5    7 1   
     9    7    8 1   
    10    7    9 1   
    11    8   14 1   
    12    9   16 1   
@<TRIPOS>SUBSTRUCTURE
     1 ICP         1 TEMP              0 ****  ****    0 ROOT
