@<TRIPOS>MOLECULE
ICP
   16    16     1     0     0
SMALL
bcc


@<TRIPOS>ATOM
      1 N1A        -0.0430    0.0920   -0.0220 nc        1 ICP     -0.689000
      2 C2A         1.3900   -0.0090   -0.0100 cc        1 ICP      0.651300
      3 CM2         2.0180   -0.0220   -1.3830 c3        1 ICP     -0.122400
      4 N3A         2.1470   -0.0850    1.0560 nd        1 ICP     -0.737000
      5 C4A         1.5420   -0.0720    2.3600 cd        1 ICP      0.664600
      6 N4A         2.2270   -0.1440    3.4590 n2        1 ICP     -0.757100
      7 C5A         0.0500    0.0300    2.4320 cd        1 ICP     -0.334200
      8 C6A        -0.6320    0.1070    1.1310 cd        1 ICP      0.509500
      9 C7A        -0.6410    0.0530    3.5810 c2        1 ICP     -0.088000
     10 HM21        1.7490    0.9210   -1.9210 hc        1 ICP      0.065700
     11 HM22        1.6210   -0.8930   -1.9620 hc        1 ICP      0.065700
     12 HM23        3.1300   -0.1020   -1.3220 hc        1 ICP      0.065700
     13 HN4         3.2190   -0.2110    3.3640 hn        1 ICP      0.408400
     14 H6A1       -1.7380    0.1840    1.1400 h4        1 ICP      0.031800
     15 H7A1       -1.7390    0.1290    3.5910 ha        1 ICP      0.134000
     16 H7A2       -0.1610   -0.0030    4.5680 ha        1 ICP      0.134000
@<TRIPOS>BOND
     1    1    2 1   
     2    1    8 2   
     3    2    3 1   
     4    2    4 2   
     5    3   10 1   
     6    3   11 1   
     7    3   12 1   
     8    4    5 1   
     9    5    6 2   
    10    5    7 1   
    11    6   13 1   
    12    7    8 1   
    13    7    9 2   
    14    8   14 1   
    15    9   15 1   
    16    9   16 1   
@<TRIPOS>SUBSTRUCTURE
     1 ICP         1 TEMP              0 ****  ****    0 ROOT
