@<TRIPOS>MOLECULE
ICR
   33    34     1     0     0
SMALL
bcc


@<TRIPOS>ATOM
      1 O6'        -5.9150    0.3580    0.3220 o         1 ICR     -0.934833
      2 P          -4.6720    0.3080   -0.5170 p5        1 ICR      1.335900
      3 O7'        -4.6480   -0.6800   -1.6490 o         1 ICR     -0.934833
      4 O8'        -4.0300    1.6440   -0.8340 o         1 ICR     -0.934833
      5 O5'        -3.4840   -0.3290    0.5720 os        1 ICR     -0.569200
      6 C5'        -2.2450   -0.5310    0.0190 c3        1 ICR      0.232400
      7 C4'        -1.2440    0.5320    0.5280 c3        1 ICR      0.067100
      8 O4'         0.0460   -0.0800    0.7310 os        1 ICR     -0.456600
      9 C3'        -1.0500    1.7160   -0.4370 c3        1 ICR      0.122100
     10 O3'        -1.7110    2.8700    0.0290 oh        1 ICR     -0.691800
     11 C2'         0.4710    1.9880   -0.4540 c3        1 ICR      0.106100
     12 O2'         0.8390    3.2650    0.0210 oh        1 ICR     -0.611800
     13 C1'         1.0890    0.8810    0.4690 c3        1 ICR      0.388300
     14 N1          2.2560    0.2420   -0.0900 nh        1 ICR     -0.712600
     15 C2          2.1720   -0.6750   -1.1850 c2        1 ICR      0.565100
     16 N3          3.1260   -1.5690   -1.2710 n2        1 ICR     -0.604900
     17 C4          3.9840   -1.4110   -0.0930 c3        1 ICR     -0.106800
     18 C7          5.5100   -1.1910   -0.2860 c         1 ICR      0.937600
     19 O9          6.1840   -1.2060    0.7900 o         1 ICR     -0.841300
     20 O8          6.0150   -1.0410   -1.4260 o         1 ICR     -0.841300
     21 C5          3.3710   -0.2100    0.7050 c2        1 ICR      0.600200
     22 N6          3.7990    0.3160    1.8020 n2        1 ICR     -0.854100
     23 H5'1       -2.2950   -0.5020   -1.1060 h1        1 ICR      0.003700
     24 H5'2       -1.8480   -1.5390    0.3400 h1        1 ICR      0.003700
     25 H4'        -1.5910    0.9140    1.5270 h1        1 ICR      0.054700
     26 H3'        -1.4210    1.4560   -1.4650 h1        1 ICR      0.077700
     27 H1         -2.6760    2.6980   -0.1170 ho        1 ICR      0.514000
     28 H2'         0.8810    1.9370   -1.4970 h1        1 ICR      0.063700
     29 H3          0.1780    3.5330    0.6740 ho        1 ICR      0.416000
     30 H1'         1.3820    1.3480    1.4560 h2        1 ICR      0.073700
     31 H2          1.3350   -0.5690   -1.8910 h5        1 ICR      0.053800
     32 H4          3.8810   -2.3430    0.5310 h1        1 ICR      0.065700
     33 HN6         4.6570   -0.1090    2.1030 hn        1 ICR      0.414400
@<TRIPOS>BOND
     1    1    2 1   
     2    2    3 1   
     3    2    4 1   
     4    2    5 1   
     5    5    6 1   
     6    6    7 1   
     7    6   23 1   
     8    6   24 1   
     9    7    8 1   
    10    7    9 1   
    11    7   25 1   
    12    8   13 1   
    13    9   10 1   
    14    9   11 1   
    15    9   26 1   
    16   10   27 1   
    17   11   12 1   
    18   11   13 1   
    19   11   28 1   
    20   12   29 1   
    21   13   14 1   
    22   13   30 1   
    23   14   15 1   
    24   14   21 1   
    25   15   16 2   
    26   15   31 1   
    27   16   17 1   
    28   17   18 1   
    29   17   21 1   
    30   17   32 1   
    31   18   19 1   
    32   18   20 1   
    33   21   22 2   
    34   22   33 1   
@<TRIPOS>SUBSTRUCTURE
     1 ICR         1 TEMP              0 ****  ****    0 ROOT
