@<TRIPOS>MOLECULE
ICR
   33    34     1     0     0
SMALL
bcc


@<TRIPOS>ATOM
      1 O6'         1.7050   -1.3260   -1.3710 o         1 ICR     -0.934833
      2 P           2.6560   -0.4870   -0.5670 p5        1 ICR      1.335900
      3 O7'         2.5620   -0.5890    0.9290 o         1 ICR     -0.934833
      4 O8'         4.0700   -0.3860   -1.1040 o         1 ICR     -0.934833
      5 O5'         2.1160    1.1300   -0.8750 os        1 ICR     -0.569200
      6 C5'         2.8000    2.1050   -0.1950 c3        1 ICR      0.232400
      7 C4'         3.7240    2.8890   -1.1560 c3        1 ICR      0.067100
      8 O4'         3.7260    4.2850   -0.7900 os        1 ICR     -0.456600
      9 C3'         5.1860    2.4060   -1.1460 c3        1 ICR      0.122100
     10 O3'         5.4860    1.6590   -2.3020 oh        1 ICR     -0.691800
     11 C2'         6.0440    3.6900   -1.1470 c3        1 ICR      0.106100
     12 O2'         6.8700    3.8370   -2.2830 oh        1 ICR     -0.611800
     13 C1'         5.0100    4.8670   -1.0910 c3        1 ICR      0.388300
     14 N1          5.3500    5.8950   -0.1350 nh        1 ICR     -0.712600
     15 C2          5.2420    5.6900    1.2760 c2        1 ICR      0.565100
     16 N3          5.0510    6.7610    2.0070 n2        1 ICR     -0.604900
     17 C4          4.8960    7.8960    1.0920 c3        1 ICR     -0.106800
     18 C7          5.8150    9.1390    1.2590 c         1 ICR      0.937600
     19 O9          5.5120   10.1210    0.5130 o         1 ICR     -0.841300
     20 O8          6.7560    9.1560    2.0900 o         1 ICR     -0.841300
     21 C5          5.0720    7.2950   -0.3440 c2        1 ICR      0.600200
     22 N6          5.0440    7.9150   -1.4740 n2        1 ICR     -0.854100
     23 H5'1        3.4080    1.6630    0.6440 h1        1 ICR      0.003700
     24 H5'2        2.0680    2.8480    0.2390 h1        1 ICR      0.003700
     25 H4'         3.3120    2.8200   -2.2000 h1        1 ICR      0.054700
     26 H3'         5.3940    1.7870   -0.2310 h1        1 ICR      0.077700
     27 H1          5.0270    0.7890   -2.1820 ho        1 ICR      0.514000
     28 H2'         6.7470    3.7100   -0.2730 h1        1 ICR      0.063700
     29 H3          6.4280    3.3970   -3.0220 ho        1 ICR      0.416000
     30 H1'         4.9400    5.3450   -2.1120 h2        1 ICR      0.073700
     31 H2          5.3410    4.6660    1.6630 h5        1 ICR      0.053800
     32 H4          3.8400    8.2750    1.1940 h1        1 ICR      0.065700
     33 HN6         4.9410    8.9060   -1.3460 hn        1 ICR      0.414400
@<TRIPOS>BOND
     1    1    2 1   
     2    2    3 1   
     3    2    4 1   
     4    2    5 1   
     5    5    6 1   
     6    6    7 1   
     7    6   23 1   
     8    6   24 1   
     9    7    8 1   
    10    7    9 1   
    11    7   25 1   
    12    8   13 1   
    13    9   10 1   
    14    9   11 1   
    15    9   26 1   
    16   10   27 1   
    17   11   12 1   
    18   11   13 1   
    19   11   28 1   
    20   12   29 1   
    21   13   14 1   
    22   13   30 1   
    23   14   15 1   
    24   14   21 1   
    25   15   16 2   
    26   15   31 1   
    27   16   17 1   
    28   17   18 1   
    29   17   21 1   
    30   17   32 1   
    31   18   19 1   
    32   18   20 1   
    33   21   22 2   
    34   22   33 1   
@<TRIPOS>SUBSTRUCTURE
     1 ICR         1 TEMP              0 ****  ****    0 ROOT
