@<TRIPOS>MOLECULE
ICR
   33    34     1     0     0
SMALL
bcc


@<TRIPOS>ATOM
      1 O6'         1.5950   -1.3330   -1.2090 o         1 ICR     -0.934833
      2 P           2.5870   -0.4900   -0.4630 p5        1 ICR      1.335900
      3 O7'         2.5730   -0.5800    1.0370 o         1 ICR     -0.934833
      4 O8'         3.9700   -0.3930   -1.0750 o         1 ICR     -0.934833
      5 O5'         2.0320    1.1260   -0.7540 os        1 ICR     -0.569200
      6 C5'         2.7500    2.1060   -0.1170 c3        1 ICR      0.232400
      7 C4'         3.6220    2.8830   -1.1310 c3        1 ICR      0.067100
      8 O4'         3.6430    4.2800   -0.7760 os        1 ICR     -0.456600
      9 C3'         5.0830    2.3980   -1.1960 c3        1 ICR      0.122100
     10 O3'         5.3210    1.6430   -2.3610 oh        1 ICR     -0.691800
     11 C2'         5.9400    3.6820   -1.2520 c3        1 ICR      0.106100
     12 O2'         6.7040    3.8200   -2.4310 oh        1 ICR     -0.611800
     13 C1'         4.9100    4.8610   -1.1490 c3        1 ICR      0.388300
     14 N1          5.3000    5.8950   -0.2200 nh        1 ICR     -0.712600
     15 C2          5.2670    5.7000    1.1960 c2        1 ICR      0.565100
     16 N3          5.1150    6.7760    1.9290 n2        1 ICR     -0.604900
     17 C4          4.9120    7.9050    1.0160 c3        1 ICR     -0.107800
     18 C7          5.8380    9.1480    1.1240 c         1 ICR      0.937600
     19 O9          5.4970   10.1250    0.3890 o         1 ICR     -0.841300
     20 O8          6.8220    9.1700    1.9050 o         1 ICR     -0.841300
     21 C5          5.0110    7.2930   -0.4230 c2        1 ICR      0.600200
     22 N6          4.9240    7.9060   -1.5550 n2        1 ICR     -0.854100
     23 H5'1        2.0420    2.8520    0.3490 h1        1 ICR      0.003700
     24 H5'2        3.4010    1.6690    0.6910 h1        1 ICR      0.003700
     25 H4'         3.1550    2.8060   -2.1510 h1        1 ICR      0.054700
     26 H3'         5.3390    1.7860   -0.2890 h1        1 ICR      0.077700
     27 H1          4.8680    0.7740   -2.2100 ho        1 ICR      0.514000
     28 H2'         6.6880    3.7080   -0.4160 h1        1 ICR      0.063700
     29 H3          6.2240    3.3760   -3.1420 ho        1 ICR      0.416000
     30 H1'         4.7860    5.3300   -2.1680 h2        1 ICR      0.073700
     31 H2          5.3860    4.6780    1.5850 h5        1 ICR      0.053800
     32 H4          3.8630    8.2850    1.1700 h1        1 ICR      0.065700
     33 HN6         4.8280    8.8970   -1.4290 hn        1 ICR      0.414400
@<TRIPOS>BOND
     1    1    2 1   
     2    2    3 1   
     3    2    4 1   
     4    2    5 1   
     5    5    6 1   
     6    6    7 1   
     7    6   23 1   
     8    6   24 1   
     9    7    8 1   
    10    7    9 1   
    11    7   25 1   
    12    8   13 1   
    13    9   10 1   
    14    9   11 1   
    15    9   26 1   
    16   10   27 1   
    17   11   12 1   
    18   11   13 1   
    19   11   28 1   
    20   12   29 1   
    21   13   14 1   
    22   13   30 1   
    23   14   15 1   
    24   14   21 1   
    25   15   16 2   
    26   15   31 1   
    27   16   17 1   
    28   17   18 1   
    29   17   21 1   
    30   17   32 1   
    31   18   19 1   
    32   18   20 1   
    33   21   22 2   
    34   22   33 1   
@<TRIPOS>SUBSTRUCTURE
     1 ICR         1 TEMP              0 ****  ****    0 ROOT
