@<TRIPOS>MOLECULE
ICR
   33    34     1     0     0
SMALL
bcc


@<TRIPOS>ATOM
      1 O6'         1.7780   -1.5510   -1.1000 o         1 ICR     -0.936500
      2 P           2.8710   -0.7220   -0.4890 p5        1 ICR      1.330900
      3 O7'         3.2090   -1.0000    0.9500 o         1 ICR     -0.936500
      4 O8'         4.0630   -0.4190   -1.3730 o         1 ICR     -0.936500
      5 O5'         2.1730    0.8670   -0.4110 os        1 ICR     -0.566200
      6 C5'         2.9910    1.8170    0.1430 c3        1 ICR      0.233400
      7 C4'         3.5610    2.7560   -0.9470 c3        1 ICR      0.066100
      8 O4'         3.5410    4.1140   -0.4470 os        1 ICR     -0.454600
      9 C3'         5.0100    2.4230   -1.3670 c3        1 ICR      0.160100
     10 O3'         5.0520    1.8880   -2.6670 oh        1 ICR     -0.646800
     11 C2'         5.7680    3.7670   -1.2990 c3        1 ICR      0.103100
     12 O2'         6.4100    4.0690   -2.5220 oh        1 ICR     -0.581800
     13 C1'         4.6670    4.8310   -0.9740 c3        1 ICR      0.385300
     14 N1          5.1050    5.8550   -0.0480 nh        1 ICR     -0.728600
     15 C2          4.7260    5.8540    1.3300 c2        1 ICR      0.574100
     16 N3          4.6590    7.0260    1.9130 n2        1 ICR     -0.609900
     17 C4          4.9190    8.0440    0.8900 c3        1 ICR     -0.106800
     18 C7          6.0420    9.0950    1.1220 c         1 ICR      0.937600
     19 O9          6.1020   10.0020    0.2350 o         1 ICR     -0.838800
     20 O8          6.7940    9.0430    2.1260 o         1 ICR     -0.838800
     21 C5          5.2050    7.2420   -0.4230 c2        1 ICR      0.591200
     22 N6          5.5370    7.6940   -1.5850 n2        1 ICR     -0.862100
     23 H5'1        2.3940    2.4620    0.8540 h1        1 ICR      0.000200
     24 H5'2        3.8370    1.3390    0.7130 h1        1 ICR      0.000200
     25 H4'         2.8920    2.7290   -1.8500 h1        1 ICR      0.062700
     26 H3'         5.4670    1.6920   -0.6450 h1        1 ICR      0.075700
     27 H1          4.7080    0.9700   -2.5740 ho        1 ICR      0.490000
     28 H2'         6.5420    3.7220   -0.4850 h1        1 ICR      0.033700
     29 H3          6.6490    5.0050   -2.4680 ho        1 ICR      0.391000
     30 H1'         4.3430    5.3200   -1.9420 h2        1 ICR      0.060700
     31 H2          4.5250    4.8840    1.8100 h5        1 ICR      0.066800
     32 H4          3.9710    8.6360    0.7470 h1        1 ICR      0.062700
     33 HN6         5.6490    8.6920   -1.5750 hn        1 ICR      0.418400
@<TRIPOS>BOND
     1    1    2 1   
     2    2    3 1   
     3    2    4 1   
     4    2    5 1   
     5    5    6 1   
     6    6    7 1   
     7    6   23 1   
     8    6   24 1   
     9    7    8 1   
    10    7    9 1   
    11    7   25 1   
    12    8   13 1   
    13    9   10 1   
    14    9   11 1   
    15    9   26 1   
    16   10   27 1   
    17   11   12 1   
    18   11   13 1   
    19   11   28 1   
    20   12   29 1   
    21   13   14 1   
    22   13   30 1   
    23   14   15 1   
    24   14   21 1   
    25   15   16 2   
    26   15   31 1   
    27   16   17 1   
    28   17   18 1   
    29   17   21 1   
    30   17   32 1   
    31   18   19 1   
    32   18   20 1   
    33   21   22 2   
    34   22   33 1   
@<TRIPOS>SUBSTRUCTURE
     1 ICR         1 TEMP              0 ****  ****    0 ROOT
