@<TRIPOS>MOLECULE
ICT
   18    17     1     0     0
SMALL
bcc


@<TRIPOS>ATOM
      1 C1         -0.0540   -0.3870   -0.0810 c         1 ICT      0.894600
      2 O1         -0.8310   -0.2330    0.9150 o         1 ICT     -0.893300
      3 O2         -0.4900   -0.8690   -1.1740 o         1 ICT     -0.893300
      4 C2          1.4560   -0.1090    0.0820 c3        1 ICT      0.067100
      5 O7          1.7930   -0.1350    1.4640 oh        1 ICT     -0.655800
      6 C3          1.9970    1.1460   -0.6200 c3        1 ICT     -0.154700
      7 C4          3.5230    1.1050   -0.6890 c3        1 ICT     -0.146400
      8 C5          4.1920    0.3600   -1.8430 c         1 ICT      0.902600
      9 O3          3.9460    0.6500   -3.0550 o         1 ICT     -0.905300
     10 O4          5.1040   -0.4930   -1.5670 o         1 ICT     -0.905300
     11 C6          1.6030    2.4720    0.0660 c         1 ICT      0.918600
     12 O5          1.7880    2.6420    1.3160 o         1 ICT     -0.899800
     13 O6          1.1460    3.4250   -0.6420 o         1 ICT     -0.899800
     14 H2          2.0030   -1.0000   -0.3470 h1        1 ICT      0.038700
     15 HO7         1.3750    0.6510    1.8460 ho        1 ICT      0.427000
     16 H3          1.5800    1.1550   -1.6620 hc        1 ICT      0.068700
     17 H41         3.8970    2.1630   -0.7580 hc        1 ICT      0.018700
     18 H42         3.9030    0.6750    0.2760 hc        1 ICT      0.018700
@<TRIPOS>BOND
     1    1    2 1   
     2    1    3 1   
     3    1    4 1   
     4    4    5 1   
     5    4    6 1   
     6    4   14 1   
     7    5   15 1   
     8    6    7 1   
     9    6   11 1   
    10    6   16 1   
    11    7    8 1   
    12    7   17 1   
    13    7   18 1   
    14    8    9 1   
    15    8   10 1   
    16   11   12 1   
    17   11   13 1   
@<TRIPOS>SUBSTRUCTURE
     1 ICT         1 TEMP              0 ****  ****    0 ROOT
