@<TRIPOS>MOLECULE
ICT
   18    17     1     0     0
SMALL
bcc


@<TRIPOS>ATOM
      1 C1         -1.3850    0.1820    1.7810 c         1 ICT      0.894600
      2 O1         -1.1860   -0.3460    2.9210 o         1 ICT     -0.893300
      3 O2         -2.1720    1.1730    1.6540 o         1 ICT     -0.893300
      4 C2         -0.7680   -0.4680    0.5230 c3        1 ICT      0.067100
      5 O7         -0.4230   -1.8180    0.8120 oh        1 ICT     -0.655800
      6 C3          0.3910    0.2940   -0.1380 c3        1 ICT     -0.154700
      7 C4          0.6570   -0.2490   -1.5420 c3        1 ICT     -0.146400
      8 C5         -0.1620    0.2910   -2.7120 c         1 ICT      0.902600
      9 O3         -0.2000    1.5320   -2.9830 o         1 ICT     -0.905300
     10 O4         -0.7250   -0.5470   -3.4970 o         1 ICT     -0.905300
     11 C6          1.7210    0.2230    0.6420 c         1 ICT      0.918600
     12 O5          2.1920   -0.8970    1.0310 o         1 ICT     -0.899800
     13 O6          2.3810    1.2920    0.8440 o         1 ICT     -0.899800
     14 H2         -1.5950   -0.5570   -0.2410 h1        1 ICT      0.038700
     15 HO7         0.3220   -1.7670    1.4300 ho        1 ICT      0.427000
     16 H3          0.0860    1.3730   -0.2100 hc        1 ICT      0.068700
     17 H41         1.7290   -0.0330   -1.8010 hc        1 ICT      0.018700
     18 H42         0.5350   -1.3640   -1.5110 hc        1 ICT      0.018700
@<TRIPOS>BOND
     1    1    2 1   
     2    1    3 1   
     3    1    4 1   
     4    4    5 1   
     5    4    6 1   
     6    4   14 1   
     7    5   15 1   
     8    6    7 1   
     9    6   11 1   
    10    6   16 1   
    11    7    8 1   
    12    7   17 1   
    13    7   18 1   
    14    8    9 1   
    15    8   10 1   
    16   11   12 1   
    17   11   13 1   
@<TRIPOS>SUBSTRUCTURE
     1 ICT         1 TEMP              0 ****  ****    0 ROOT
