@<TRIPOS>MOLECULE
ICU
   31    31     1     0     0
SMALL
bcc


@<TRIPOS>ATOM
      1 C1          0.2440    2.2460    0.6470 c         1 ICU      0.912200
      2 O1          0.1860    2.3750   -0.6120 o         1 ICU     -0.831300
      3 OXT         0.1380    3.2140    1.4480 o         1 ICU     -0.831300
      4 C2          0.4880    0.8600    1.2360 ca        1 ICU     -0.072600
      5 C3          0.9230    0.8000    2.5620 ca        1 ICU     -0.160000
      6 C4          1.2230   -0.4280    3.1840 ca        1 ICU      0.091600
      7 N1          1.5920   -0.4820    4.5450 nh        1 ICU     -0.803200
      8 C5          1.0840   -1.6140    2.4320 ca        1 ICU     -0.198000
      9 C6          0.6390   -1.5540    1.1170 ca        1 ICU     -0.107000
     10 C7          0.3250   -0.3330    0.5130 ca        1 ICU     -0.101300
     11 C8         -0.1790   -0.2840   -0.8990 c3        1 ICU      0.189400
     12 O2          0.9220    0.0790   -1.7410 os        1 ICU     -0.422900
     13 C9          0.6580    1.0080   -2.7250 c         1 ICU      0.693100
     14 O3         -0.4510    0.9900   -3.2600 o         1 ICU     -0.564000
     15 C10         1.8290    1.8730   -3.0290 c3        1 ICU     -0.152100
     16 C11        -0.7060   -1.6290   -1.3710 c         1 ICU      0.622100
     17 O4         -0.1340   -2.5630   -1.9360 o         1 ICU     -0.558000
     18 O5         -2.0490   -1.7760   -1.1230 os        1 ICU     -0.433900
     19 C12        -2.6520   -2.9910   -1.5530 c3        1 ICU      0.129700
     20 H3          1.0120    1.7550    3.1100 ha        1 ICU      0.159000
     21 HN11        2.2430   -1.2160    4.7310 hn        1 ICU      0.362300
     22 HN12        1.9340    0.3960    4.8770 hn        1 ICU      0.362300
     23 H5          1.3210   -2.5890    2.8800 ha        1 ICU      0.112000
     24 H6          0.5430   -2.4900    0.5440 ha        1 ICU      0.124000
     25 H8         -1.0040    0.4870   -0.9900 h1        1 ICU      0.141700
     26 H101        1.7510    2.2700   -4.0670 hc        1 ICU      0.073367
     27 H102        1.7940    2.7160   -2.2870 hc        1 ICU      0.073367
     28 H103        2.7830    1.3100   -2.9000 hc        1 ICU      0.073367
     29 H121       -3.7250   -2.8760   -1.2610 h1        1 ICU      0.038700
     30 H122       -2.5410   -3.1040   -2.6590 h1        1 ICU      0.038700
     31 H123       -2.1800   -3.8590   -1.0340 h1        1 ICU      0.038700
@<TRIPOS>BOND
     1    1    2 1   
     2    1    3 1   
     3    1    4 1   
     4    4    5 ar  
     5    4   10 ar  
     6    5    6 ar  
     7    5   20 1   
     8    6    7 1   
     9    6    8 ar  
    10    7   21 1   
    11    7   22 1   
    12    8    9 ar  
    13    8   23 1   
    14    9   10 ar  
    15    9   24 1   
    16   10   11 1   
    17   11   12 1   
    18   11   16 1   
    19   11   25 1   
    20   12   13 1   
    21   13   14 2   
    22   13   15 1   
    23   15   26 1   
    24   15   27 1   
    25   15   28 1   
    26   16   17 2   
    27   16   18 1   
    28   18   19 1   
    29   19   29 1   
    30   19   30 1   
    31   19   31 1   
@<TRIPOS>SUBSTRUCTURE
     1 ICU         1 TEMP              0 ****  ****    0 ROOT
