@<TRIPOS>MOLECULE
ICU
   31    31     1     0     0
SMALL
bcc


@<TRIPOS>ATOM
      1 C1          0.0300   -1.7630   -0.8710 c         1 ICU      0.912200
      2 O1          1.2260   -2.0790   -1.1460 o         1 ICU     -0.830800
      3 OXT        -0.6210   -2.2660    0.0840 o         1 ICU     -0.830800
      4 C2         -0.6780   -0.7350   -1.7470 ca        1 ICU     -0.071600
      5 C3         -2.0740   -0.7540   -1.7530 ca        1 ICU     -0.159000
      6 C4         -2.8190    0.1460   -2.5420 ca        1 ICU      0.092600
      7 N1         -4.2270    0.0720   -2.5920 nh        1 ICU     -0.803200
      8 C5         -2.1210    1.0820   -3.3350 ca        1 ICU     -0.200000
      9 C6         -0.7320    1.0980   -3.3290 ca        1 ICU     -0.106000
     10 C7         -0.0010    0.2130   -2.5320 ca        1 ICU     -0.103300
     11 C8          1.4990    0.2620   -2.5040 c3        1 ICU      0.189400
     12 O2          1.9820   -0.7760   -3.3650 os        1 ICU     -0.421900
     13 C9          3.0360   -1.5260   -2.8860 c         1 ICU      0.693100
     14 O3          3.8800   -0.9640   -2.1860 o         1 ICU     -0.565000
     15 C10         3.0040   -2.9330   -3.3650 c3        1 ICU     -0.151100
     16 C11         2.0420    1.5860   -3.0130 c         1 ICU      0.622100
     17 O4          2.3700    1.9390   -4.1470 o         1 ICU     -0.557000
     18 O5          2.1930    2.5070   -2.0040 os        1 ICU     -0.434900
     19 C12         2.7290    3.7740   -2.3660 c3        1 ICU      0.129700
     20 H3         -2.5740   -1.4980   -1.1100 ha        1 ICU      0.157000
     21 HN11       -4.6090   -0.3860   -1.7900 hn        1 ICU      0.362300
     22 HN12       -4.6480    0.9670   -2.7290 hn        1 ICU      0.362300
     23 H5         -2.6680    1.7930   -3.9700 ha        1 ICU      0.112000
     24 H6         -0.2030    1.8230   -3.9700 ha        1 ICU      0.124000
     25 H8          1.8730    0.0920   -1.4480 h1        1 ICU      0.139700
     26 H101        4.0320   -3.3630   -3.3540 hc        1 ICU      0.074033
     27 H102        2.3410   -3.4910   -2.6490 hc        1 ICU      0.074033
     28 H103        2.5690   -2.9940   -4.3900 hc        1 ICU      0.074033
     29 H121        2.7750    4.3340   -1.4000 h1        1 ICU      0.038367
     30 H122        2.0560    4.2810   -3.0990 h1        1 ICU      0.038367
     31 H123        3.7460    3.6480   -2.8120 h1        1 ICU      0.038367
@<TRIPOS>BOND
     1    1    2 1   
     2    1    3 1   
     3    1    4 1   
     4    4    5 ar  
     5    4   10 ar  
     6    5    6 ar  
     7    5   20 1   
     8    6    7 1   
     9    6    8 ar  
    10    7   21 1   
    11    7   22 1   
    12    8    9 ar  
    13    8   23 1   
    14    9   10 ar  
    15    9   24 1   
    16   10   11 1   
    17   11   12 1   
    18   11   16 1   
    19   11   25 1   
    20   12   13 1   
    21   13   14 2   
    22   13   15 1   
    23   15   26 1   
    24   15   27 1   
    25   15   28 1   
    26   16   17 2   
    27   16   18 1   
    28   18   19 1   
    29   19   29 1   
    30   19   30 1   
    31   19   31 1   
@<TRIPOS>SUBSTRUCTURE
     1 ICU         1 TEMP              0 ****  ****    0 ROOT
