@<TRIPOS>MOLECULE
ICU
   32    32     1     0     0
SMALL
bcc


@<TRIPOS>ATOM
      1 C1          0.0170    1.1620   -0.1750 c         1 ICU      0.920200
      2 O1          1.2580    1.2490   -0.3610 o         1 ICU     -0.780300
      3 OXT        -0.6300    1.5820    0.8120 o         1 ICU     -0.780300
      4 C2         -0.7700    0.4980   -1.3320 ca        1 ICU     -0.089600
      5 C3         -0.0910    0.4750   -2.5610 ca        1 ICU     -0.087000
      6 C4         -0.7060   -0.0640   -3.6920 ca        1 ICU     -0.104400
      7 N1          0.0210   -0.0800   -4.9620 n4        1 ICU     -0.694000
      8 C5         -2.0110   -0.5910   -3.6320 ca        1 ICU     -0.148000
      9 C6         -2.6670   -0.5770   -2.4100 ca        1 ICU     -0.098000
     10 C7         -2.0530   -0.0490   -1.2570 ca        1 ICU     -0.017300
     11 C8         -2.8220   -0.0860    0.0370 c3        1 ICU      0.145400
     12 O2         -3.8990    0.8500   -0.1220 os        1 ICU     -0.433900
     13 C9         -4.4810    1.3470    1.0230 c         1 ICU      0.646100
     14 O3         -4.2510    0.7820    2.0900 o         1 ICU     -0.516000
     15 C10        -5.3500    2.5220    0.7460 c3        1 ICU     -0.148100
     16 C11        -3.4020   -1.4740    0.2600 c         1 ICU      0.612100
     17 O4         -4.4070   -1.9820   -0.2440 o         1 ICU     -0.555000
     18 O5         -2.6700   -2.2130    1.1400 os        1 ICU     -0.410900
     19 C12        -3.1730   -3.5080    1.4690 c3        1 ICU      0.124700
     20 H3          0.9380    0.8880   -2.5650 ha        1 ICU      0.188000
     21 HN11        0.0990   -1.0420   -5.3010 hn        1 ICU      0.449133
     22 HN12       -0.4820    0.4820   -5.6540 hn        1 ICU      0.449133
     23 H5         -2.5080   -1.0050   -4.5200 ha        1 ICU      0.133000
     24 H6         -3.6910   -0.9840   -2.3300 ha        1 ICU      0.177000
     25 H8         -2.1740    0.2140    0.9220 h1        1 ICU      0.184700
     26 H101       -5.7230    2.5020   -0.3060 hc        1 ICU      0.076700
     27 H102       -4.7470    3.4510    0.9030 hc        1 ICU      0.076700
     28 H103       -6.2130    2.5160    1.4560 hc        1 ICU      0.076700
     29 H121       -4.1970   -3.4200    1.9050 h1        1 ICU      0.050367
     30 H122       -3.1990   -4.1490    0.5550 h1        1 ICU      0.050367
     31 H123       -2.4380   -3.8910    2.2190 h1        1 ICU      0.050367
     32 H13         0.9600    0.3100   -4.8220 hn        1 ICU      0.449133
@<TRIPOS>BOND
     1    1    2 1   
     2    1    3 1   
     3    1    4 1   
     4    4    5 ar  
     5    4   10 ar  
     6    5    6 ar  
     7    5   20 1   
     8    6    7 1   
     9    6    8 ar  
    10    7   21 1   
    11    7   22 1   
    12    7   32 1   
    13    8    9 ar  
    14    8   23 1   
    15    9   10 ar  
    16    9   24 1   
    17   10   11 1   
    18   11   12 1   
    19   11   16 1   
    20   11   25 1   
    21   12   13 1   
    22   13   14 2   
    23   13   15 1   
    24   15   26 1   
    25   15   27 1   
    26   15   28 1   
    27   16   17 2   
    28   16   18 1   
    29   18   19 1   
    30   19   29 1   
    31   19   30 1   
    32   19   31 1   
@<TRIPOS>SUBSTRUCTURE
     1 ICU         1 TEMP              0 ****  ****    0 ROOT
