@<TRIPOS>MOLECULE
ICU
   31    28     1     0     0
SMALL
bcc


@<TRIPOS>ATOM
      1 C1          1.7870    1.6650    1.0020 c1        1 ICU      0.361000
      2 O1          2.9160    1.4680    0.5180 o         1 ICU     -0.545000
      3 OXT         1.6630    1.8970    2.2340 os        1 ICU     -0.587000
      4 C2          0.5990    1.7510    0.1060 c2        1 ICU     -0.052000
      5 C3          0.2480    2.9680   -0.4660 c1        1 ICU     -0.160000
      6 C4         -0.8940    3.0640   -1.2590 c1        1 ICU      0.010000
      7 N1         -1.2970    4.3330   -1.7720 n3        1 ICU     -0.312000
      8 C5         -1.6840    1.9400   -1.4780 c1        1 ICU     -0.198000
      9 C6         -1.3300    0.7090   -0.9010 c1        1 ICU     -0.107000
     10 C7         -0.1970    0.6170   -0.1150 c2        1 ICU     -0.094000
     11 C8          0.2100   -0.7300    0.4800 c3        1 ICU      0.121000
     12 O2         -0.8350   -1.2280    1.2370 os        1 ICU     -0.261000
     13 C9         -0.4300   -2.0000    2.3250 c2        1 ICU      0.364000
     14 O3          0.7300   -2.0820    2.5980 o         1 ICU     -0.375000
     15 C10        -1.4410   -2.5850    3.2250 c3        1 ICU     -0.220000
     16 C11         0.5310   -1.7000   -0.6380 c2        1 ICU      0.293000
     17 O4         -0.3520   -2.2790   -1.1960 o         1 ICU     -0.369000
     18 O5          1.9000   -2.0140   -0.9440 os        1 ICU     -0.272000
     19 C12         2.0550   -2.9160   -2.0670 c3        1 ICU     -0.060000
     20 H3          0.7890    3.7960   -0.2600 ha        1 ICU      0.159000
     21 HN11       -0.7120    5.0390   -1.7600 hn        1 ICU      0.157500
     22 HN12       -2.1360    4.4410   -2.1210 hn        1 ICU      0.157500
     23 H5         -2.5210    2.0100   -2.0600 ha        1 ICU      0.112000
     24 H6         -1.8550   -0.0390   -1.0460 ha        1 ICU      0.124000
     25 H8          0.9990   -0.6120    1.0460 h1        1 ICU      0.181000
     26 H101       -1.2590   -2.3120    4.1330 hc        1 ICU      0.112667
     27 H102       -1.4060   -3.5680    3.1650 hc        1 ICU      0.112667
     28 H103       -2.3610   -2.2640    2.9540 hc        1 ICU      0.112667
     29 H121        1.5240   -2.6080   -2.7980 h1        1 ICU      0.078000
     30 H122        2.9960   -2.9430   -2.3350 h1        1 ICU      0.078000
     31 H123        1.7630   -3.8160   -1.8080 h1        1 ICU      0.078000
@<TRIPOS>BOND
     1    1    2 1   
     2    1    4 1   
     3    4    5 1   
     4    4   10 1   
     5    5   20 1   
     6    6    7 1   
     7    6    8 1   
     8    7   21 1   
     9    7   22 1   
    10    8   23 1   
    11    9   10 1   
    12    9   24 1   
    13   10   11 1   
    14   11   12 1   
    15   11   16 1   
    16   11   25 1   
    17   12   13 1   
    18   13   14 1   
    19   13   15 1   
    20   15   26 1   
    21   15   27 1   
    22   15   28 1   
    23   16   17 1   
    24   16   18 1   
    25   18   19 1   
    26   19   29 1   
    27   19   30 1   
    28   19   31 1   
@<TRIPOS>SUBSTRUCTURE
     1 ICU         1 TEMP              0 ****  ****    0 ROOT
