@<TRIPOS>MOLECULE
ICU
   31    31     1     0     0
SMALL
bcc


@<TRIPOS>ATOM
      1 C1          0.0530   -1.7600   -0.8680 c         1 ICU      0.912200
      2 O1          1.2520   -2.0610   -1.1400 o         1 ICU     -0.830800
      3 OXT        -0.5940   -2.2690    0.0880 o         1 ICU     -0.830800
      4 C2         -0.6680   -0.7420   -1.7460 ca        1 ICU     -0.071600
      5 C3         -2.0630   -0.7790   -1.7540 ca        1 ICU     -0.159000
      6 C4         -2.8180    0.1100   -2.5450 ca        1 ICU      0.092600
      7 N1         -4.2260    0.0180   -2.5960 nv        1 ICU     -0.803200
      8 C5         -2.1310    1.0530   -3.3400 ca        1 ICU     -0.200000
      9 C6         -0.7420    1.0860   -3.3320 ca        1 ICU     -0.106000
     10 C7         -0.0010    0.2120   -2.5330 ca        1 ICU     -0.103300
     11 C8          1.4980    0.2800   -2.5030 c3        1 ICU      0.189400
     12 O2          1.9950   -0.7540   -3.3610 os        1 ICU     -0.421900
     13 C9          3.0570   -1.4900   -2.8790 c         1 ICU      0.693100
     14 O3          3.8930   -0.9150   -2.1800 o         1 ICU     -0.565000
     15 C10         3.0440   -2.8980   -3.3550 c3        1 ICU     -0.151100
     16 C11         2.0240    1.6090   -3.0150 c         1 ICU      0.622100
     17 O4          2.3500    1.9620   -4.1500 o         1 ICU     -0.557000
     18 O5          2.1630    2.5340   -2.0090 os        1 ICU     -0.434900
     19 C12         2.6830    3.8070   -2.3740 c3        1 ICU      0.129700
     20 H3         -2.5550   -1.5280   -1.1090 ha        1 ICU      0.157000
     21 HN11       -4.6020   -0.4430   -1.7940 hn        1 ICU      0.362300
     22 HN12       -4.6570    0.9070   -2.7360 hn        1 ICU      0.362300
     23 H5         -2.6870    1.7550   -3.9760 ha        1 ICU      0.112000
     24 H6         -0.2230    1.8160   -3.9740 ha        1 ICU      0.124000
     25 H8          1.8730    0.1170   -1.4460 h1        1 ICU      0.139700
     26 H101        2.6110   -2.9670   -4.3800 hc        1 ICU      0.074033
     27 H102        4.0770   -3.3160   -3.3420 hc        1 ICU      0.074033
     28 H103        2.3880   -3.4630   -2.6380 hc        1 ICU      0.074033
     29 H121        2.7190    4.3700   -1.4100 h1        1 ICU      0.038367
     30 H122        2.0050    4.3030   -3.1090 h1        1 ICU      0.038367
     31 H123        3.7020    3.6930   -2.8170 h1        1 ICU      0.038367
@<TRIPOS>BOND
     1    1    2 1   
     2    1    3 1   
     3    1    4 1   
     4    4    5 ar  
     5    4   10 ar  
     6    5    6 ar  
     7    5   20 1   
     8    6    7 1   
     9    6    8 ar  
    10    7   21 1   
    11    7   22 1   
    12    8    9 ar  
    13    8   23 1   
    14    9   10 ar  
    15    9   24 1   
    16   10   11 1   
    17   11   12 1   
    18   11   16 1   
    19   11   25 1   
    20   12   13 1   
    21   13   14 2   
    22   13   15 1   
    23   15   26 1   
    24   15   27 1   
    25   15   28 1   
    26   16   17 2   
    27   16   18 1   
    28   18   19 1   
    29   19   29 1   
    30   19   30 1   
    31   19   31 1   
@<TRIPOS>SUBSTRUCTURE
     1 ICU         1 TEMP              0 ****  ****    0 ROOT
