@<TRIPOS>MOLECULE
ICX
   55    56     1     0     0
SMALL
bcc


@<TRIPOS>ATOM
      1 C5          6.6160    0.7270    0.0990 ca        1 ICX     -0.093000
      2 C4          5.7600    1.1790    1.1030 ca        1 ICX     -0.129500
      3 C3          4.6740    0.3970    1.5120 ca        1 ICX     -0.061300
      4 C7          3.7680    0.8710    2.5980 c3        1 ICX     -0.001800
      5 C8          2.5480    1.5540    2.0800 ca        1 ICX     -0.051300
      6 C9          2.6590    2.6350    1.1970 ca        1 ICX     -0.133000
      7 C10         1.5200    3.2930    0.7410 ca        1 ICX     -0.086500
      8 C11         0.2530    2.8690    1.1580 ca        1 ICX     -0.147600
      9 C12         0.1350    1.7950    2.0450 ca        1 ICX     -0.086500
     10 C13         1.2790    1.1430    2.5040 ca        1 ICX     -0.133000
     11 C23        -0.9360    3.6110    0.6540 c         1 ICX      0.676700
     12 O24        -0.9300    4.8480    0.5110 o         1 ICX     -0.583100
     13 N25        -2.0600    2.8550    0.3330 n         1 ICX     -0.486100
     14 C26        -3.2310    3.4240   -0.1600 c2        1 ICX     -0.014400
     15 C27        -4.3350    2.7360   -0.5150 c2        1 ICX     -0.262200
     16 C28        -4.4720    1.2660   -0.4410 c3        1 ICX     -0.035200
     17 C29        -5.8400    0.8040   -0.9090 c3        1 ICX     -0.072400
     18 C30        -5.9640   -0.6990   -0.7910 c3        1 ICX     -0.154400
     19 C31        -7.2530   -1.2190   -1.3960 c         1 ICX      0.655100
     20 O32        -7.2470   -2.0160   -2.3530 o         1 ICX     -0.595100
     21 N33        -8.4470   -0.7390   -0.8710 n         1 ICX     -0.554900
     22 C34        -9.7070   -1.3110   -1.2340 c3        1 ICX      0.038000
     23 C35       -10.3570   -2.1080   -0.1200 c         1 ICX      0.599100
     24 O36       -10.0780   -2.1280    1.0810 o         1 ICX     -0.547000
     25 O37       -11.4000   -2.8660   -0.5660 os        1 ICX     -0.432900
     26 C38       -12.0930   -3.6450    0.4120 c3        1 ICX      0.125700
     27 C2          4.4580   -0.8440    0.9020 ca        1 ICX     -0.129500
     28 C1          5.3130   -1.2940   -0.1020 ca        1 ICX     -0.093000
     29 C6          6.3940   -0.5100   -0.5070 ca        1 ICX      0.021900
     30 I1          7.6330   -1.1650   -1.9610 i         1 ICX     -0.139900
     31 H5          7.4660    1.3560   -0.2090 ha        1 ICX      0.146000
     32 H4          5.9440    2.1550    1.5770 ha        1 ICX      0.137500
     33 H7          3.4730   -0.0060    3.2370 hc        1 ICX      0.063200
     34 H7A         4.3220    1.5920    3.2620 hc        1 ICX      0.063200
     35 H9          3.6560    2.9610    0.8630 ha        1 ICX      0.140500
     36 H10         1.6060    4.1550    0.0590 ha        1 ICX      0.146500
     37 H12        -0.8520    1.4680    2.4050 ha        1 ICX      0.146500
     38 H13         1.1790    0.3020    3.2060 ha        1 ICX      0.140500
     39 HN25       -2.0110    1.8660    0.4140 hn        1 ICX      0.316500
     40 H26        -3.1900    4.5300   -0.2410 h4        1 ICX      0.170000
     41 H27        -5.2050    3.2970   -0.8900 ha        1 ICX      0.140000
     42 H28        -3.6810    0.7750   -1.0720 hc        1 ICX      0.040200
     43 H28A       -4.3090    0.9180    0.6170 hc        1 ICX      0.040200
     44 H29        -6.6310    1.3100   -0.2960 hc        1 ICX      0.052700
     45 H29A       -5.9940    1.1140   -1.9770 hc        1 ICX      0.052700
     46 H30        -5.1160   -1.1970   -1.3330 hc        1 ICX      0.073700
     47 H30A       -5.9120   -1.0100    0.2860 hc        1 ICX      0.073700
     48 HN33       -8.4140   -0.2730    0.0080 hn        1 ICX      0.317500
     49 H34       -10.4260   -0.4810   -1.4990 h1        1 ICX      0.101700
     50 H34A       -9.5850   -1.9810   -2.1360 h1        1 ICX      0.101700
     51 H38       -12.5390   -2.9740    1.1850 h1        1 ICX      0.053700
     52 H38A      -12.8810   -4.1710   -0.1810 h1        1 ICX      0.053700
     53 H38B      -11.3890   -4.3670    0.8910 h1        1 ICX      0.053700
     54 H2          3.6080   -1.4680    1.2170 ha        1 ICX      0.137500
     55 H1          5.1260   -2.2740   -0.5710 ha        1 ICX      0.146000
@<TRIPOS>BOND
     1    1    2 ar  
     2    1   29 ar  
     3    1   31 1   
     4    2    3 ar  
     5    2   32 1   
     6    3    4 1   
     7    3   27 ar  
     8    4    5 1   
     9    4   33 1   
    10    4   34 1   
    11    5    6 ar  
    12    5   10 ar  
    13    6    7 ar  
    14    6   35 1   
    15    7    8 ar  
    16    7   36 1   
    17    8    9 ar  
    18    8   11 1   
    19    9   10 ar  
    20    9   37 1   
    21   10   38 1   
    22   11   12 2   
    23   11   13 1   
    24   13   14 1   
    25   13   39 1   
    26   14   15 2   
    27   14   40 1   
    28   15   16 1   
    29   15   41 1   
    30   16   17 1   
    31   16   42 1   
    32   16   43 1   
    33   17   18 1   
    34   17   44 1   
    35   17   45 1   
    36   18   19 1   
    37   18   46 1   
    38   18   47 1   
    39   19   20 2   
    40   19   21 1   
    41   21   22 1   
    42   21   48 1   
    43   22   23 1   
    44   22   49 1   
    45   22   50 1   
    46   23   24 2   
    47   23   25 1   
    48   25   26 1   
    49   26   51 1   
    50   26   52 1   
    51   26   53 1   
    52   27   28 ar  
    53   27   54 1   
    54   28   29 ar  
    55   28   55 1   
    56   29   30 1   
@<TRIPOS>SUBSTRUCTURE
     1 ICX         1 TEMP              0 ****  ****    0 ROOT
