@<TRIPOS>MOLECULE
ICX
   55    50     1     0     0
SMALL
bcc


@<TRIPOS>ATOM
      1 C5         -3.7180    4.4690    0.7160 c1        1 ICX     -0.093000
      2 C4         -3.6070    3.9960   -0.6090 c1        1 ICX     -0.133000
      3 C3         -2.3700    3.7940   -1.1640 c1        1 ICX     -0.054000
      4 C7         -2.2500    3.1980   -2.5880 c2        1 ICX     -0.095000
      5 C8         -2.3620    1.6720   -2.5160 c2        1 ICX     -0.044000
      6 C9         -1.2690    0.8790   -2.8460 c1        1 ICX     -0.136000
      7 C10        -1.3760   -0.5050   -2.8020 c1        1 ICX     -0.101000
      8 C11        -2.5720   -1.0960   -2.4300 c1        1 ICX     -0.127000
      9 C12        -3.6740   -0.2980   -2.0970 c2        1 ICX     -0.073000
     10 C13        -3.5670    1.0790   -2.1410 c2        1 ICX     -0.131000
     11 C23        -2.6440   -2.5710   -2.2500 c1        1 ICX      0.350000
     12 O24        -3.6930   -3.0920   -2.0130 o         1 ICX     -0.345000
     13 N25        -1.4880   -3.3680   -2.4610 n3        1 ICX     -0.330000
     14 C26        -1.1500   -4.4070   -1.5260 c2        1 ICX     -0.020000
     15 C27         0.1830   -4.6440   -1.1990 c1        1 ICX     -0.259000
     16 C28         1.3070   -3.7840   -1.8460 c2        1 ICX     -0.120000
     17 C29         2.3530   -3.4200   -0.7870 c3        1 ICX     -0.147000
     18 C30         1.9130   -2.1280   -0.0360 c3        1 ICX     -0.179000
     19 C31         2.8720   -1.8690    1.1370 c2        1 ICX      0.297000
     20 O32         3.9130   -2.4080    1.1730 o         1 ICX     -0.356000
     21 N33         2.5130   -0.9780    2.1450 n         1 ICX     -0.365000
     22 C34         3.0840   -1.1130    3.4610 c3        1 ICX     -0.029000
     23 C35         3.6240    0.2760    3.9400 c2        1 ICX      0.269000
     24 O36         2.9020    1.2110    3.9640 o         1 ICX     -0.358000
     25 O37         4.9820    0.4190    4.3330 os        1 ICX     -0.271000
     26 C38         5.1710    1.3200    5.4250 c3        1 ICX     -0.064000
     27 C2         -1.2100    4.0580   -0.4100 c2        1 ICX     -0.126000
     28 C1         -1.3220    4.5280    0.9090 c1        1 ICX     -0.093000
     29 C6         -2.5680    4.7310    1.4640 c1        1 ICX     -0.264000
     30 I1         -2.7390    5.5110    3.4160 i         1 ICX      0.145000
     31 H5         -4.6050    4.6140    1.1130 ha        1 ICX      0.145000
     32 H4         -4.4250    3.8130   -1.1420 ha        1 ICX      0.137000
     33 H7         -1.3540    3.4510   -2.9860 ha        1 ICX      0.102500
     34 H7A        -2.9940    3.5650   -3.1710 ha        1 ICX      0.102500
     35 H9         -0.4270    1.2940   -3.1090 ha        1 ICX      0.137000
     36 H10        -0.5880   -1.0750   -3.0400 ha        1 ICX      0.137000
     37 H12        -4.5080   -0.7110   -1.8380 ha        1 ICX      0.157000
     38 H13        -4.3730    1.6630   -1.8990 ha        1 ICX      0.143000
     39 HN25       -0.9160   -3.1870   -3.1980 hn        1 ICX      0.230000
     40 H26        -1.8490   -4.9410   -1.1250 h4        1 ICX      0.169000
     41 H27         0.4230   -5.3870   -0.5320 ha        1 ICX      0.139000
     42 H28         1.7550   -4.3200   -2.5990 ha        1 ICX      0.080000
     43 H28A        0.9190   -2.9670   -2.2140 ha        1 ICX      0.080000
     44 H29         3.2430   -3.2600   -1.2360 hc        1 ICX      0.100000
     45 H29A        2.4400   -4.1590   -0.1430 hc        1 ICX      0.100000
     46 H30         1.0170   -2.2390    0.3010 hc        1 ICX      0.109500
     47 H30A        1.9370   -1.3830   -0.6400 hc        1 ICX      0.109500
     48 HN33        1.9830   -0.2440    1.9450 hn        1 ICX      0.229000
     49 H34         3.8250   -1.7650    3.4330 h1        1 ICX      0.141000
     50 H34A        2.4030   -1.4250    4.0780 h1        1 ICX      0.141000
     51 H38         6.1330    1.4130    5.6120 h1        1 ICX      0.092333
     52 H38A        4.7970    2.1960    5.1920 h1        1 ICX      0.092333
     53 H38B        4.7160    0.9710    6.2180 h1        1 ICX      0.092333
     54 H2         -0.2860    3.9070   -0.8240 ha        1 ICX      0.138000
     55 H1         -0.5020    4.7160    1.4410 ha        1 ICX      0.145000
@<TRIPOS>BOND
     1    1   29 1   
     2    1   31 1   
     3    2    3 1   
     4    2   32 1   
     5    3   27 1   
     6    4    5 1   
     7    4   33 1   
     8    4   34 1   
     9    5    6 1   
    10    5   10 1   
    11    6   35 1   
    12    7    8 1   
    13    7   36 1   
    14    8    9 1   
    15    9   10 1   
    16    9   37 1   
    17   10   38 1   
    18   11   12 1   
    19   11   13 1   
    20   13   14 1   
    21   13   39 1   
    22   14   15 1   
    23   14   40 1   
    24   15   41 1   
    25   16   17 1   
    26   16   42 1   
    27   16   43 1   
    28   17   18 1   
    29   17   44 1   
    30   17   45 1   
    31   18   19 1   
    32   18   46 1   
    33   18   47 1   
    34   19   20 1   
    35   19   21 1   
    36   21   22 1   
    37   21   48 1   
    38   22   23 1   
    39   22   49 1   
    40   22   50 1   
    41   23   24 1   
    42   23   25 1   
    43   25   26 1   
    44   26   51 1   
    45   26   52 1   
    46   26   53 1   
    47   27   28 1   
    48   27   54 1   
    49   28   55 1   
    50   29   30 1   
@<TRIPOS>SUBSTRUCTURE
     1 ICX         1 TEMP              0 ****  ****    0 ROOT
