@<TRIPOS>MOLECULE
ICX
   57    58     1     0     0
SMALL
bcc


@<TRIPOS>ATOM
      1 C5          0.9230    0.9550   -2.0030 ca        1 ICX     -0.090000
      2 C4          2.1210    0.7610   -1.3180 ca        1 ICX     -0.130000
      3 C3          2.1400    0.0410   -0.1180 ca        1 ICX     -0.098300
      4 C7          3.4230   -0.1950    0.6010 c3        1 ICX     -0.017800
      5 C8          3.7100    0.8110    1.6610 ca        1 ICX      0.039700
      6 C9          4.4270    0.4330    2.8060 ca        1 ICX     -0.133500
      7 C10         4.7210    1.3620    3.7970 ca        1 ICX     -0.052500
      8 C11         4.2890    2.6980    3.6630 ca        1 ICX     -0.229600
      9 C12         3.5820    3.0840    2.5090 ca        1 ICX     -0.052500
     10 C13         3.3010    2.1500    1.5240 ca        1 ICX     -0.133500
     11 C23         4.6260    3.6010    4.7460 c         1 ICX      0.598700
     12 O24         5.4490    3.4810    5.6450 o         1 ICX     -0.462100
     13 N25         3.8080    4.9010    4.8540 ny        1 ICX     -0.565600
     14 C26         4.4810    6.0130    4.2030 c2        1 ICX     -0.128000
     15 C27         5.3610    6.8380    4.7930 c2        1 ICX     -0.063200
     16 C28         5.8160    6.7750    6.2020 c3        1 ICX     -0.084200
     17 C29         6.9080    7.7950    6.4700 c3        1 ICX     -0.080400
     18 C30         7.3690    7.7280    7.9150 c3        1 ICX     -0.158400
     19 C31         8.4560    8.7350    8.1540 c         1 ICX      0.553100
     20 O32         8.9660    9.5180    7.3720 o         1 ICX     -0.390100
     21 N33         9.0040    8.7870    9.5790 ny        1 ICX     -0.677800
     22 C34        10.4150    8.3120    9.6620 c3        1 ICX      0.034800
     23 C35        10.5060    6.7980    9.6260 c         1 ICX      0.623100
     24 O36         9.5610    6.0300    9.4210 o         1 ICX     -0.554000
     25 O37        11.7570    6.3590    9.8480 os        1 ICX     -0.383900
     26 C38        11.9620    4.9310    9.8490 c3        1 ICX      0.123700
     27 C2          0.9460   -0.4920    0.3810 ca        1 ICX     -0.130000
     28 C1         -0.2520   -0.2960   -0.3060 ca        1 ICX     -0.090000
     29 C6         -0.2680    0.4320   -1.4960 ca        1 ICX      0.029900
     30 I1         -2.0030    0.7180   -2.4870 i         1 ICX     -0.099900
     31 H5          0.9280    1.5150   -2.9530 ha        1 ICX      0.157500
     32 H4          3.0580    1.1620   -1.7360 ha        1 ICX      0.138000
     33 H7          3.4110   -1.2260    1.0540 hc        1 ICX      0.088200
     34 H7A         4.2800   -0.1720   -0.1340 hc        1 ICX      0.088200
     35 H9          4.7620   -0.6120    2.9240 ha        1 ICX      0.177000
     36 H10         5.2890    1.0570    4.6930 ha        1 ICX      0.146000
     37 H12         3.2640    4.1250    2.3480 ha        1 ICX      0.146000
     38 H13         2.7450    2.4500    0.6170 ha        1 ICX      0.177000
     39 HN25        3.6740    5.1120    5.8510 hn        1 ICX      0.460800
     40 H26         4.2050    6.1170    3.1330 hx        1 ICX      0.203000
     41 H27         5.7930    7.6470    4.1690 ha        1 ICX      0.187000
     42 H28         4.9440    6.9690    6.8880 hc        1 ICX      0.082700
     43 H28A        6.2000    5.7400    6.4320 hc        1 ICX      0.082700
     44 H29         7.7800    7.6040    5.7890 hc        1 ICX      0.082700
     45 H29A        6.5290    8.8280    6.2420 hc        1 ICX      0.082700
     46 H30         6.5070    7.9360    8.6080 hc        1 ICX      0.121200
     47 H30A        7.7680    6.6980    8.1550 hc        1 ICX      0.121200
     48 HN33        8.9750    9.7610    9.9100 hn        1 ICX      0.474300
     49 H34        10.8750    8.6820   10.6280 hx        1 ICX      0.156700
     50 H34A       11.0070    8.7450    8.7990 hx        1 ICX      0.156700
     51 H38        11.3360    4.4650   10.6470 h1        1 ICX      0.081700
     52 H38A       11.7030    4.5180    8.8460 h1        1 ICX      0.081700
     53 H38B       13.0570    4.8450   10.0690 h1        1 ICX      0.081700
     54 H2          0.9500   -1.0810    1.3100 ha        1 ICX      0.138000
     55 H1         -1.1820   -0.7300    0.0970 ha        1 ICX      0.157500
     56 H252        2.8880    4.7610    4.4190 hn        1 ICX      0.460800
     57 H332        8.4170    8.2020   10.1870 hn        1 ICX      0.474300
@<TRIPOS>BOND
     1    1    2 ar  
     2    1   29 ar  
     3    1   31 1   
     4    2    3 ar  
     5    2   32 1   
     6    3    4 1   
     7    3   27 ar  
     8    4    5 1   
     9    4   33 1   
    10    4   34 1   
    11    5    6 ar  
    12    5   10 ar  
    13    6    7 ar  
    14    6   35 1   
    15    7    8 ar  
    16    7   36 1   
    17    8    9 ar  
    18    8   11 1   
    19    9   10 ar  
    20    9   37 1   
    21   10   38 1   
    22   11   12 2   
    23   11   13 1   
    24   13   14 1   
    25   13   39 1   
    26   13   56 1   
    27   14   15 2   
    28   14   40 1   
    29   15   16 1   
    30   15   41 1   
    31   16   17 1   
    32   16   42 1   
    33   16   43 1   
    34   17   18 1   
    35   17   44 1   
    36   17   45 1   
    37   18   19 1   
    38   18   46 1   
    39   18   47 1   
    40   19   20 2   
    41   19   21 1   
    42   21   22 1   
    43   21   48 1   
    44   21   57 1   
    45   22   23 1   
    46   22   49 1   
    47   22   50 1   
    48   23   24 2   
    49   23   25 1   
    50   25   26 1   
    51   26   51 1   
    52   26   52 1   
    53   26   53 1   
    54   27   28 ar  
    55   27   54 1   
    56   28   29 ar  
    57   28   55 1   
    58   29   30 1   
@<TRIPOS>SUBSTRUCTURE
     1 ICX         1 TEMP              0 ****  ****    0 ROOT
