@<TRIPOS>MOLECULE
ICX
   57    58     1     0     0
SMALL
bcc


@<TRIPOS>ATOM
      1 C5          0.9500    0.9240   -2.0080 ca        1 ICX     -0.090000
      2 C4          2.1300    0.7130   -1.2970 ca        1 ICX     -0.130000
      3 C3          2.1070    0.0240   -0.0790 ca        1 ICX     -0.098300
      4 C7          3.3710   -0.2310    0.6680 c3        1 ICX     -0.017800
      5 C8          3.6680    0.7930    1.7080 ca        1 ICX      0.039700
      6 C9          4.3520    0.4230    2.8760 ca        1 ICX     -0.133500
      7 C10         4.6550    1.3680    3.8490 ca        1 ICX     -0.052500
      8 C11         4.2660    2.7130    3.6740 ca        1 ICX     -0.229600
      9 C12         3.5930    3.0890    2.4960 ca        1 ICX     -0.052500
     10 C13         3.3020    2.1390    1.5300 ca        1 ICX     -0.133500
     11 C23         4.6090    3.6320    4.7400 c         1 ICX      0.598700
     12 O24         5.4120    3.5110    5.6580 o         1 ICX     -0.462100
     13 N25         3.8280    4.9570    4.8000 n4        1 ICX     -0.565600
     14 C26         4.5460    6.0320    4.1350 c2        1 ICX     -0.128000
     15 C27         5.4380    6.8470    4.7230 c2        1 ICX     -0.063200
     16 C28         5.8630    6.8070    6.1420 c3        1 ICX     -0.084200
     17 C29         6.9800    7.8000    6.4060 c3        1 ICX     -0.080400
     18 C30         7.4100    7.7570    7.8620 c3        1 ICX     -0.158400
     19 C31         8.5240    8.7340    8.0970 c         1 ICX      0.553100
     20 O32         9.0760    9.4780    7.3060 o         1 ICX     -0.390100
     21 N33         9.0450    8.8070    9.5320 n4        1 ICX     -0.677800
     22 C34        10.4370    8.2890    9.6580 c3        1 ICX      0.034800
     23 C35        10.4780    6.7720    9.6660 c         1 ICX      0.623100
     24 O36         9.5120    6.0300    9.4610 o         1 ICX     -0.554000
     25 O37        11.7080    6.2990    9.9270 os        1 ICX     -0.383900
     26 C38        11.8660    4.8650    9.9710 c3        1 ICX      0.123700
     27 C2          0.8900   -0.4620    0.4110 ca        1 ICX     -0.130000
     28 C1         -0.2890   -0.2490   -0.3010 ca        1 ICX     -0.090000
     29 C6         -0.2650    0.4490   -1.5090 ca        1 ICX      0.029900
     30 I1         -1.9730    0.7600   -2.5370 i         1 ICX     -0.099900
     31 H5          0.9880    1.4590   -2.9710 ha        1 ICX      0.157500
     32 H4          3.0850    1.0760   -1.7080 ha        1 ICX      0.138000
     33 H7          3.3210   -1.2500    1.1460 hc        1 ICX      0.088200
     34 H7A         4.2400   -0.2510   -0.0510 hc        1 ICX      0.088200
     35 H9          4.6540   -0.6280    3.0260 ha        1 ICX      0.177000
     36 H10         5.1970    1.0700    4.7630 ha        1 ICX      0.146000
     37 H12         3.3080    4.1350    2.3030 ha        1 ICX      0.146000
     38 H13         2.7720    2.4320    0.6050 ha        1 ICX      0.177000
     39 HN25        2.9130    4.8340    4.3500 hn        1 ICX      0.460800
     40 H26         4.2950    6.1170    3.0580 hx        1 ICX      0.203000
     41 H27         5.9060    7.6270    4.0880 ha        1 ICX      0.187000
     42 H28         4.9840    7.0450    6.8040 hc        1 ICX      0.082700
     43 H28A        6.2110    5.7670    6.4060 hc        1 ICX      0.082700
     44 H29         7.8600    7.5640    5.7490 hc        1 ICX      0.082700
     45 H29A        6.6380    8.8380    6.1450 hc        1 ICX      0.082700
     46 H30         6.5420    8.0100    8.5310 hc        1 ICX      0.121200
     47 H30A        7.7710    6.7210    8.1370 hc        1 ICX      0.121200
     48 HN33        8.4250    8.2590   10.1430 hn        1 ICX      0.474300
     49 H34        10.8890    8.6700   10.6240 hx        1 ICX      0.156700
     50 H34A       11.0610    8.6780    8.7970 hx        1 ICX      0.156700
     51 H38        11.6140    4.4330    8.9740 h1        1 ICX      0.081700
     52 H38A       11.2080    4.4420   10.7680 h1        1 ICX      0.081700
     53 H38B       12.9520    4.7500   10.2180 h1        1 ICX      0.081700
     54 H2          0.8610   -1.0270    1.3550 ha        1 ICX      0.138000
     55 H1         -1.2390   -0.6450    0.0970 ha        1 ICX      0.157500
     56 H252        3.6820    5.1980    5.7890 hn        1 ICX      0.460800
     57 H332        9.0410    9.7900    9.8360 hn        1 ICX      0.474300
@<TRIPOS>BOND
     1    1    2 ar  
     2    1   29 ar  
     3    1   31 1   
     4    2    3 ar  
     5    2   32 1   
     6    3    4 1   
     7    3   27 ar  
     8    4    5 1   
     9    4   33 1   
    10    4   34 1   
    11    5    6 ar  
    12    5   10 ar  
    13    6    7 ar  
    14    6   35 1   
    15    7    8 ar  
    16    7   36 1   
    17    8    9 ar  
    18    8   11 1   
    19    9   10 ar  
    20    9   37 1   
    21   10   38 1   
    22   11   12 2   
    23   11   13 1   
    24   13   14 1   
    25   13   39 1   
    26   13   56 1   
    27   14   15 2   
    28   14   40 1   
    29   15   16 1   
    30   15   41 1   
    31   16   17 1   
    32   16   42 1   
    33   16   43 1   
    34   17   18 1   
    35   17   44 1   
    36   17   45 1   
    37   18   19 1   
    38   18   46 1   
    39   18   47 1   
    40   19   20 2   
    41   19   21 1   
    42   21   22 1   
    43   21   48 1   
    44   21   57 1   
    45   22   23 1   
    46   22   49 1   
    47   22   50 1   
    48   23   24 2   
    49   23   25 1   
    50   25   26 1   
    51   26   51 1   
    52   26   52 1   
    53   26   53 1   
    54   27   28 ar  
    55   27   54 1   
    56   28   29 ar  
    57   28   55 1   
    58   29   30 1   
@<TRIPOS>SUBSTRUCTURE
     1 ICX         1 TEMP              0 ****  ****    0 ROOT
