@<TRIPOS>MOLECULE
ICX
   57    58     1     0     0
SMALL
bcc


@<TRIPOS>ATOM
      1 C5          1.0170    0.9030   -2.0400 ca        1 ICX     -0.090000
      2 C4          2.1830    0.6870   -1.3070 ca        1 ICX     -0.130000
      3 C3          2.1320    0.0090   -0.0840 ca        1 ICX     -0.098300
      4 C7          3.3800   -0.2520    0.6870 c3        1 ICX     -0.017800
      5 C8          3.6720    0.7790    1.7220 ca        1 ICX      0.039700
      6 C9          4.3350    0.4150    2.9020 ca        1 ICX     -0.133500
      7 C10         4.6340    1.3660    3.8700 ca        1 ICX     -0.052500
      8 C11         4.2600    2.7120    3.6770 ca        1 ICX     -0.229600
      9 C12         3.6070    3.0840    2.4870 ca        1 ICX     -0.052500
     10 C13         3.3210    2.1280    1.5260 ca        1 ICX     -0.133500
     11 C23         4.5970    3.6390    4.7400 c         1 ICX      0.598700
     12 O24         5.3860    3.5190    5.6700 o         1 ICX     -0.462100
     13 N25         3.8280    4.9710    4.7760 n4        1 ICX     -0.565600
     14 C26         4.5640    6.0340    4.1110 c2        1 ICX     -0.129000
     15 C27         5.4560    6.8450    4.7020 c2        1 ICX     -0.063200
     16 C28         5.8630    6.8140    6.1270 c3        1 ICX     -0.084200
     17 C29         6.9850    7.8010    6.3960 c3        1 ICX     -0.080400
     18 C30         7.3970    7.7670    7.8570 c3        1 ICX     -0.158400
     19 C31         8.5130    8.7400    8.0980 c         1 ICX      0.553100
     20 O32         9.0770    9.4760    7.3080 o         1 ICX     -0.390100
     21 N33         9.0180    8.8200    9.5380 n4        1 ICX     -0.677800
     22 C34        10.4070    8.2960    9.6820 c3        1 ICX      0.034800
     23 C35        10.4420    6.7790    9.6990 c         1 ICX      0.623100
     24 O36         9.4750    6.0400    9.4890 o         1 ICX     -0.554000
     25 O37        11.6680    6.3030    9.9750 os        1 ICX     -0.383900
     26 C38        11.8190    4.8690   10.0290 c3        1 ICX      0.123700
     27 C2          0.9020   -0.4590    0.3910 ca        1 ICX     -0.130000
     28 C1         -0.2640   -0.2400   -0.3440 ca        1 ICX     -0.090000
     29 C6         -0.2100    0.4460   -1.5580 ca        1 ICX      0.029900
     30 I1         -1.8980    0.7650   -2.6180 i         1 ICX     -0.099900
     31 H5          1.0770    1.4290   -3.0070 ha        1 ICX      0.157500
     32 H4          3.1480    1.0350   -1.7060 ha        1 ICX      0.138000
     33 H7          3.3110   -1.2650    1.1750 hc        1 ICX      0.088200
     34 H7A         4.2610   -0.2890   -0.0170 hc        1 ICX      0.088200
     35 H9          4.6250   -0.6370    3.0670 ha        1 ICX      0.177000
     36 H10         5.1600    1.0710    4.7950 ha        1 ICX      0.146000
     37 H12         3.3350    4.1300    2.2800 ha        1 ICX      0.146000
     38 H13         2.8070    2.4160    0.5900 ha        1 ICX      0.177000
     39 HN25        3.6700    5.2230    5.7610 hn        1 ICX      0.460800
     40 H26         4.3270    6.1110    3.0290 hx        1 ICX      0.203000
     41 H27         5.9390    7.6140    4.0660 ha        1 ICX      0.187000
     42 H28         4.9780    7.0640    6.7760 hc        1 ICX      0.082700
     43 H28A        6.2000    5.7740    6.4040 hc        1 ICX      0.082700
     44 H29         7.8700    7.5540    5.7510 hc        1 ICX      0.082700
     45 H29A        6.6540    8.8390    6.1220 hc        1 ICX      0.082700
     46 H30         6.5220    8.0290    8.5140 hc        1 ICX      0.121200
     47 H30A        7.7490    6.7310    8.1440 hc        1 ICX      0.121200
     48 HN33        9.0160    9.8050    9.8360 hn        1 ICX      0.474300
     49 H34        10.8500    8.6820   10.6500 hx        1 ICX      0.156700
     50 H34A       11.0420    8.6780    8.8250 hx        1 ICX      0.156700
     51 H38        11.1520    4.4530   10.8210 h1        1 ICX      0.081700
     52 H38A       11.5750    4.4320    9.0320 h1        1 ICX      0.081700
     53 H38B       12.9020    4.7510   10.2870 h1        1 ICX      0.081700
     54 H2          0.8500   -1.0140    1.3390 ha        1 ICX      0.138000
     55 H1         -1.2230   -0.6230    0.0410 ha        1 ICX      0.157500
     56 H252        2.9170    4.8520    4.3160 hn        1 ICX      0.460800
     57 H332        8.3910    8.2780   10.1450 hn        1 ICX      0.474300
@<TRIPOS>BOND
     1    1    2 ar  
     2    1   29 ar  
     3    1   31 1   
     4    2    3 ar  
     5    2   32 1   
     6    3    4 1   
     7    3   27 ar  
     8    4    5 1   
     9    4   33 1   
    10    4   34 1   
    11    5    6 ar  
    12    5   10 ar  
    13    6    7 ar  
    14    6   35 1   
    15    7    8 ar  
    16    7   36 1   
    17    8    9 ar  
    18    8   11 1   
    19    9   10 ar  
    20    9   37 1   
    21   10   38 1   
    22   11   12 2   
    23   11   13 1   
    24   13   14 1   
    25   13   39 1   
    26   13   56 1   
    27   14   15 2   
    28   14   40 1   
    29   15   16 1   
    30   15   41 1   
    31   16   17 1   
    32   16   42 1   
    33   16   43 1   
    34   17   18 1   
    35   17   44 1   
    36   17   45 1   
    37   18   19 1   
    38   18   46 1   
    39   18   47 1   
    40   19   20 2   
    41   19   21 1   
    42   21   22 1   
    43   21   48 1   
    44   21   57 1   
    45   22   23 1   
    46   22   49 1   
    47   22   50 1   
    48   23   24 2   
    49   23   25 1   
    50   25   26 1   
    51   26   51 1   
    52   26   52 1   
    53   26   53 1   
    54   27   28 ar  
    55   27   54 1   
    56   28   29 ar  
    57   28   55 1   
    58   29   30 1   
@<TRIPOS>SUBSTRUCTURE
     1 ICX         1 TEMP              0 ****  ****    0 ROOT
