@<TRIPOS>MOLECULE
ICY
   26    26     1     0     0
SMALL
bcc


@<TRIPOS>ATOM
      1 C           4.7000   -0.4890    0.9260 c         1 ICY      0.892600
      2 N           3.9770   -1.9210   -1.0510 n3        1 ICY     -0.883800
      3 O           5.6640   -1.2940    1.0500 o         1 ICY     -0.832800
      4 CA          3.7410   -0.6900   -0.3070 c3        1 ICY      0.018500
      5 CB          2.3130   -0.5450    0.1880 c3        1 ICY      0.027700
      6 SG          1.2400   -0.2250   -1.1990 ss        1 ICY     -0.320200
      7 I          -3.0780    1.5770    0.6720 i         1 ICY     -0.170900
      8 C0         -0.2460    0.3340   -0.4260 c3        1 ICY     -0.002000
      9 C1         -1.2600   -0.7050   -0.1070 ca        1 ICY     -0.023300
     10 C2         -2.5270   -0.3520    0.3790 ca        1 ICY      0.021900
     11 C3         -3.4670   -1.3400    0.6800 ca        1 ICY     -0.109000
     12 C4         -3.1570   -2.6860    0.5020 ca        1 ICY     -0.150000
     13 C5         -1.8990   -3.0460    0.0180 ca        1 ICY     -0.114000
     14 C6         -0.9620   -2.0640   -0.2850 ca        1 ICY     -0.124000
     15 OXT         4.4570    0.4760    1.6990 o         1 ICY     -0.832800
     16 HN          4.9720   -1.9960   -1.1850 hn        1 ICY      0.333300
     17 HNA         3.7120   -2.6990   -0.4730 hn        1 ICY      0.333300
     18 HA          3.9630    0.1630   -1.0130 h1        1 ICY      0.060700
     19 HB          1.9680   -1.4610    0.7230 h1        1 ICY      0.070200
     20 HBA         2.2820    0.3170    0.9030 h1        1 ICY      0.070200
     21 H0          0.0110    0.8910    0.5130 h1        1 ICY      0.085200
     22 H0A        -0.6890    1.0670   -1.1510 h1        1 ICY      0.085200
     23 H3         -4.4600   -1.0610    1.0630 ha        1 ICY      0.131000
     24 H4         -3.9010   -3.4580    0.7440 ha        1 ICY      0.124000
     25 H5         -1.6460   -4.1070   -0.1240 ha        1 ICY      0.130000
     26 H6          0.0360   -2.3380   -0.6760 ha        1 ICY      0.178000
@<TRIPOS>BOND
     1    1    3 1   
     2    1    4 1   
     3    1   15 1   
     4    2    4 1   
     5    2   16 1   
     6    2   17 1   
     7    4    5 1   
     8    4   18 1   
     9    5    6 1   
    10    5   19 1   
    11    5   20 1   
    12    6    8 1   
    13    7   10 1   
    14    8    9 1   
    15    8   21 1   
    16    8   22 1   
    17    9   10 ar  
    18    9   14 ar  
    19   10   11 ar  
    20   11   12 ar  
    21   11   23 1   
    22   12   13 ar  
    23   12   24 1   
    24   13   14 ar  
    25   13   25 1   
    26   14   26 1   
@<TRIPOS>SUBSTRUCTURE
     1 ICY         1 TEMP              0 ****  ****    0 ROOT
