@<TRIPOS>MOLECULE
ID2
   28    29     1     0     0
SMALL
bcc


@<TRIPOS>ATOM
      1 C2         -0.0740   -0.1780   -0.3320 c         1 ID2      0.811500
      2 C4         -0.2540    0.4980    2.0440 c         1 ID2      0.729700
      3 C5          1.2150    0.5440    2.0800 cc        1 ID2     -0.189400
      4 C6          1.9290    0.2250    0.9640 cd        1 ID2      0.093600
      5 O2         -0.6590   -0.4540   -1.4020 o         1 ID2     -0.649500
      6 O5'         1.0810    3.0230   -3.3610 oh        1 ID2     -0.592800
      7 C5'         0.6220    1.6980   -3.5160 c3        1 ID2      0.116400
      8 C4'         1.7750    0.7000   -3.4310 c3        1 ID2      0.097100
      9 O4'         2.3790    0.7940   -2.1300 os        1 ID2     -0.431600
     10 C1'         2.2110   -0.4180   -1.3860 c3        1 ID2      0.315500
     11 N1          1.3470   -0.1940   -0.2220 n         1 ID2     -0.384000
     12 N3         -0.8240    0.1320    0.8090 ns        1 ID2     -0.583500
     13 O4         -1.0230    0.7510    2.9830 o         1 ID2     -0.583500
     14 I           2.1750    1.0790    3.7610 i         1 ID2     -0.059800
     15 C2'         1.7420   -1.5070   -2.3690 c3        1 ID2     -0.137400
     16 C3'         1.3020   -0.7520   -3.6300 c3        1 ID2      0.124100
     17 O3'         1.9500   -1.2520   -4.7860 oh        1 ID2     -0.590800
     18 H6          3.0390    0.2690    0.9540 h4        1 ID2      0.176000
     19 HO5'        1.5520    3.0640   -2.5180 ho        1 ID2      0.409000
     20 H5'1        0.1650    1.6650   -4.5420 h1        1 ID2      0.062700
     21 H5'2       -0.1550    1.4570   -2.7410 h1        1 ID2      0.062700
     22 H4'         2.5890    0.9710   -4.1590 h1        1 ID2      0.103700
     23 H1'         3.2400   -0.6570   -0.9780 h2        1 ID2      0.088700
     24 HN3        -1.8180    0.1110    0.7170 hn        1 ID2      0.357500
     25 H2'1        2.6080   -2.1770   -2.6010 hc        1 ID2      0.082700
     26 H2'2        0.9080   -2.1280   -1.9620 hc        1 ID2      0.082700
     27 H3'         0.1850   -0.7980   -3.7490 h1        1 ID2      0.078700
     28 HO3'        1.5360   -2.0970   -4.9950 ho        1 ID2      0.409000
@<TRIPOS>BOND
     1    1    5 2   
     2    1   11 1   
     3    1   12 1   
     4    2    3 1   
     5    2   12 1   
     6    2   13 2   
     7    3    4 2   
     8    3   14 1   
     9    4   11 1   
    10    4   18 1   
    11    6    7 1   
    12    6   19 1   
    13    7    8 1   
    14    7   20 1   
    15    7   21 1   
    16    8    9 1   
    17    8   16 1   
    18    8   22 1   
    19    9   10 1   
    20   10   11 1   
    21   10   15 1   
    22   10   23 1   
    23   12   24 1   
    24   15   16 1   
    25   15   25 1   
    26   15   26 1   
    27   16   17 1   
    28   16   27 1   
    29   17   28 1   
@<TRIPOS>SUBSTRUCTURE
     1 ID2         1 TEMP              0 ****  ****    0 ROOT
