@<TRIPOS>MOLECULE
ID2
   28    29     1     0     0
SMALL
bcc


@<TRIPOS>ATOM
      1 C2          1.4090   -0.2490    1.2030 c         1 ID2      0.811500
      2 C4          1.7190    0.7030   -1.0630 c         1 ID2      0.729700
      3 C5          0.2610    0.6210   -1.2310 cc        1 ID2     -0.189400
      4 C6         -0.5090    0.1160   -0.2260 cd        1 ID2      0.093600
      5 O2          1.9270   -0.5900    2.2880 o         1 ID2     -0.649500
      6 O5'        -0.3070    2.4760    4.4250 oh        1 ID2     -0.592800
      7 C5'         0.2670    1.1880    4.4850 c3        1 ID2      0.116400
      8 C4'        -0.7700    0.1070    4.1900 c3        1 ID2      0.097100
      9 O4'        -1.2700    0.2920    2.8540 os        1 ID2     -0.431600
     10 C1'        -0.9200   -0.8090    2.0070 c3        1 ID2      0.315500
     11 N1          0.0110   -0.3800    0.9590 n         1 ID2     -0.384000
     12 N3          2.2170    0.2520    0.1760 n         1 ID2     -0.583500
     13 O4          2.5340    1.1270   -1.8950 o         1 ID2     -0.583500
     14 I          -0.6050    1.2530   -2.9300 i         1 ID2     -0.059800
     15 C2'        -0.4290   -1.9550    2.9120 c3        1 ID2     -0.137400
     16 C3'        -0.1740   -1.3100    4.2800 c3        1 ID2      0.124100
     17 O3'        -0.8630   -1.9920    5.3130 oh        1 ID2     -0.590800
     18 H6         -1.6150    0.0590   -0.3150 h4        1 ID2      0.176000
     19 HO5'       -0.7080    2.5680    3.5510 ho        1 ID2      0.409000
     20 H5'1        1.1260    1.1070    3.7660 h1        1 ID2      0.062700
     21 H5'2        0.6370    1.0820    5.5400 h1        1 ID2      0.062700
     22 H4'        -1.6650    0.2210    4.8620 h1        1 ID2      0.103700
     23 H1'        -1.8840   -1.0920    1.4830 h2        1 ID2      0.088700
     24 HN3         3.1980    0.3110    0.3580 hn        1 ID2      0.357500
     25 H2'1       -1.2410   -2.7220    2.9910 hc        1 ID2      0.082700
     26 H2'2        0.4930   -2.4500    2.5230 hc        1 ID2      0.082700
     27 H3'         0.9290   -1.2690    4.4980 h1        1 ID2      0.078700
     28 HO3'       -0.3860   -2.8150    5.4700 ho        1 ID2      0.409000
@<TRIPOS>BOND
     1    1    5 2   
     2    1   11 1   
     3    1   12 1   
     4    2    3 1   
     5    2   12 1   
     6    2   13 2   
     7    3    4 2   
     8    3   14 1   
     9    4   11 1   
    10    4   18 1   
    11    6    7 1   
    12    6   19 1   
    13    7    8 1   
    14    7   20 1   
    15    7   21 1   
    16    8    9 1   
    17    8   16 1   
    18    8   22 1   
    19    9   10 1   
    20   10   11 1   
    21   10   15 1   
    22   10   23 1   
    23   12   24 1   
    24   15   16 1   
    25   15   25 1   
    26   15   26 1   
    27   16   17 1   
    28   16   27 1   
    29   17   28 1   
@<TRIPOS>SUBSTRUCTURE
     1 ID2         1 TEMP              0 ****  ****    0 ROOT
