@<TRIPOS>MOLECULE
ID2
   28    29     1     0     0
SMALL
bcc


@<TRIPOS>ATOM
      1 C2         -0.0530   -0.1710   -0.3070 c         1 ID2      0.811500
      2 C4         -0.2070    0.5520    2.0570 c         1 ID2      0.729700
      3 C5          1.2620    0.6170    2.0690 cc        1 ID2     -0.189400
      4 C6          1.9640    0.2840    0.9490 cd        1 ID2      0.093600
      5 O2         -0.6500   -0.4760   -1.3630 o         1 ID2     -0.649500
      6 O5'         1.0150    2.9830   -3.4170 oh        1 ID2     -0.592800
      7 C5'         0.5710    1.6490   -3.5390 c3        1 ID2      0.116400
      8 C4'         1.7380    0.6680   -3.4520 c3        1 ID2      0.097100
      9 O4'         2.3610    0.7960   -2.1620 os        1 ID2     -0.431600
     10 C1'         2.2190   -0.4030   -1.3910 c3        1 ID2      0.315500
     11 N1          1.3690   -0.1660   -0.2190 n         1 ID2     -0.384000
     12 N3         -0.7900    0.1530    0.8380 n         1 ID2     -0.583500
     13 O4         -0.9650    0.8130    3.0020 o         1 ID2     -0.583500
     14 I           2.2400    1.1990    3.7240 i         1 ID2     -0.059800
     15 C2'         1.7500   -1.5170   -2.3450 c3        1 ID2     -0.137400
     16 C3'         1.2810   -0.7940   -3.6140 c3        1 ID2      0.124100
     17 O3'         1.9190   -1.3080   -4.7700 oh        1 ID2     -0.590800
     18 H6          3.0720    0.3430    0.9210 h4        1 ID2      0.176000
     19 HO5'        1.4980    3.0460   -2.5830 ho        1 ID2      0.409000
     20 H5'1        0.1000    1.5900   -4.5570 h1        1 ID2      0.062700
     21 H5'2       -0.1910    1.4140   -2.7480 h1        1 ID2      0.062700
     22 H4'         2.5380    0.9350   -4.1970 h1        1 ID2      0.103700
     23 H1'         3.2570   -0.6200   -0.9940 h2        1 ID2      0.088700
     24 HN3        -1.7850    0.1170    0.7610 hn        1 ID2      0.357500
     25 H2'1        0.9300   -2.1410   -1.9130 hc        1 ID2      0.082700
     26 H2'2        2.6210   -2.1800   -2.5760 hc        1 ID2      0.082700
     27 H3'         0.1640   -0.8570   -3.7150 h1        1 ID2      0.078700
     28 HO3'        1.5120   -2.1630   -4.9550 ho        1 ID2      0.409000
@<TRIPOS>BOND
     1    1    5 2   
     2    1   11 1   
     3    1   12 1   
     4    2    3 1   
     5    2   12 1   
     6    2   13 2   
     7    3    4 2   
     8    3   14 1   
     9    4   11 1   
    10    4   18 1   
    11    6    7 1   
    12    6   19 1   
    13    7    8 1   
    14    7   20 1   
    15    7   21 1   
    16    8    9 1   
    17    8   16 1   
    18    8   22 1   
    19    9   10 1   
    20   10   11 1   
    21   10   15 1   
    22   10   23 1   
    23   12   24 1   
    24   15   16 1   
    25   15   25 1   
    26   15   26 1   
    27   16   17 1   
    28   16   27 1   
    29   17   28 1   
@<TRIPOS>SUBSTRUCTURE
     1 ID2         1 TEMP              0 ****  ****    0 ROOT
