@<TRIPOS>MOLECULE
ID2
   28    29     1     0     0
SMALL
bcc


@<TRIPOS>ATOM
      1 C2         -0.0690   -0.1840   -0.3270 c         1 ID2      0.811500
      2 C4         -0.2570    0.5170    2.0410 c         1 ID2      0.729700
      3 C5          1.2110    0.5850    2.0750 cc        1 ID2     -0.189400
      4 C6          1.9290    0.2640    0.9620 cd        1 ID2      0.093600
      5 O2         -0.6500   -0.4810   -1.3940 o         1 ID2     -0.649500
      6 O5'         1.0380    3.0020   -3.3900 oh        1 ID2     -0.592800
      7 C5'         0.5980    1.6680   -3.5320 c3        1 ID2      0.116400
      8 C4'         1.7660    0.6880   -3.4370 c3        1 ID2      0.097100
      9 O4'         2.3700    0.8050   -2.1380 os        1 ID2     -0.431600
     10 C1'         2.2190   -0.4010   -1.3800 c3        1 ID2      0.315500
     11 N1          1.3530   -0.1770   -0.2180 n         1 ID2     -0.384000
     12 N3         -0.8220    0.1280    0.8100 n         1 ID2     -0.583500
     13 O4         -1.0290    0.7680    2.9780 o         1 ID2     -0.583500
     14 I           2.1640    1.1530    3.7490 i         1 ID2     -0.059800
     15 C2'         1.7660   -1.5070   -2.3510 c3        1 ID2     -0.137400
     16 C3'         1.3140   -0.7730   -3.6200 c3        1 ID2      0.124100
     17 O3'         1.9690   -1.2750   -4.7720 oh        1 ID2     -0.590800
     18 H6          3.0380    0.3250    0.9510 h4        1 ID2      0.176000
     19 HO5'        1.5090    3.0580   -2.5490 ho        1 ID2      0.409000
     20 H5'1        0.1420    1.6180   -4.5560 h1        1 ID2      0.062700
     21 H5'2       -0.1750    1.4240   -2.7540 h1        1 ID2      0.062700
     22 H4'         2.5750    0.9640   -4.1680 h1        1 ID2      0.103700
     23 H1'         3.2520   -0.6200   -0.9710 h2        1 ID2      0.088700
     24 HN3        -1.8160    0.0910    0.7190 hn        1 ID2      0.357500
     25 H2'1        0.9420   -2.1360   -1.9370 hc        1 ID2      0.082700
     26 H2'2        2.6420   -2.1670   -2.5770 hc        1 ID2      0.082700
     27 H3'         0.1980   -0.8370   -3.7370 h1        1 ID2      0.078700
     28 HO3'        1.5660   -2.1290   -4.9710 ho        1 ID2      0.409000
@<TRIPOS>BOND
     1    1    5 2   
     2    1   11 1   
     3    1   12 1   
     4    2    3 1   
     5    2   12 1   
     6    2   13 2   
     7    3    4 2   
     8    3   14 1   
     9    4   11 1   
    10    4   18 1   
    11    6    7 1   
    12    6   19 1   
    13    7    8 1   
    14    7   20 1   
    15    7   21 1   
    16    8    9 1   
    17    8   16 1   
    18    8   22 1   
    19    9   10 1   
    20   10   11 1   
    21   10   15 1   
    22   10   23 1   
    23   12   24 1   
    24   15   16 1   
    25   15   25 1   
    26   15   26 1   
    27   16   17 1   
    28   16   27 1   
    29   17   28 1   
@<TRIPOS>SUBSTRUCTURE
     1 ID2         1 TEMP              0 ****  ****    0 ROOT
