@<TRIPOS>MOLECULE
ID2
   28    26     1     0     0
SMALL
bcc


@<TRIPOS>ATOM
      1 C2         -1.8140   -1.1220    0.4010 c1        1 ID2      0.384000
      2 C4         -1.8490   -1.0390    2.8930 c1        1 ID2      0.384000
      3 C5         -0.3810   -1.0970    2.9040 c1        1 ID2     -0.459000
      4 C6          0.3580   -1.1220    1.6320 c1        1 ID2      0.098000
      5 O2         -2.4210   -1.2310   -0.6460 o         1 ID2     -0.337000
      6 O5'         1.4790    2.9320   -0.0380 oh        1 ID2     -0.332000
      7 C5'         1.0010    1.6100    0.0690 c3        1 ID2     -0.041000
      8 C4'         1.5040    0.7960   -1.1030 c3        1 ID2     -0.020000
      9 O4'         1.5720   -0.7600   -0.7060 os        1 ID2     -0.269000
     10 C1'         0.3670   -1.2210   -0.8440 c3        1 ID2      0.167000
     11 N1         -0.3520   -1.1220    0.4010 n1        1 ID2     -0.290000
     12 N3         -2.5460   -0.9910    1.6590 n3        1 ID2     -0.362000
     13 O4         -2.4630   -0.9910    3.9410 o         1 ID2     -0.337000
     14 I           0.6510   -1.3320    4.7260 i         1 ID2      0.205000
     15 C2'        -0.2890   -0.3180   -1.9170 c3        1 ID2     -0.191000
     16 C3'         0.6740    0.8840   -2.0920 c3        1 ID2      0.017000
     17 O3'         1.4020    0.7760   -3.3860 oh        1 ID2     -0.314000
     18 H6          1.3340   -1.1410    1.6330 ha        1 ID2      0.187000
     19 HO5'        1.3710    3.3490    0.7390 ho        1 ID2      0.214000
     20 H5'1        0.0250    1.6150    0.0680 h1        1 ID2      0.077000
     21 H5'2        1.3230    1.2140    0.9020 h1        1 ID2      0.077000
     22 H4'         2.3860    1.1110   -1.3760 h1        1 ID2      0.138000
     23 H1'         0.3920   -2.1480   -1.1490 h2        1 ID2      0.147000
     24 HN3        -3.4570   -0.9550    1.6530 hn        1 ID2      0.271000
     25 H2'1       -0.3790   -0.8050   -2.7580 hc        1 ID2      0.134500
     26 H2'2       -1.1630   -0.0090   -1.6090 hc        1 ID2      0.134500
     27 H3'         0.1800    1.7250   -2.0480 h1        1 ID2      0.102000
     28 HO3'        1.0960    1.3900   -3.9500 ho        1 ID2      0.217000
@<TRIPOS>BOND
     1    1    5 1   
     2    1   12 1   
     3    2   12 1   
     4    2   13 1   
     5    3    4 1   
     6    3   14 1   
     7    4   18 1   
     8    6    7 1   
     9    6   19 1   
    10    7    8 1   
    11    7   20 1   
    12    7   21 1   
    13    8    9 1   
    14    8   16 1   
    15    8   22 1   
    16    9   10 1   
    17   10   11 1   
    18   10   15 1   
    19   10   23 1   
    20   12   24 1   
    21   15   16 1   
    22   15   25 1   
    23   15   26 1   
    24   16   17 1   
    25   16   27 1   
    26   17   28 1   
@<TRIPOS>SUBSTRUCTURE
     1 ID2         1 TEMP              0 ****  ****    0 ROOT
