@<TRIPOS>MOLECULE
ID3
   34    34     1     0     0
SMALL
bcc


@<TRIPOS>ATOM
      1 C1         -0.0270    0.1450   -0.0790 c3        1 ID3     -0.003800
      2 O1         -3.8090    0.9040    1.0360 o         1 ID3     -0.525100
      3 C2          1.2900   -0.2860    0.5750 c3        1 ID3     -0.069400
      4 C3          1.3970    0.1820    2.0070 c3        1 ID3     -0.076400
      5 C4          1.3330    1.6910    2.0860 c3        1 ID3     -0.040200
      6 C5          0.2700    2.2760    1.2210 c2        1 ID3     -0.102400
      7 C6         -0.3470    1.5850    0.2430 ce        1 ID3     -0.090200
      8 C7         -1.3360    2.2060   -0.6400 ce        1 ID3     -0.067000
      9 C8         -2.6360    2.4000   -0.4060 cf        1 ID3     -0.254200
     10 C9         -3.3840    2.0420    0.8150 c         1 ID3      0.574300
     11 C16        -1.1600   -0.7520    0.4090 c3        1 ID3     -0.088600
     12 C17         0.1180   -0.0280   -1.5890 c3        1 ID3     -0.088600
     13 C18        -0.0160    3.7040    1.5120 c3        1 ID3     -0.063900
     14 C19        -3.6460    3.1850    1.7460 c3        1 ID3     -0.202100
     15 H2          2.1470    0.1340   -0.0160 hc        1 ID3      0.042200
     16 H2A         1.3660   -1.4030    0.5340 hc        1 ID3      0.042200
     17 H3          0.5670   -0.2650    2.6160 hc        1 ID3      0.043700
     18 H4          1.1610    2.0040    3.1510 hc        1 ID3      0.047700
     19 H7         -0.9100    2.5300   -1.6100 ha        1 ID3      0.130000
     20 H8         -3.2730    2.8750   -1.1730 ha        1 ID3      0.142000
     21 H16        -0.9780   -1.8050    0.0850 hc        1 ID3      0.039867
     22 H16A       -1.2320   -0.7260    1.5220 hc        1 ID3      0.039867
     23 H16B       -2.1370   -0.4060   -0.0110 hc        1 ID3      0.039867
     24 H17         0.4720   -1.0620   -1.8180 hc        1 ID3      0.039867
     25 H17A        0.8560    0.7020   -1.9980 hc        1 ID3      0.039867
     26 H17B       -0.8650    0.1310   -2.0950 hc        1 ID3      0.039867
     27 H18        -0.4260    3.8090    2.5480 hc        1 ID3      0.042367
     28 H18A       -0.7550    4.1370    0.7930 hc        1 ID3      0.042367
     29 H18B        0.9280    4.3010    1.4500 hc        1 ID3      0.042367
     30 H19        -2.6720    3.6040    2.1020 hc        1 ID3      0.064033
     31 H19A       -4.2060    3.9880    1.2090 hc        1 ID3      0.064033
     32 H19B       -4.2440    2.8490    2.6270 hc        1 ID3      0.064033
     33 H3A         2.3640   -0.1750    2.4490 hc        1 ID3      0.043700
     34 H4A         2.3210    2.1270    1.7690 hc        1 ID3      0.047700
@<TRIPOS>BOND
     1    1    3 1   
     2    1    7 1   
     3    1   11 1   
     4    1   12 1   
     5    2   10 2   
     6    3    4 1   
     7    3   15 1   
     8    3   16 1   
     9    4    5 1   
    10    4   17 1   
    11    4   33 1   
    12    5    6 1   
    13    5   18 1   
    14    5   34 1   
    15    6    7 2   
    16    6   13 1   
    17    7    8 1   
    18    8    9 2   
    19    8   19 1   
    20    9   10 1   
    21    9   20 1   
    22   10   14 1   
    23   11   21 1   
    24   11   22 1   
    25   11   23 1   
    26   12   24 1   
    27   12   25 1   
    28   12   26 1   
    29   13   27 1   
    30   13   28 1   
    31   13   29 1   
    32   14   30 1   
    33   14   31 1   
    34   14   32 1   
@<TRIPOS>SUBSTRUCTURE
     1 ID3         1 TEMP              0 ****  ****    0 ROOT
