@<TRIPOS>MOLECULE
ID3
   34    34     1     0     0
SMALL
bcc


@<TRIPOS>ATOM
      1 C1         -1.5300    1.0300   -0.1100 c3        1 ID3     -0.006800
      2 O1          3.5040    1.3200    0.7510 o         1 ID3     -0.546100
      3 C2         -2.8350    0.4950   -0.7040 c3        1 ID3     -0.070400
      4 C3         -3.3140   -0.7480    0.0060 c3        1 ID3     -0.077400
      5 C4         -2.2860   -1.8530   -0.0920 c3        1 ID3     -0.044200
      6 C5         -0.8880   -1.3880    0.1300 c2        1 ID3     -0.079400
      7 C6         -0.5320   -0.0850    0.1010 ce        1 ID3     -0.106200
      8 C7          0.8370    0.3710    0.3140 ce        1 ID3     -0.026000
      9 C8          1.9280   -0.1490   -0.2710 cf        1 ID3     -0.280200
     10 C9          3.2770    0.3780   -0.0230 c         1 ID3      0.563300
     11 C16        -1.8160    1.7150    1.2240 c3        1 ID3     -0.087100
     12 C17        -0.9620    2.0630   -1.0800 c3        1 ID3     -0.087100
     13 C18         0.0790   -2.4900    0.3640 c3        1 ID3     -0.068900
     14 C19         4.3750   -0.3050   -0.7760 c3        1 ID3     -0.197100
     15 H2         -3.6190    1.2940   -0.6430 hc        1 ID3      0.043700
     16 H2A        -2.6730    0.2620   -1.7900 hc        1 ID3      0.043700
     17 H3         -3.5180   -0.5150    1.0840 hc        1 ID3      0.043700
     18 H4         -2.5380   -2.6580    0.6510 hc        1 ID3      0.050700
     19 H7          0.9470    1.2320    1.0030 ha        1 ID3      0.147000
     20 H8          1.8630   -0.9910   -0.9780 ha        1 ID3      0.135000
     21 H16        -0.8870    2.1800    1.6330 hc        1 ID3      0.038367
     22 H16A       -2.5790    2.5180    1.0820 hc        1 ID3      0.038367
     23 H16B       -2.2030    0.9800    1.9680 hc        1 ID3      0.038367
     24 H17        -0.6700    1.5760   -2.0410 hc        1 ID3      0.038367
     25 H17A       -1.7320    2.8430   -1.2940 hc        1 ID3      0.038367
     26 H17B       -0.0640    2.5620   -0.6450 hc        1 ID3      0.038367
     27 H18        -0.4040   -3.3280    0.9260 hc        1 ID3      0.046367
     28 H18A        0.4400   -2.8920   -0.6170 hc        1 ID3      0.046367
     29 H18B        0.9660   -2.1430    0.9500 hc        1 ID3      0.046367
     30 H19         4.1890   -0.2150   -1.8740 hc        1 ID3      0.062033
     31 H19A        5.3640    0.1530   -0.5360 hc        1 ID3      0.062033
     32 H19B        4.3990   -1.3880   -0.5060 hc        1 ID3      0.062033
     33 H3A        -4.2790   -1.0950   -0.4480 hc        1 ID3      0.043700
     34 H4A        -2.3330   -2.3230   -1.1140 hc        1 ID3      0.050700
@<TRIPOS>BOND
     1    1    3 1   
     2    1    7 1   
     3    1   11 1   
     4    1   12 1   
     5    2   10 2   
     6    3    4 1   
     7    3   15 1   
     8    3   16 1   
     9    4    5 1   
    10    4   17 1   
    11    4   33 1   
    12    5    6 1   
    13    5   18 1   
    14    5   34 1   
    15    6    7 2   
    16    6   13 1   
    17    7    8 1   
    18    8    9 2   
    19    8   19 1   
    20    9   10 1   
    21    9   20 1   
    22   10   14 1   
    23   11   21 1   
    24   11   22 1   
    25   11   23 1   
    26   12   24 1   
    27   12   25 1   
    28   12   26 1   
    29   13   27 1   
    30   13   28 1   
    31   13   29 1   
    32   14   30 1   
    33   14   31 1   
    34   14   32 1   
@<TRIPOS>SUBSTRUCTURE
     1 ID3         1 TEMP              0 ****  ****    0 ROOT
