@<TRIPOS>MOLECULE
ID3
   34    34     1     0     0
SMALL
bcc


@<TRIPOS>ATOM
      1 C1         -0.0160    0.1560   -0.0830 c3        1 ID3     -0.003800
      2 O1         -3.8270    0.9430    0.9160 o         1 ID3     -0.525100
      3 C2          1.2720   -0.3070    0.6040 c3        1 ID3     -0.069400
      4 C3          1.3370    0.1270    2.0500 c3        1 ID3     -0.076400
      5 C4          1.2900    1.6350    2.1600 c3        1 ID3     -0.040200
      6 C5          0.2650    2.2540    1.2740 c2        1 ID3     -0.102400
      7 C6         -0.3280    1.5930    0.2600 ce        1 ID3     -0.090200
      8 C7         -1.2780    2.2470   -0.6420 ce        1 ID3     -0.067000
      9 C8         -2.5820    2.4540   -0.4480 cf        1 ID3     -0.254200
     10 C9         -3.3760    2.0790    0.7380 c         1 ID3      0.574300
     11 C16        -1.1770   -0.7350    0.3460 c3        1 ID3     -0.088600
     12 C17         0.1770    0.0150   -1.5910 c3        1 ID3     -0.088600
     13 C18        -0.0110    3.6780    1.5860 c3        1 ID3     -0.063900
     14 C19        -3.6520    3.2020    1.6880 c3        1 ID3     -0.202100
     15 H2          1.3340   -1.4250    0.5410 hc        1 ID3      0.042200
     16 H2A         2.1540    0.1130    0.0530 hc        1 ID3      0.042200
     17 H3          0.4810   -0.3210    2.6210 hc        1 ID3      0.043700
     18 H4          2.2940    2.0630    1.8870 hc        1 ID3      0.047700
     19 H7         -0.8140    2.5880   -1.5890 ha        1 ID3      0.130000
     20 H8         -3.1860    2.9550   -1.2250 ha        1 ID3      0.142000
     21 H16        -0.9990   -1.7830    0.0050 hc        1 ID3      0.039867
     22 H16A       -1.2860   -0.7330    1.4560 hc        1 ID3      0.039867
     23 H16B       -2.1340   -0.3670   -0.0980 hc        1 ID3      0.039867
     24 H17        -0.7850    0.1980   -2.1260 hc        1 ID3      0.039867
     25 H17A        0.9380    0.7430   -1.9590 hc        1 ID3      0.039867
     26 H17B        0.5240   -1.0190   -1.8310 hc        1 ID3      0.039867
     27 H18         0.9430    4.2630    1.5680 hc        1 ID3      0.042367
     28 H18A       -0.7200    4.1370    0.8540 hc        1 ID3      0.042367
     29 H18B       -0.4530    3.7670    2.6110 hc        1 ID3      0.042367
     30 H19        -4.1800    4.0280    1.1530 hc        1 ID3      0.064033
     31 H19A       -4.2850    2.8540    2.5400 hc        1 ID3      0.064033
     32 H19B       -2.6840    3.5960    2.0880 hc        1 ID3      0.064033
     33 H3A         2.2830   -0.2540    2.5160 hc        1 ID3      0.043700
     34 H4A         1.0860    1.9260    3.2260 hc        1 ID3      0.047700
@<TRIPOS>BOND
     1    1    3 1   
     2    1    7 1   
     3    1   11 1   
     4    1   12 1   
     5    2   10 2   
     6    3    4 1   
     7    3   15 1   
     8    3   16 1   
     9    4    5 1   
    10    4   17 1   
    11    4   33 1   
    12    5    6 1   
    13    5   18 1   
    14    5   34 1   
    15    6    7 2   
    16    6   13 1   
    17    7    8 1   
    18    8    9 2   
    19    8   19 1   
    20    9   10 1   
    21    9   20 1   
    22   10   14 1   
    23   11   21 1   
    24   11   22 1   
    25   11   23 1   
    26   12   24 1   
    27   12   25 1   
    28   12   26 1   
    29   13   27 1   
    30   13   28 1   
    31   13   29 1   
    32   14   30 1   
    33   14   31 1   
    34   14   32 1   
@<TRIPOS>SUBSTRUCTURE
     1 ID3         1 TEMP              0 ****  ****    0 ROOT
