@<TRIPOS>MOLECULE
ID3
   34    33     1     0     0
SMALL
bcc


@<TRIPOS>ATOM
      1 C1          0.2240   -1.2810   -0.5850 c3        1 ID3     -0.007000
      2 O1         -0.0210    2.0170   -0.6720 o         1 ID3     -0.286000
      3 C2          1.8430   -1.2840   -0.6100 c3        1 ID3     -0.149000
      4 C3          2.3950   -1.3050    0.4850 c3        1 ID3     -0.155000
      5 C4          2.0100   -0.0940    1.4950 c3        1 ID3     -0.123000
      6 C5          0.5920    0.0640    1.6300 c2        1 ID3     -0.091000
      7 C6         -0.3040   -0.2710    0.2740 c2        1 ID3     -0.087000
      8 C7         -1.7830    0.0460    0.2470 c2        1 ID3     -0.059000
      9 C8         -2.2110    1.2220   -0.2540 c1        1 ID3     -0.239000
     10 C9         -1.2120    2.2240   -0.7900 c1        1 ID3      0.265000
     11 C16        -0.3270   -1.1690   -1.9890 c3        1 ID3     -0.207000
     12 C17        -0.3080   -2.6380   -0.1780 c3        1 ID3     -0.207000
     13 C18         0.0320    0.9720    2.7030 c3        1 ID3     -0.187000
     14 C19        -1.6970    3.4860   -1.4680 c3        1 ID3     -0.269000
     15 H2          2.1380   -2.0700   -1.1160 hc        1 ID3      0.085500
     16 H2A         2.1420   -0.4820   -1.0870 hc        1 ID3      0.085500
     17 H3          2.1690   -2.1510    0.9240 hc        1 ID3      0.080500
     18 H4          2.3930   -0.0910    2.3970 hc        1 ID3      0.088000
     19 H7         -2.4280   -0.6000    0.5930 ha        1 ID3      0.130000
     20 H8         -3.1650    1.4270   -0.2710 ha        1 ID3      0.140000
     21 H16         0.0600   -1.8740   -2.5490 hc        1 ID3      0.078500
     22 H16A       -0.0970   -0.2920   -2.3610 hc        1 ID3      0.078500
     23 H16B       -1.3020   -1.2680   -1.9660 hc        1 ID3      0.078500
     24 H17         0.1640   -3.3370   -0.6770 hc        1 ID3      0.078500
     25 H17A       -0.1650   -2.7690    0.7830 hc        1 ID3      0.078500
     26 H17B       -1.2660   -2.6860   -0.3760 hc        1 ID3      0.078500
     27 H18         0.2860    0.6310    3.5860 hc        1 ID3      0.081667
     28 H18A       -0.9450    0.9980    2.6310 hc        1 ID3      0.081667
     29 H18B        0.3920    1.8770    2.5860 hc        1 ID3      0.081667
     30 H19        -0.9290    3.9870   -1.8150 hc        1 ID3      0.102667
     31 H19A       -2.2940    3.2510   -2.2090 hc        1 ID3      0.102667
     32 H19B       -2.1820    4.0390   -0.8200 hc        1 ID3      0.102667
     33 H3A         3.3640   -1.2840    0.3390 hc        1 ID3      0.080500
     34 H4A         2.4350    0.7050    1.1210 hc        1 ID3      0.088000
@<TRIPOS>BOND
     1    1    3 1   
     2    1    7 1   
     3    1   11 1   
     4    1   12 1   
     5    2   10 1   
     6    3    4 1   
     7    3   15 1   
     8    3   16 1   
     9    4    5 1   
    10    4   17 1   
    11    4   33 1   
    12    5    6 1   
    13    5   18 1   
    14    5   34 1   
    15    6    7 1   
    16    6   13 1   
    17    7    8 1   
    18    8    9 1   
    19    8   19 1   
    20    9   20 1   
    21   10   14 1   
    22   11   21 1   
    23   11   22 1   
    24   11   23 1   
    25   12   24 1   
    26   12   25 1   
    27   12   26 1   
    28   13   27 1   
    29   13   28 1   
    30   13   29 1   
    31   14   30 1   
    32   14   31 1   
    33   14   32 1   
@<TRIPOS>SUBSTRUCTURE
     1 ID3         1 TEMP              0 ****  ****    0 ROOT
