@<TRIPOS>MOLECULE
ID4
   43    42     1     0     0
SMALL
bcc


@<TRIPOS>ATOM
      1 CAL        -0.8930   -0.7990    1.2590 c3        1 ID4     -0.239000
      2 CAJ         1.8100    1.2320   -1.4630 c2        1 ID4     -0.256000
      3 CAI         2.0750    0.7860   -0.2350 c2        1 ID4     -0.157000
      4 CAK         2.3410    1.6590    0.9260 c3        1 ID4     -0.202000
      5 CAM        -3.3180   -0.3010    1.6040 c1        1 ID4     -0.001000
      6 CAW        -5.6850   -0.1400   -5.5520 ca        1 ID4     -1.011000
      7 CAT        -4.7170    0.8710   -5.7970 ca        1 ID4      0.194500
      8 CAH        -2.3420    0.3760   -1.5490 c1        1 ID4      0.073000
      9 NAO        -1.8830    2.7260   -1.3810 n2        1 ID4      0.000000
     10 CAU        -5.6150   -0.7620   -4.2720 ca        1 ID4      0.194500
     11 CAR        -3.7880    1.2920   -4.8100 ca        1 ID4      0.060000
     12 FAF        -4.6660    1.4660   -7.0020 f         1 ID4     -0.048500
     13 CAV        -3.7950    0.7150   -3.5090 ca        1 ID4      0.194000
     14 OAB        -8.1160   -0.6540   -6.0590 o         1 ID4     -0.821000
     15 OAC        -6.6900    0.0380   -7.8680 o         1 ID4     -0.821000
     16 NAA        -6.4050   -2.3100   -6.9230 nz        1 ID4     -0.513000
     17 CAS        -4.7210   -0.3530   -3.2650 ca        1 ID4      0.060000
     18 CAQ        -1.5890    1.3900   -0.6730 c3        1 ID4     -0.258000
     19 FAE        -4.7600   -0.9860   -2.0760 f         1 ID4     -0.027000
     20 NAY        -2.9370    1.1630   -2.4990 nh        1 ID4     -0.240000
     21 NAP        -2.5950    2.5760   -2.3450 n2        1 ID4      0.061000
     22 CAN        -1.9560    1.4420    0.7430 c1        1 ID4      0.096000
     23 CAX        -1.9460    0.2430    1.5880 c3        1 ID4     -0.270000
     24 H1         -1.0650   -1.2160    0.2360 hc        1 ID4      0.095667
     25 H2          0.1270   -0.3420    1.2910 hc        1 ID4      0.095667
     26 H3          1.6540    0.5520   -2.3110 ha        1 ID4      0.116500
     27 H4         -0.9300   -1.6350    1.9990 hc        1 ID4      0.095667
     28 H5          2.1350   -0.2970   -0.0270 ha        1 ID4      0.120000
     29 H6          1.7730    2.3010   -1.7110 ha        1 ID4      0.116500
     30 H7          2.1790    2.7390    0.6840 hc        1 ID4      0.091000
     31 H8          3.4030    1.5300    1.2590 hc        1 ID4      0.091000
     32 H9         -3.4300   -1.1880    2.2500 ha        1 ID4      0.058000
     33 H10         1.6760    1.3840    1.7820 hc        1 ID4      0.091000
     34 H11        -0.4570    1.2260   -0.7430 h1        1 ID4      0.233000
     35 H12        -5.6150   -2.6160   -6.3590 hn        1 ID4      0.257667
     36 H13        -6.1670   -2.4610   -7.9030 hn        1 ID4      0.257667
     37 H14        -3.4380   -2.0190    0.0920 ha        1 ID4      0.013500
     38 H15        -3.2950   -1.4650   -0.2810 ha        1 ID4      0.013500
     39 H16        -1.7550    0.6250    2.6500 hc        1 ID4      0.180000
     40 FAG        -6.4460   -1.7980   -4.0120 f         1 ID4     -0.048500
     41 FAD        -2.9010    2.2470   -5.1570 f         1 ID4     -0.027000
     42 HAA3       -7.1940   -2.9170   -6.6960 hn        1 ID4      0.257667
     43 SAZ        -6.8700   -0.4910   -6.6140 s6        1 ID4      2.824000
@<TRIPOS>BOND
     1    1   23 1   
     2    1   24 1   
     3    1   25 1   
     4    1   27 1   
     5    2    3 1   
     6    2   26 1   
     7    2   29 1   
     8    3    4 1   
     9    3   28 1   
    10    4   30 1   
    11    4   31 1   
    12    4   33 1   
    13    5   23 1   
    14    5   32 1   
    15    6    7 1   
    16    6   10 1   
    17    6   43 1   
    18    7   11 1   
    19    7   12 1   
    20    8   18 1   
    21    8   20 1   
    22    9   18 1   
    23    9   21 1   
    24   10   17 1   
    25   10   40 1   
    26   11   13 1   
    27   11   41 1   
    28   13   17 1   
    29   13   20 1   
    30   14   43 1   
    31   15   43 1   
    32   16   35 1   
    33   16   36 1   
    34   16   42 1   
    35   16   43 1   
    36   17   19 1   
    37   18   22 1   
    38   18   34 1   
    39   20   21 1   
    40   22   23 1   
    41   23   39 1   
    42   37   38 1   
@<TRIPOS>SUBSTRUCTURE
     1 ID4         1 TEMP              0 ****  ****    0 ROOT
