@<TRIPOS>MOLECULE
ID4
   42    44     1     0     0
SMALL
bcc


@<TRIPOS>ATOM
      1 CAL        -4.9840   -0.5860    1.1430 c3        1 ID4     -0.073900
      2 CAJ        -6.0220   -0.1290    2.1470 c3        1 ID4     -0.076400
      3 CAI        -7.4190   -0.5130    1.7060 c3        1 ID4     -0.077400
      4 CAK        -7.7200    0.0160    0.3190 c3        1 ID4     -0.076400
      5 CAM        -6.6790   -0.4350   -0.6850 c3        1 ID4     -0.073900
      6 CAW         3.4530   -0.1460    0.0420 ca        1 ID4     -0.370500
      7 CAT         2.7450    0.9420    0.5850 ca        1 ID4      0.217900
      8 CAH        -1.7130   -0.6370   -0.7780 cc        1 ID4     -0.199600
      9 NAO        -2.5880    1.4270   -1.1140 nd        1 ID4     -0.332000
     10 CAU         2.7220   -1.0590   -0.7380 ca        1 ID4      0.217900
     11 CAR         1.3540    1.1320    0.3680 ca        1 ID4      0.070400
     12 FAF         3.3810    1.8510    1.3580 f         1 ID4     -0.093400
     13 CAV         0.6280    0.2160   -0.4400 ca        1 ID4      0.058800
     14 OAB         5.5420   -1.5790   -0.2060 o         1 ID4     -0.631800
     15 OAC         5.7740    0.8140   -0.2830 o         1 ID4     -0.631800
     16 NAA         5.2960   -0.2910    1.8680 n3        1 ID4     -1.029700
     17 CAS         1.3330   -0.8860   -0.9890 ca        1 ID4      0.070400
     18 CAQ        -2.9110    0.0350   -1.0480 cd        1 ID4      0.288600
     19 FAE         0.7070   -1.8040   -1.7620 f         1 ID4     -0.098900
     20 SAZ         5.1750   -0.3180    0.2830 sy        1 ID4      1.524200
     21 NAY        -0.7480    0.3960   -0.6910 na        1 ID4      0.078300
     22 NAP        -1.3600    1.6050   -0.9090 nc        1 ID4     -0.121800
     23 CAN        -4.2590   -0.5220   -1.2620 c3        1 ID4     -0.095700
     24 CAX        -5.2790   -0.0300   -0.2430 c3        1 ID4     -0.062700
     25 H1         -3.9670   -0.2460    1.4710 hc        1 ID4      0.038950
     26 H2         -4.9700   -1.7070    1.1020 hc        1 ID4      0.038950
     27 H3         -5.8030   -0.5900    3.1460 hc        1 ID4      0.041200
     28 H4         -5.9600    0.9840    2.2680 hc        1 ID4      0.041200
     29 H5         -7.5190   -1.6300    1.7090 hc        1 ID4      0.039700
     30 H6         -8.1680   -0.1060    2.4340 hc        1 ID4      0.039700
     31 H7         -8.7320   -0.3400   -0.0080 hc        1 ID4      0.041200
     32 H8         -7.7500    1.1380    0.3460 hc        1 ID4      0.041200
     33 H9         -6.7260   -1.5500   -0.8000 hc        1 ID4      0.038950
     34 H10        -6.9020    0.0180   -1.6850 hc        1 ID4      0.038950
     35 H11        -1.4640   -1.6890   -0.6550 h4        1 ID4      0.205000
     36 H12         5.3150    0.5430    2.4030 hn        1 ID4      0.458300
     37 H13         5.3660   -1.1050    2.4270 hn        1 ID4      0.458300
     38 H14        -4.6090   -0.2370   -2.2940 hc        1 ID4      0.059200
     39 H15        -4.1970   -1.6430   -1.2220 hc        1 ID4      0.059200
     40 H16        -5.2340    1.0940   -0.1950 hc        1 ID4      0.069700
     41 FAG         3.3190   -2.1340   -1.2900 f         1 ID4     -0.093400
     42 FAD         0.7560    2.1900    0.9550 f         1 ID4     -0.098900
@<TRIPOS>BOND
     1    1    2 1   
     2    1   24 1   
     3    1   25 1   
     4    1   26 1   
     5    2    3 1   
     6    2   27 1   
     7    2   28 1   
     8    3    4 1   
     9    3   29 1   
    10    3   30 1   
    11    4    5 1   
    12    4   31 1   
    13    4   32 1   
    14    5   24 1   
    15    5   33 1   
    16    5   34 1   
    17    6    7 ar  
    18    6   10 ar  
    19    6   20 1   
    20    7   11 ar  
    21    7   12 1   
    22    8   18 2   
    23    8   21 1   
    24    8   35 1   
    25    9   18 1   
    26    9   22 2   
    27   10   17 ar  
    28   10   41 1   
    29   11   13 ar  
    30   11   42 1   
    31   13   17 ar  
    32   13   21 1   
    33   14   20 2   
    34   15   20 2   
    35   16   20 1   
    36   16   36 1   
    37   16   37 1   
    38   17   19 1   
    39   18   23 1   
    40   21   22 1   
    41   23   24 1   
    42   23   38 1   
    43   23   39 1   
    44   24   40 1   
@<TRIPOS>SUBSTRUCTURE
     1 ID4         1 TEMP              0 ****  ****    0 ROOT
