@<TRIPOS>MOLECULE
ID5
   37    39     1     0     0
SMALL
bcc


@<TRIPOS>ATOM
      1 C2         -1.8670    0.2360    4.7610 ca        1 ID5     -0.250000
      2 C3         -2.9300   -0.9070    2.4300 ca        1 ID5     -0.036000
      3 C4         -1.0140   -0.2250    3.7470 ca        1 ID5      0.198100
      4 C5         -3.2540    0.1170    4.5920 ca        1 ID5      0.160900
      5 C6         -3.7910   -0.4650    3.4280 ca        1 ID5     -0.227000
      6 C7         -1.5460   -0.7760    2.5590 ca        1 ID5     -0.180600
      7 F9         -4.0880    0.5580    5.5660 f         1 ID5     -0.153900
      8 C11        -0.6790   -1.2310    1.4310 c         1 ID5      0.681700
      9 C13         1.1040   -0.5240   -1.2850 cc        1 ID5      0.401200
     10 O15         0.3480   -0.2420    3.8860 os        1 ID5     -0.316900
     11 O16        -0.9510   -2.2750    0.7930 o         1 ID5     -0.653100
     12 C18         1.3830   -0.8370    0.1630 c3        1 ID5      0.072700
     13 C20         0.9440    0.8710    4.5720 c3        1 ID5     -0.010600
     14 N21         0.4260    0.5040   -1.7620 nd        1 ID5     -0.495100
     15 S22         1.7650   -1.6070   -2.4850 ss        1 ID5     -0.008100
     16 C24         1.1330   -0.6590   -3.7280 ca        1 ID5     -0.134100
     17 C25        -0.1240    1.2160   -5.4090 ca        1 ID5      0.093900
     18 C26         0.4230    0.4530   -3.1640 ca        1 ID5      0.097400
     19 C27         1.2000   -0.8060   -5.1280 ca        1 ID5      0.173900
     20 C28         0.5770    0.1230   -5.9610 ca        1 ID5     -0.190000
     21 C29        -0.2120    1.3980   -4.0120 ca        1 ID5      0.136900
     22 C32         2.2790    1.1940    3.8510 c         1 ID5      0.925600
     23 O33         3.2040    1.6330    4.5800 o         1 ID5     -0.823800
     24 O34         2.3450    1.0340    2.5990 o         1 ID5     -0.823800
     25 N36         0.3750   -0.4160    1.0840 n         1 ID5     -0.520900
     26 H2         -1.4510    0.6790    5.6760 ha        1 ID5      0.157000
     27 H3         -3.3340   -1.3670    1.5130 ha        1 ID5      0.151000
     28 H6         -4.8790   -0.5600    3.3170 ha        1 ID5      0.139000
     29 H181        2.3460   -0.3080    0.4490 h1        1 ID5      0.092200
     30 H182        1.5330   -1.9560    0.2290 h1        1 ID5      0.092200
     31 H201        1.1200    0.5560    5.6300 h1        1 ID5      0.037200
     32 H202        0.2820    1.7710    4.5410 h1        1 ID5      0.037200
     33 H28         0.6270    0.0110   -7.0540 ha        1 ID5      0.161000
     34 H36         0.6670    0.3100    1.7260 hn        1 ID5      0.383500
     35 F14         1.8680   -1.8480   -5.6790 f         1 ID5     -0.133900
     36 F8         -0.7200    2.1030   -6.2420 f         1 ID5     -0.131900
     37 F23        -0.8880    2.4500   -3.5090 f         1 ID5     -0.103900
@<TRIPOS>BOND
     1    1    3 ar  
     2    1    4 ar  
     3    1   26 1   
     4    2    5 ar  
     5    2    6 ar  
     6    2   27 1   
     7    3    6 ar  
     8    3   10 1   
     9    4    5 ar  
    10    4    7 1   
    11    5   28 1   
    12    6    8 1   
    13    8   11 2   
    14    8   25 1   
    15    9   12 1   
    16    9   14 2   
    17    9   15 1   
    18   10   13 1   
    19   12   25 1   
    20   12   29 1   
    21   12   30 1   
    22   13   22 1   
    23   13   31 1   
    24   13   32 1   
    25   14   18 1   
    26   15   16 1   
    27   16   18 ar  
    28   16   19 ar  
    29   17   20 ar  
    30   17   21 ar  
    31   17   36 1   
    32   18   21 ar  
    33   19   20 ar  
    34   19   35 1   
    35   20   33 1   
    36   21   37 1   
    37   22   23 1   
    38   22   24 1   
    39   25   34 1   
@<TRIPOS>SUBSTRUCTURE
     1 ID5         1 TEMP              0 ****  ****    0 ROOT
