@<TRIPOS>MOLECULE
ID5
   37    34     1     0     0
SMALL
bcc


@<TRIPOS>ATOM
      1 C2         -4.3050    0.7550   -2.3170 c1        1 ID5     -0.222000
      2 C3         -2.9250    0.8020    0.1070 c1        1 ID5     -0.125500
      3 C4         -2.9070    0.7910   -2.3070 c1        1 ID5      0.139000
      4 C5         -5.0110    0.7420   -1.1150 c1        1 ID5      0.120000
      5 C6         -4.3230    0.7660    0.0970 c1        1 ID5     -0.125500
      6 C7         -2.2200    0.8150   -1.0960 c1        1 ID5     -0.141000
      7 F8          4.4120   -1.6880    6.4050 f         1 ID5     -0.117000
      8 F9         -6.3550    0.6450   -1.1250 f         1 ID5     -0.114000
      9 C11        -0.6570    0.8670   -1.0860 c2        1 ID5      0.354000
     10 C13         2.0660    0.3720    1.3490 c1        1 ID5     -0.370000
     11 F14         6.0780   -1.6430    1.8810 f         1 ID5     -0.106000
     12 O15        -2.1910    0.8120   -3.5240 os        1 ID5     -0.223000
     13 O16        -0.0420    0.8780   -2.1360 o         1 ID5     -0.410000
     14 C18         1.4890    1.1190    0.1550 c2        1 ID5      0.040000
     15 C20        -2.5200   -0.2480   -4.4020 c3        1 ID5     -0.069000
     16 N21         1.7650    0.2190    2.7340 n2        1 ID5     -0.135000
     17 S22         3.4200   -0.3130    1.0810 ss        1 ID5      0.863000
     18 F23         2.3350   -0.5020    5.6710 f         1 ID5     -0.097000
     19 C24         3.9180   -0.8950    2.4170 c1        1 ID5     -0.481000
     20 C25         4.2950   -1.7220    5.0690 c2        1 ID5      0.032000
     21 C26         2.9440   -0.5880    3.4160 c1        1 ID5     -0.059000
     22 C27         5.0630   -1.6100    2.7590 c2        1 ID5      0.150000
     23 C28         5.2580   -2.0270    4.0830 c2        1 ID5     -0.218000
     24 C29         3.1410   -1.0030    4.7270 c2        1 ID5      0.081000
     25 C32        -1.6150   -0.1920   -5.6250 c2        1 ID5      0.309000
     26 O33        -1.7160    0.7660   -6.4430 o         1 ID5     -0.509500
     27 O34        -0.7990   -1.1230   -5.8450 o         1 ID5     -0.509500
     28 N36         0.0420    0.9780    0.1480 n         1 ID5     -0.359000
     29 H2         -4.7840    0.6620   -3.1650 ha        1 ID5      0.154000
     30 H3         -2.4440    0.8190    0.9540 ha        1 ID5      0.155000
     31 H6         -4.8190    0.6840    0.9470 ha        1 ID5      0.155000
     32 H181        1.8580    0.7450   -0.6750 h4        1 ID5      0.111500
     33 H182        1.7220    2.0600    0.2170 h4        1 ID5      0.111500
     34 H201       -2.3950   -1.1040   -3.9430 h1        1 ID5      0.100500
     35 H202       -3.4500   -0.1620   -4.6820 h1        1 ID5      0.100500
     36 H28         6.0910   -2.4820    4.3360 ha        1 ID5      0.145000
     37 H36        -0.4200    1.0030    0.9310 hn        1 ID5      0.268000
@<TRIPOS>BOND
     1    1    4 1   
     2    1   29 1   
     3    2    5 1   
     4    2   30 1   
     5    3    6 1   
     6    3   12 1   
     7    4    8 1   
     8    5   31 1   
     9    6    9 1   
    10    7   20 1   
    11    9   13 1   
    12    9   28 1   
    13   10   16 1   
    14   10   17 1   
    15   11   22 1   
    16   12   15 1   
    17   14   28 1   
    18   14   32 1   
    19   14   33 1   
    20   15   25 1   
    21   15   34 1   
    22   15   35 1   
    23   16   21 1   
    24   17   19 1   
    25   18   24 1   
    26   19   22 1   
    27   20   23 1   
    28   20   24 1   
    29   21   24 1   
    30   22   23 1   
    31   23   36 1   
    32   25   26 1   
    33   25   27 1   
    34   28   37 1   
@<TRIPOS>SUBSTRUCTURE
     1 ID5         1 TEMP              0 ****  ****    0 ROOT
