@<TRIPOS>MOLECULE
ID5
   37    40     1     0     0
SMALL
bcc


@<TRIPOS>ATOM
      1 C2         -0.2130    1.8820    0.3650 ca        1 ID5     -0.230000
      2 C3          0.2600    0.0680    2.4500 ca        1 ID5     -0.045000
      3 C4          0.9750    1.1280    0.4000 ca        1 ID5      0.221100
      4 C5         -1.1560    1.7110    1.3850 ca        1 ID5      0.151900
      5 C6         -0.9200    0.8060    2.4360 ca        1 ID5     -0.233000
      6 C7          1.2110    0.2000    1.4380 ca        1 ID5     -0.142300
      7 F9         -2.3070    2.4310    1.3630 f         1 ID5     -0.157900
      8 C11         2.5050   -0.6080    1.4380 c3        1 ID5      0.615100
      9 C13         5.5850   -0.2190    2.7580 cc        1 ID5      0.396200
     10 O15         1.8450    1.3850   -0.6200 oh        1 ID5     -0.505100
     11 O16         3.5480    0.3650    1.5890 os        1 ID5     -0.455600
     12 C18         4.8910   -0.0990    1.4070 c3        1 ID5      0.251000
     13 C20         4.9920   -1.3490    0.6500 c2        1 ID5     -0.675200
     14 N21         6.8500    0.1420    2.9430 nd        1 ID5     -0.545100
     15 S22         4.7990   -0.8770    4.1640 ss        1 ID5      0.093900
     16 C24         6.1980   -0.6910    5.0790 ca        1 ID5     -0.173100
     17 C25         8.7480   -0.1800    6.1630 ca        1 ID5      0.087900
     18 C26         7.2310   -0.1210    4.2610 ca        1 ID5      0.100400
     19 C27         6.4720   -0.9930    6.4290 ca        1 ID5      0.177900
     20 C28         7.7320   -0.7410    6.9670 ca        1 ID5     -0.201000
     21 C29         8.5160    0.1360    4.8090 ca        1 ID5      0.126900
     22 C32         3.9160   -1.8010   -0.0970 c2        1 ID5      0.446100
     23 O33         3.7590   -2.7000   -0.9460 o         1 ID5     -0.450000
     24 O34         2.6650   -1.1370    0.1230 os        1 ID5     -0.538900
     25 N36         2.5660   -1.6480    2.4670 n3        1 ID5     -0.944800
     26 H2         -0.3850    2.5920   -0.4540 ha        1 ID5      0.154000
     27 H3          0.4300   -0.6210    3.2930 ha        1 ID5      0.148000
     28 H6         -1.6640    0.6920    3.2340 ha        1 ID5      0.136000
     29 H181        5.3690    0.7750    0.8610 h1        1 ID5      0.065700
     30 H182        1.8220   -2.3000    2.3130 hn        1 ID5      0.372800
     31 H201        5.9650   -1.8280    0.5620 ha        1 ID5      0.142000
     32 H202        2.6270    0.8060   -0.5350 ho        1 ID5      0.473000
     33 H28         7.9470   -0.9770    8.0180 ha        1 ID5      0.156000
     34 H36         3.4460   -2.1310    2.3990 hn        1 ID5      0.372800
     35 F14         5.5110   -1.5320    7.2190 f         1 ID5     -0.137900
     36 F8          9.9650    0.0550    6.7120 f         1 ID5     -0.137900
     37 F23         9.5030    0.6720    4.0610 f         1 ID5     -0.113900
@<TRIPOS>BOND
     1    1    3 ar  
     2    1    4 ar  
     3    1   26 1   
     4    2    5 ar  
     5    2    6 ar  
     6    2   27 1   
     7    3    6 ar  
     8    3   10 1   
     9    4    5 ar  
    10    4    7 1   
    11    5   28 1   
    12    6    8 1   
    13    8   11 1   
    14    8   24 1   
    15    8   25 1   
    16    9   12 1   
    17    9   14 2   
    18    9   15 1   
    19   10   32 1   
    20   11   12 1   
    21   12   13 1   
    22   12   29 1   
    23   13   22 2   
    24   13   31 1   
    25   14   18 1   
    26   15   16 1   
    27   16   18 ar  
    28   16   19 ar  
    29   17   20 ar  
    30   17   21 ar  
    31   17   36 1   
    32   18   21 ar  
    33   19   20 ar  
    34   19   35 1   
    35   20   33 1   
    36   21   37 1   
    37   22   23 1   
    38   22   24 1   
    39   25   30 1   
    40   25   34 1   
@<TRIPOS>SUBSTRUCTURE
     1 ID5         1 TEMP              0 ****  ****    0 ROOT
