@<TRIPOS>MOLECULE
ID6
   44    46     1     0     0
SMALL
bcc


@<TRIPOS>ATOM
      1 Cl          0.2170    0.5860   -1.1250 cl        1 ID6     -0.088400
      2 C14         1.8600    0.3670   -0.7520 ca        1 ID6      0.024400
      3 C13         2.2320   -0.5500    0.2360 ca        1 ID6     -0.124000
      4 C12         3.5800   -0.7230    0.5410 ca        1 ID6     -0.105000
      5 C15         2.8310    1.1030   -1.4380 ca        1 ID6     -0.124000
      6 C16         4.1780    0.9190   -1.1310 ca        1 ID6     -0.105000
      7 C11         4.5580    0.0100   -0.1380 ca        1 ID6     -0.115300
      8 C10         6.0110   -0.1340    0.2150 c3        1 ID6      0.078600
      9 N           6.5250   -1.4770    0.1750 na        1 ID6     -0.051100
     10 C8          6.8090   -2.2050   -0.9840 cc        1 ID6     -0.050600
     11 C9          6.6070   -1.7070   -2.3570 c3        1 ID6     -0.031800
     12 C17         6.8080   -2.2680    1.2950 cc        1 ID6     -0.056600
     13 C18         6.6230   -1.8100    2.6850 c3        1 ID6     -0.049800
     14 C19         7.3140   -3.5070    0.8450 cd        1 ID6     -0.186600
     15 C           7.7360   -4.5960    1.7150 c         1 ID6      0.610900
     16 O           7.2140   -4.7810    2.8300 o         1 ID6     -0.570100
     17 C7          7.3140   -3.4700   -0.5970 cd        1 ID6     -0.113800
     18 C4          7.7170   -4.5250   -1.4920 cd        1 ID6      0.228900
     19 O1          7.1820   -4.3350   -2.7570 os        1 ID6     -0.343900
     20 C5          7.3120   -5.4170   -3.6870 c3        1 ID6      0.126400
     21 C6          6.4630   -5.0430   -4.8810 c3        1 ID6     -0.101100
     22 C3          8.5510   -5.5580   -1.2020 cc        1 ID6     -0.273000
     23 C2          9.1870   -5.8320    0.0500 cc        1 ID6     -0.030000
     24 C1          8.8580   -5.4370    1.2890 cd        1 ID6     -0.261200
     25 H13         1.4670   -1.1330    0.7720 ha        1 ID6      0.151500
     26 H15         2.5370    1.8230   -2.2180 ha        1 ID6      0.151500
     27 H12         3.8750   -1.4480    1.3170 ha        1 ID6      0.143500
     28 H16         4.9420    1.4940   -1.6770 ha        1 ID6      0.143500
     29 H101        6.6330    0.4980   -0.4860 h1        1 ID6      0.072200
     30 H102        6.1600    0.2650    1.2630 h1        1 ID6      0.072200
     31 H91C        5.8060   -2.3140   -2.8530 hc        1 ID6      0.056700
     32 H92C        7.5520   -1.8450   -2.9420 hc        1 ID6      0.056700
     33 H93C        6.3100   -0.6300   -2.3870 hc        1 ID6      0.056700
     34 H181        5.5650   -1.4930    2.8650 hc        1 ID6      0.061700
     35 H182        7.2970   -0.9450    2.9130 hc        1 ID6      0.061700
     36 H183        6.8640   -2.6490    3.3880 hc        1 ID6      0.061700
     37 H1          9.4620   -5.8010    2.1420 ha        1 ID6      0.142000
     38 H3          8.8130   -6.2800   -1.9950 ha        1 ID6      0.131000
     39 H51C        8.3910   -5.5240   -3.9770 h1        1 ID6      0.041700
     40 H52C        6.9510   -6.3690   -3.2160 h1        1 ID6      0.041700
     41 H61C        6.8170   -4.0840   -5.3280 hc        1 ID6      0.048700
     42 H62C        5.3960   -4.9170   -4.5770 hc        1 ID6      0.048700
     43 H63C        6.5340   -5.8520   -5.6460 hc        1 ID6      0.048700
     44 H2         10.0640   -6.5060   -0.0470 ha        1 ID6      0.120000
@<TRIPOS>BOND
     1    1    2 1   
     2    2    3 ar  
     3    2    5 ar  
     4    3    4 ar  
     5    3   25 1   
     6    4    7 ar  
     7    4   27 1   
     8    5    6 ar  
     9    5   26 1   
    10    6    7 ar  
    11    6   28 1   
    12    7    8 1   
    13    8    9 1   
    14    8   29 1   
    15    8   30 1   
    16    9   10 1   
    17    9   12 1   
    18   10   11 1   
    19   10   17 2   
    20   11   31 1   
    21   11   32 1   
    22   11   33 1   
    23   12   13 1   
    24   12   14 2   
    25   13   34 1   
    26   13   35 1   
    27   13   36 1   
    28   14   15 1   
    29   14   17 1   
    30   15   16 2   
    31   15   24 1   
    32   17   18 1   
    33   18   19 1   
    34   18   22 2   
    35   19   20 1   
    36   20   21 1   
    37   20   39 1   
    38   20   40 1   
    39   21   41 1   
    40   21   42 1   
    41   21   43 1   
    42   22   23 1   
    43   22   38 1   
    44   23   24 2   
    45   23   44 1   
    46   24   37 1   
@<TRIPOS>SUBSTRUCTURE
     1 ID6         1 TEMP              0 ****  ****    0 ROOT
