@<TRIPOS>MOLECULE
ID6
   44    46     1     0     0
SMALL
bcc


@<TRIPOS>ATOM
      1 CL          0.1720    0.4960   -1.1490 cl        1 ID6     -0.088400
      2 C14         1.8120    0.2950   -0.7550 ca        1 ID6      0.024400
      3 C13         2.1840   -0.6370    0.2190 ca        1 ID6     -0.124000
      4 C12         3.5300   -0.7950    0.5410 ca        1 ID6     -0.105000
      5 C15         2.7810    1.0620   -1.4100 ca        1 ID6     -0.124000
      6 C16         4.1250    0.8930   -1.0850 ca        1 ID6     -0.105000
      7 C11         4.5060   -0.0300   -0.1060 ca        1 ID6     -0.115300
      8 C10         5.9560   -0.1580    0.2670 c3        1 ID6      0.078600
      9 N           6.4920   -1.4920    0.2040 na        1 ID6     -0.051100
     10 C8          6.8060   -2.1900   -0.9650 cc        1 ID6     -0.050600
     11 C9          6.6160   -1.6650   -2.3300 c3        1 ID6     -0.031800
     12 C17         6.7710   -2.3030    1.3120 cc        1 ID6     -0.056600
     13 C18         6.5590   -1.8780    2.7080 c3        1 ID6     -0.049800
     14 C19         7.3050   -3.5230    0.8430 cd        1 ID6     -0.186600
     15 C           7.7320   -4.6240    1.6950 c         1 ID6      0.610900
     16 O           7.1970   -4.8420    2.7980 o         1 ID6     -0.570100
     17 C7          7.3260   -3.4540   -0.5980 cd        1 ID6     -0.113800
     18 C4          7.7600   -4.4830   -1.5100 cd        1 ID6      0.228900
     19 O1          7.2400   -4.2740   -2.7780 os        1 ID6     -0.343900
     20 C5          7.4020   -5.3330   -3.7300 c3        1 ID6      0.126400
     21 C6          6.5650   -4.9470   -4.9280 c3        1 ID6     -0.101100
     22 C3          8.6070   -5.5080   -1.2300 cc        1 ID6     -0.273000
     23 C2          9.2290   -5.7990    0.0260 cc        1 ID6     -0.030000
     24 C1          8.8740   -5.4370    1.2680 cd        1 ID6     -0.261200
     25 H13         1.4200   -1.2440    0.7300 ha        1 ID6      0.151500
     26 H15         2.4870    1.7930   -2.1780 ha        1 ID6      0.151500
     27 H12         3.8250   -1.5310    1.3060 ha        1 ID6      0.143500
     28 H16         4.8880    1.4920   -1.6060 ha        1 ID6      0.143500
     29 H101        6.5770    0.4990   -0.4110 h1        1 ID6      0.072200
     30 H102        6.0810    0.2190    1.3250 h1        1 ID6      0.072200
     31 H91C        5.8330   -2.2740   -2.8520 hc        1 ID6      0.056700
     32 H92C        7.5710   -1.7740   -2.9040 hc        1 ID6      0.056700
     33 H93C        6.3010   -0.5930   -2.3410 hc        1 ID6      0.056700
     34 H181        5.4920   -1.5840    2.8790 hc        1 ID6      0.061700
     35 H182        7.2140   -1.0080    2.9650 hc        1 ID6      0.061700
     36 H183        6.8030   -2.7280    3.3970 hc        1 ID6      0.061700
     37 H1          9.4720   -5.8090    2.1220 ha        1 ID6      0.142000
     38 H3          8.8930   -6.2070   -2.0340 ha        1 ID6      0.131000
     39 H51C        8.4870   -5.4150   -4.0060 h1        1 ID6      0.041700
     40 H52C        7.0510   -6.3010   -3.2850 h1        1 ID6      0.041700
     41 H61C        6.9100   -3.9720   -5.3480 hc        1 ID6      0.048700
     42 H62C        5.4920   -4.8450   -4.6380 hc        1 ID6      0.048700
     43 H63C        6.6600   -5.7380   -5.7090 hc        1 ID6      0.048700
     44 H2         10.1180   -6.4560   -0.0730 ha        1 ID6      0.120000
@<TRIPOS>BOND
     1    1    2 1   
     2    2    3 ar  
     3    2    5 ar  
     4    3    4 ar  
     5    3   25 1   
     6    4    7 ar  
     7    4   27 1   
     8    5    6 ar  
     9    5   26 1   
    10    6    7 ar  
    11    6   28 1   
    12    7    8 1   
    13    8    9 1   
    14    8   29 1   
    15    8   30 1   
    16    9   10 1   
    17    9   12 1   
    18   10   11 1   
    19   10   17 2   
    20   11   31 1   
    21   11   32 1   
    22   11   33 1   
    23   12   13 1   
    24   12   14 2   
    25   13   34 1   
    26   13   35 1   
    27   13   36 1   
    28   14   15 1   
    29   14   17 1   
    30   15   16 2   
    31   15   24 1   
    32   17   18 1   
    33   18   19 1   
    34   18   22 2   
    35   19   20 1   
    36   20   21 1   
    37   20   39 1   
    38   20   40 1   
    39   21   41 1   
    40   21   42 1   
    41   21   43 1   
    42   22   23 1   
    43   22   38 1   
    44   23   24 2   
    45   23   44 1   
    46   24   37 1   
@<TRIPOS>SUBSTRUCTURE
     1 ID6         1 TEMP              0 ****  ****    0 ROOT
