@<TRIPOS>MOLECULE
ID8
   32    33     1     0     0
SMALL
bcc


@<TRIPOS>ATOM
      1 O16         0.0420   -1.5530   -0.2530 o         1 ID8     -0.830800
      2 C14         1.2150   -1.0990   -0.0920 c         1 ID8      0.912200
      3 O15         1.8270   -1.1460    1.0100 o         1 ID8     -0.830800
      4 C13         1.9510   -0.4850   -1.2770 ca        1 ID8     -0.149600
      5 C12         3.3480   -0.4850   -1.2270 ca        1 ID8     -0.095000
      6 C11         4.1140    0.0400   -2.2640 ca        1 ID8     -0.171000
      7 C10         3.4800    0.5760   -3.3830 ca        1 ID8     -0.146000
      8 C9          2.0920    0.5920   -3.4610 ca        1 ID8     -0.164000
      9 C8          1.3050    0.0710   -2.4100 ca        1 ID8      0.130600
     10 N7         -0.1070    0.0140   -2.5490 nh        1 ID8     -0.613000
     11 C6         -0.8860    1.1770   -2.5100 ca        1 ID8      0.184600
     12 C1         -2.2750    1.0830   -2.1770 ca        1 ID8     -0.123300
     13 C17        -2.8190   -0.2060   -1.6820 c3        1 ID8     -0.066800
     14 C5         -0.3680    2.4410   -2.8760 ca        1 ID8     -0.199000
     15 C4         -1.2000    3.5470   -2.9780 ca        1 ID8     -0.108000
     16 C3         -2.5590    3.4380   -2.7120 ca        1 ID8     -0.194000
     17 C2         -3.0950    2.2110   -2.3040 ca        1 ID8     -0.058300
     18 C18        -4.5460    2.1400   -2.0000 c3        1 ID8     -0.043800
     19 H12         3.8270   -0.9020   -0.3250 ha        1 ID8      0.153000
     20 H11         5.2100    0.0330   -2.2010 ha        1 ID8      0.108000
     21 H10         4.0750    0.9870   -4.2100 ha        1 ID8      0.105000
     22 H9          1.6070    1.0020   -4.3590 ha        1 ID8      0.122000
     23 H7         -0.4870   -0.7480   -1.9950 hn        1 ID8      0.464800
     24 H5          0.7090    2.5590   -3.0680 ha        1 ID8      0.138000
     25 H171       -2.1850   -0.6080   -0.8430 hc        1 ID8      0.051700
     26 H172       -2.8290   -0.9640   -2.5050 hc        1 ID8      0.051700
     27 H173       -3.8610   -0.1010   -1.2960 hc        1 ID8      0.051700
     28 H4         -0.7740    4.5190   -3.2700 ha        1 ID8      0.110000
     29 H3         -3.2120    4.3160   -2.8080 ha        1 ID8      0.110000
     30 H181       -5.0330    1.3250   -2.5930 hc        1 ID8      0.033033
     31 H182       -5.0570    3.1030   -2.2470 hc        1 ID8      0.033033
     32 H183       -4.7070    1.9290   -0.9130 hc        1 ID8      0.033033
@<TRIPOS>BOND
     1    1    2 1   
     2    2    3 1   
     3    2    4 1   
     4    4    5 ar  
     5    4    9 ar  
     6    5    6 ar  
     7    5   19 1   
     8    6    7 ar  
     9    6   20 1   
    10    7    8 ar  
    11    7   21 1   
    12    8    9 ar  
    13    8   22 1   
    14    9   10 1   
    15   10   11 1   
    16   10   23 1   
    17   11   12 ar  
    18   11   14 ar  
    19   12   13 1   
    20   12   17 ar  
    21   13   25 1   
    22   13   26 1   
    23   13   27 1   
    24   14   15 ar  
    25   14   24 1   
    26   15   16 ar  
    27   15   28 1   
    28   16   17 ar  
    29   16   29 1   
    30   17   18 1   
    31   18   30 1   
    32   18   31 1   
    33   18   32 1   
@<TRIPOS>SUBSTRUCTURE
     1 ID8         1 TEMP              0 ****  ****    0 ROOT
