@<TRIPOS>MOLECULE
ID8
   32    28     1     0     0
SMALL
bcc


@<TRIPOS>ATOM
      1 O16        -2.2460   -1.6520    1.9700 o         1 ID8     -0.595000
      2 C14        -2.0520   -2.4680    1.0170 c1        1 ID8      0.362000
      3 O15        -1.7730   -3.6740    1.2680 os        1 ID8     -0.545000
      4 C13        -2.0380   -1.9790   -0.3820 c2        1 ID8     -0.147000
      5 C12        -3.0680   -2.3370   -1.2460 c2        1 ID8     -0.085000
      6 C11        -2.9670   -2.0520   -2.6080 c1        1 ID8     -0.191000
      7 C10        -1.8160   -1.3980   -3.1090 c1        1 ID8     -0.156500
      8 C9         -0.7770   -1.0360   -2.2380 c1        1 ID8     -0.156500
      9 C8         -0.8750   -1.3160   -0.8930 c1        1 ID8      0.080000
     10 N7          0.2630   -1.1020   -0.0330 n3        1 ID8     -0.250000
     11 C6          0.9490    0.1960   -0.0340 c2        1 ID8      0.062000
     12 C1          1.1470    0.8590    1.1450 c2        1 ID8     -0.085000
     13 C17         0.6650    0.2600    2.4370 c3        1 ID8     -0.205000
     14 C5          1.4010    0.7740   -1.2640 c1        1 ID8     -0.147000
     15 C4          2.0400    2.0050   -1.2550 c1        1 ID8     -0.156500
     16 C3          2.2390    2.6740   -0.0520 c1        1 ID8     -0.156500
     17 C2          1.7950    2.1070    1.1490 c1        1 ID8     -0.073000
     18 C18         1.9020    2.9090    2.4460 c3        1 ID8     -0.170000
     19 H12        -3.9040   -2.8140   -0.8800 ha        1 ID8      0.148000
     20 H11        -3.6550   -2.3720   -3.2250 ha        1 ID8      0.106000
     21 H10        -1.7420   -1.1930   -4.0900 ha        1 ID8      0.111500
     22 H9          0.0540   -0.5620   -2.6040 ha        1 ID8      0.111500
     23 H7          0.6020   -1.7760    0.4230 hn        1 ID8      0.254000
     24 H5          1.3090    0.3170   -2.0410 ha        1 ID8      0.137000
     25 H171        1.2460   -0.5090    2.6860 hc        1 ID8      0.100667
     26 H172        0.7050    0.9170    3.1200 hc        1 ID8      0.100667
     27 H173       -0.2650   -0.0480    2.3300 hc        1 ID8      0.100667
     28 H4          2.3730    2.4330   -2.1540 ha        1 ID8      0.111500
     29 H3          2.7080    3.5800   -0.0430 ha        1 ID8      0.111500
     30 H181        1.0040    3.1100    2.7830 hc        1 ID8      0.074333
     31 H182        2.3890    2.3890    3.1100 hc        1 ID8      0.074333
     32 H183        2.3850    3.7570    2.2700 hc        1 ID8      0.074333
@<TRIPOS>BOND
     1    1    2 1   
     2    2    4 1   
     3    4    5 1   
     4    4    9 1   
     5    5    6 1   
     6    5   19 1   
     7    6   20 1   
     8    7    8 1   
     9    7   21 1   
    10    8   22 1   
    11    9   10 1   
    12   10   11 1   
    13   10   23 1   
    14   11   12 1   
    15   11   14 1   
    16   12   13 1   
    17   12   17 1   
    18   13   25 1   
    19   13   26 1   
    20   13   27 1   
    21   14   24 1   
    22   15   16 1   
    23   15   28 1   
    24   16   29 1   
    25   17   18 1   
    26   18   30 1   
    27   18   31 1   
    28   18   32 1   
@<TRIPOS>SUBSTRUCTURE
     1 ID8         1 TEMP              0 ****  ****    0 ROOT
