@<TRIPOS>MOLECULE
ID8
   32    33     1     0     0
SMALL
bcc


@<TRIPOS>ATOM
      1 O16         0.0610   -1.5420   -0.2430 o         1 ID8     -0.830800
      2 C14         1.2320   -1.0800   -0.0890 c         1 ID8      0.912200
      3 O15         1.8480   -1.1180    1.0110 o         1 ID8     -0.830800
      4 C13         1.9610   -0.4690   -1.2800 ca        1 ID8     -0.149600
      5 C12         3.3580   -0.4610   -1.2340 ca        1 ID8     -0.095000
      6 C11         4.1180    0.0630   -2.2760 ca        1 ID8     -0.171000
      7 C10         3.4770    0.5900   -3.3960 ca        1 ID8     -0.146000
      8 C9          2.0890    0.5980   -3.4700 ca        1 ID8     -0.164000
      9 C8          1.3080    0.0780   -2.4130 ca        1 ID8      0.130600
     10 N7         -0.1040    0.0130   -2.5470 nu        1 ID8     -0.613000
     11 C6         -0.8890    1.1720   -2.5100 ca        1 ID8      0.184600
     12 C1         -2.2760    1.0730   -2.1700 ca        1 ID8     -0.123300
     13 C17        -2.8110   -0.2160   -1.6660 c3        1 ID8     -0.066800
     14 C5         -0.3790    2.4370   -2.8850 ca        1 ID8     -0.199000
     15 C4         -1.2170    3.5380   -2.9890 ca        1 ID8     -0.108000
     16 C3         -2.5750    3.4230   -2.7160 ca        1 ID8     -0.194000
     17 C2         -3.1020    2.1950   -2.3000 ca        1 ID8     -0.058300
     18 C18        -4.5520    2.1180   -1.9890 c3        1 ID8     -0.043800
     19 H12         3.8430   -0.8710   -0.3310 ha        1 ID8      0.153000
     20 H11         5.2140    0.0620   -2.2170 ha        1 ID8      0.108000
     21 H10         4.0680    0.9990   -4.2270 ha        1 ID8      0.105000
     22 H9          1.5990    1.0010   -4.3680 ha        1 ID8      0.122000
     23 H7         -0.4780   -0.7480   -1.9880 hn        1 ID8      0.464800
     24 H5          0.6960    2.5600   -3.0830 ha        1 ID8      0.138000
     25 H171       -2.1710   -0.6110   -0.8280 hc        1 ID8      0.051700
     26 H172       -3.8520   -0.1150   -1.2760 hc        1 ID8      0.051700
     27 H173       -2.8210   -0.9790   -2.4850 hc        1 ID8      0.051700
     28 H4         -0.7980    4.5100   -3.2880 ha        1 ID8      0.110000
     29 H3         -3.2330    4.2970   -2.8140 ha        1 ID8      0.110000
     30 H181       -5.0690    3.0770   -2.2380 hc        1 ID8      0.033033
     31 H182       -4.7070    1.9130   -0.9000 hc        1 ID8      0.033033
     32 H183       -5.0370    1.2980   -2.5750 hc        1 ID8      0.033033
@<TRIPOS>BOND
     1    1    2 1   
     2    2    3 1   
     3    2    4 1   
     4    4    5 ar  
     5    4    9 ar  
     6    5    6 ar  
     7    5   19 1   
     8    6    7 ar  
     9    6   20 1   
    10    7    8 ar  
    11    7   21 1   
    12    8    9 ar  
    13    8   22 1   
    14    9   10 1   
    15   10   11 1   
    16   10   23 1   
    17   11   12 ar  
    18   11   14 ar  
    19   12   13 1   
    20   12   17 ar  
    21   13   25 1   
    22   13   26 1   
    23   13   27 1   
    24   14   15 ar  
    25   14   24 1   
    26   15   16 ar  
    27   15   28 1   
    28   16   17 ar  
    29   16   29 1   
    30   17   18 1   
    31   18   30 1   
    32   18   31 1   
    33   18   32 1   
@<TRIPOS>SUBSTRUCTURE
     1 ID8         1 TEMP              0 ****  ****    0 ROOT
