@<TRIPOS>MOLECULE
ID8
   33    34     1     0     0
SMALL
bcc


@<TRIPOS>ATOM
      1 O16         0.7260   -0.5350    0.6000 oh        1 ID8     -0.568100
      2 C14         1.5880    0.3510    0.0260 c         1 ID8      0.651700
      3 O15         1.9310    1.2650    0.7790 o         1 ID8     -0.497000
      4 C13         2.0850    0.1300   -1.3500 ca        1 ID8     -0.171600
      5 C12         3.4730    0.1510   -1.5350 ca        1 ID8     -0.070000
      6 C11         4.0260   -0.0690   -2.7920 ca        1 ID8     -0.145000
      7 C10         3.1890   -0.2990   -3.8840 ca        1 ID8     -0.090000
      8 C9          1.8080   -0.2960   -3.7230 ca        1 ID8     -0.170000
      9 C8          1.2270   -0.0780   -2.4540 ca        1 ID8      0.136600
     10 N7         -0.1820   -0.1580   -2.2790 nh        1 ID8     -0.616000
     11 C6         -0.9380    1.0400   -2.1630 ca        1 ID8      0.115600
     12 C1         -2.3420    1.0000   -2.3860 ca        1 ID8     -0.112300
     13 C17        -2.9890   -0.2690   -2.8000 c3        1 ID8     -0.054800
     14 C5         -0.3360    2.2500   -1.7650 ca        1 ID8     -0.163000
     15 C4         -1.1070    3.3930   -1.5850 ca        1 ID8     -0.097000
     16 C3         -2.4790    3.3560   -1.8050 ca        1 ID8     -0.151000
     17 C2         -3.1000    2.1670   -2.2040 ca        1 ID8     -0.049300
     18 C18        -4.5680    2.1740   -2.4240 c3        1 ID8     -0.054800
     19 H12         4.1220    0.3470   -0.6660 ha        1 ID8      0.156000
     20 H11         5.1180   -0.0580   -2.9230 ha        1 ID8      0.144000
     21 H10         3.6210   -0.4730   -4.8810 ha        1 ID8      0.140000
     22 H9          1.1640   -0.4640   -4.6010 ha        1 ID8      0.140000
     23 H7          0.4390   -1.1940   -0.0480 ho        1 ID8      0.440000
     24 H5          0.7490    2.2990   -1.5750 ha        1 ID8      0.147000
     25 H171       -2.5980   -0.6040   -3.7950 hc        1 ID8      0.043367
     26 H172       -4.0980   -0.1670   -2.8930 hc        1 ID8      0.043367
     27 H173       -2.7880   -1.0750   -2.0490 hc        1 ID8      0.043367
     28 H4         -0.6230    4.3270   -1.2640 ha        1 ID8      0.138000
     29 H3         -3.0810    4.2660   -1.6610 ha        1 ID8      0.133000
     30 H181       -5.0720    1.4640   -1.7210 hc        1 ID8      0.045033
     31 H182       -4.9960    3.1930   -2.2520 hc        1 ID8      0.045033
     32 H183       -4.8100    1.8690   -3.4720 hc        1 ID8      0.045033
     33 H72        -0.5870   -0.7830   -2.9550 hn        1 ID8      0.399800
@<TRIPOS>BOND
     1    1    2 1   
     2    1   23 1   
     3    2    3 2   
     4    2    4 1   
     5    4    5 ar  
     6    4    9 ar  
     7    5    6 ar  
     8    5   19 1   
     9    6    7 ar  
    10    6   20 1   
    11    7    8 ar  
    12    7   21 1   
    13    8    9 ar  
    14    8   22 1   
    15    9   10 1   
    16   10   11 1   
    17   10   33 1   
    18   11   12 ar  
    19   11   14 ar  
    20   12   13 1   
    21   12   17 ar  
    22   13   25 1   
    23   13   26 1   
    24   13   27 1   
    25   14   15 ar  
    26   14   24 1   
    27   15   16 ar  
    28   15   28 1   
    29   16   17 ar  
    30   16   29 1   
    31   17   18 1   
    32   18   30 1   
    33   18   31 1   
    34   18   32 1   
@<TRIPOS>SUBSTRUCTURE
     1 ID8         1 TEMP              0 ****  ****    0 ROOT
