@<TRIPOS>MOLECULE
ID8
   32    33     1     0     0
SMALL
bcc


@<TRIPOS>ATOM
      1 O16         0.8410    1.9900    1.8000 o         1 ID8     -0.830800
      2 C14         1.8050    1.9030    0.9800 c         1 ID8      0.912200
      3 O15         2.4590    2.9040    0.5790 o         1 ID8     -0.830800
      4 C13         2.2280    0.5350    0.4600 ca        1 ID8     -0.149600
      5 C12         3.5470    0.4040    0.0140 ca        1 ID8     -0.095000
      6 C11         4.0350   -0.8070   -0.4680 ca        1 ID8     -0.171000
      7 C10         3.1970   -1.9190   -0.5070 ca        1 ID8     -0.146000
      8 C9          1.8800   -1.8200   -0.0730 ca        1 ID8     -0.164000
      9 C8          1.3710   -0.5930    0.4090 ca        1 ID8      0.130600
     10 N7          0.0520   -0.5350    0.9310 nh        1 ID8     -0.613000
     11 C6         -1.0640   -0.6270    0.0910 ca        1 ID8      0.184600
     12 C1         -2.3220   -0.1040    0.5300 ca        1 ID8     -0.123300
     13 C17        -2.3790    0.7050    1.7720 c3        1 ID8     -0.066800
     14 C5         -1.0160   -1.3030   -1.1500 ca        1 ID8     -0.199000
     15 C4         -2.1720   -1.5160   -1.8900 ca        1 ID8     -0.108000
     16 C3         -3.4000   -1.0580   -1.4300 ca        1 ID8     -0.194000
     17 C2         -3.4750   -0.3460   -0.2260 ca        1 ID8     -0.058300
     18 C18        -4.8010    0.1520    0.2180 c3        1 ID8     -0.043800
     19 H12         4.1870    1.3020    0.0420 ha        1 ID8      0.153000
     20 H11         5.0740   -0.8860   -0.8160 ha        1 ID8      0.108000
     21 H10         3.5750   -2.8820   -0.8790 ha        1 ID8      0.105000
     22 H9          1.2360   -2.7120   -0.0940 ha        1 ID8      0.122000
     23 H7         -0.0220    0.2040    1.6240 hn        1 ID8      0.464800
     24 H5         -0.0530   -1.6550   -1.5490 ha        1 ID8      0.138000
     25 H171       -1.6000    1.5170    1.7530 hc        1 ID8      0.051700
     26 H172       -3.3730    1.1950    1.9090 hc        1 ID8      0.051700
     27 H173       -2.1870    0.0590    2.6660 hc        1 ID8      0.051700
     28 H4         -2.1090   -2.0490   -2.8500 ha        1 ID8      0.110000
     29 H3         -4.3110   -1.2410   -2.0150 ha        1 ID8      0.110000
     30 H181       -4.8190    1.2710    0.2100 hc        1 ID8      0.033033
     31 H182       -5.6150   -0.2130   -0.4550 hc        1 ID8      0.033033
     32 H183       -5.0240   -0.1970    1.2570 hc        1 ID8      0.033033
@<TRIPOS>BOND
     1    1    2 1   
     2    2    3 1   
     3    2    4 1   
     4    4    5 ar  
     5    4    9 ar  
     6    5    6 ar  
     7    5   19 1   
     8    6    7 ar  
     9    6   20 1   
    10    7    8 ar  
    11    7   21 1   
    12    8    9 ar  
    13    8   22 1   
    14    9   10 1   
    15   10   11 1   
    16   10   23 1   
    17   11   12 ar  
    18   11   14 ar  
    19   12   13 1   
    20   12   17 ar  
    21   13   25 1   
    22   13   26 1   
    23   13   27 1   
    24   14   15 ar  
    25   14   24 1   
    26   15   16 ar  
    27   15   28 1   
    28   16   17 ar  
    29   16   29 1   
    30   17   18 1   
    31   18   30 1   
    32   18   31 1   
    33   18   32 1   
@<TRIPOS>SUBSTRUCTURE
     1 ID8         1 TEMP              0 ****  ****    0 ROOT
