@<TRIPOS>MOLECULE
IDA
   38    39     1     0     0
SMALL
bcc


@<TRIPOS>ATOM
      1 N2          1.5280   -0.1730    1.0800 n         1 IDA     -0.672000
      2 C10         1.0610    0.0470   -0.1900 c         1 IDA      0.651100
      3 O1         -0.0480   -0.4040   -0.5440 o         1 IDA     -0.613100
      4 C9          1.9140    0.8560   -1.1530 c3        1 IDA     -0.100200
      5 C1          3.3690    0.7050   -0.9420 cc        1 IDA     -0.079300
      6 N1          4.0160   -0.5410   -0.9930 na        1 IDA     -0.179400
      7 C4          5.3730   -0.3360   -0.7550 ca        1 IDA     -0.034200
      8 C3          5.5950    1.0820   -0.5780 ca        1 IDA     -0.099800
      9 C2          4.3040    1.7150   -0.7060 cd        1 IDA     -0.176200
     10 C5          6.8840    1.5560   -0.3330 ca        1 IDA     -0.067000
     11 C6          7.9350    0.6480   -0.2560 ca        1 IDA     -0.107300
     12 C12         9.3200    1.1210    0.0220 c3        1 IDA     -0.034100
     13 C13        10.1990    1.0560   -1.2130 c3        1 IDA     -0.077400
     14 C14        11.6040    1.5090   -0.9100 c3        1 IDA     -0.094100
     15 C7          7.7080   -0.7340   -0.4320 ca        1 IDA     -0.086000
     16 C8          6.4440   -1.2500   -0.6890 ca        1 IDA     -0.109300
     17 C11         6.2400   -2.7000   -0.9340 c3        1 IDA     -0.072100
     18 C15         5.4440   -3.3570    0.1530 c         1 IDA      0.638100
     19 O3          5.8290   -3.9140    1.1820 o         1 IDA     -0.534000
     20 O2          4.0940   -3.3550   -0.0680 oh        1 IDA     -0.632100
     21 HN21        0.9590   -0.6520    1.7330 hn        1 IDA      0.316500
     22 HN22        3.6390   -3.8060    0.6620 ho        1 IDA      0.449000
     23 HC91        1.6340    1.9380   -1.0340 hc        1 IDA      0.093700
     24 HC92        1.6340    0.5440   -2.1970 hc        1 IDA      0.093700
     25 HN1         3.5690   -1.4230   -1.0350 hn        1 IDA      0.319700
     26 HC2         4.1070    2.7800   -0.6370 ha        1 IDA      0.159000
     27 HC5         7.0580    2.6340   -0.2010 ha        1 IDA      0.138000
     28 H121        9.7730    0.4870    0.8330 hc        1 IDA      0.047700
     29 H122        9.2960    2.1770    0.4040 hc        1 IDA      0.047700
     30 H131        9.7590    1.7000   -2.0190 hc        1 IDA      0.042200
     31 H132       10.2150    0.0040   -1.6020 hc        1 IDA      0.042200
     32 H141       12.0680    0.8620   -0.1260 hc        1 IDA      0.033700
     33 H142       12.2350    1.4550   -1.8300 hc        1 IDA      0.033700
     34 H143       11.6080    2.5630   -0.5400 hc        1 IDA      0.033700
     35 HC7         8.5680   -1.4190   -0.3640 ha        1 IDA      0.136000
     36 H111        5.7030   -2.8460   -1.9120 hc        1 IDA      0.086700
     37 H112        7.2290   -3.2310   -0.9920 hc        1 IDA      0.086700
     38 H23         2.3850    0.2140    1.3820 hn        1 IDA      0.316500
@<TRIPOS>BOND
     1    1    2 1   
     2    1   21 1   
     3    1   38 1   
     4    2    3 2   
     5    2    4 1   
     6    4    5 1   
     7    4   23 1   
     8    4   24 1   
     9    5    6 1   
    10    5    9 2   
    11    6    7 1   
    12    6   25 1   
    13    7    8 ar  
    14    7   16 ar  
    15    8    9 1   
    16    8   10 ar  
    17    9   26 1   
    18   10   11 ar  
    19   10   27 1   
    20   11   12 1   
    21   11   15 ar  
    22   12   13 1   
    23   12   28 1   
    24   12   29 1   
    25   13   14 1   
    26   13   30 1   
    27   13   31 1   
    28   14   32 1   
    29   14   33 1   
    30   14   34 1   
    31   15   16 ar  
    32   15   35 1   
    33   16   17 1   
    34   17   18 1   
    35   17   36 1   
    36   17   37 1   
    37   18   19 2   
    38   18   20 1   
    39   20   22 1   
@<TRIPOS>SUBSTRUCTURE
     1 IDA         1 TEMP              0 ****  ****    0 ROOT
