@<TRIPOS>MOLECULE
IDA
   38    39     1     0     0
SMALL
bcc


@<TRIPOS>ATOM
      1 N2          1.3000   -0.5920    0.6580 nt        1 IDA     -0.667000
      2 C10         1.0520    0.4850   -0.1530 c         1 IDA      0.657100
      3 O1          0.1070    1.2590    0.1060 o         1 IDA     -0.615100
      4 C9          1.8870    0.6900   -1.4080 c3        1 IDA     -0.098200
      5 C1          3.3430    0.6030   -1.1710 cc        1 IDA     -0.074300
      6 N1          4.0360   -0.6230   -1.1430 na        1 IDA     -0.184400
      7 C4          5.3690   -0.3580   -0.8320 ca        1 IDA     -0.033200
      8 C3          5.5450    1.0750   -0.7590 ca        1 IDA     -0.096800
      9 C2          4.2400    1.6560   -0.9800 cd        1 IDA     -0.161200
     10 C5          6.8090    1.6010   -0.4980 ca        1 IDA     -0.064000
     11 C6          7.8760    0.7320   -0.2920 ca        1 IDA     -0.110300
     12 C12         9.2360    1.2650   -0.0000 c3        1 IDA     -0.033100
     13 C13        10.1730    1.1050   -1.1840 c3        1 IDA     -0.078400
     14 C14        11.5520    1.6210   -0.8650 c3        1 IDA     -0.094100
     15 C7          7.6870   -0.6660   -0.3420 ca        1 IDA     -0.087000
     16 C8          6.4480   -1.2350   -0.6090 ca        1 IDA     -0.117300
     17 C11         6.2750   -2.7080   -0.6830 c3        1 IDA     -0.072100
     18 C15         5.3050   -3.2170    0.3430 c         1 IDA      0.651100
     19 O3          4.0810   -3.0430    0.4200 o         1 IDA     -0.591000
     20 O2          5.8650   -4.0090    1.2940 oh        1 IDA     -0.594100
     21 HN21        0.7690   -0.6930    1.4890 hn        1 IDA      0.315000
     22 HN22        5.1860   -4.3040    1.9230 ho        1 IDA      0.448000
     23 HC91        1.5530   -0.0600   -2.1750 hc        1 IDA      0.090200
     24 HC92        1.6460    1.7160   -1.8040 hc        1 IDA      0.090200
     25 HN1         3.6120   -1.5140   -1.0630 hn        1 IDA      0.312700
     26 HC2         4.0070    2.7160   -0.9890 ha        1 IDA      0.163000
     27 HC5         6.9540    2.6910   -0.4520 ha        1 IDA      0.139000
     28 H121        9.1710    2.3520    0.2750 hc        1 IDA      0.047700
     29 H122        9.6640    0.7250    0.8870 hc        1 IDA      0.047700
     30 H131       10.2290    0.0210   -1.4680 hc        1 IDA      0.042700
     31 H132        9.7560    1.6570   -2.0670 hc        1 IDA      0.042700
     32 H141       11.5150    2.7060   -0.6000 hc        1 IDA      0.033700
     33 H142       11.9920    1.0660   -0.0020 hc        1 IDA      0.033700
     34 H143       12.2250    1.4960   -1.7460 hc        1 IDA      0.033700
     35 HC7         8.5550   -1.3200   -0.1590 ha        1 IDA      0.134000
     36 H111        7.2620   -3.2270   -0.5410 hc        1 IDA      0.087700
     37 H112        5.8700   -2.9950   -1.6930 hc        1 IDA      0.087700
     38 H23         2.1000   -1.1610    0.5510 hn        1 IDA      0.315000
@<TRIPOS>BOND
     1    1    2 1   
     2    1   21 1   
     3    1   38 1   
     4    2    3 2   
     5    2    4 1   
     6    4    5 1   
     7    4   23 1   
     8    4   24 1   
     9    5    6 1   
    10    5    9 2   
    11    6    7 1   
    12    6   25 1   
    13    7    8 ar  
    14    7   16 ar  
    15    8    9 1   
    16    8   10 ar  
    17    9   26 1   
    18   10   11 ar  
    19   10   27 1   
    20   11   12 1   
    21   11   15 ar  
    22   12   13 1   
    23   12   28 1   
    24   12   29 1   
    25   13   14 1   
    26   13   30 1   
    27   13   31 1   
    28   14   32 1   
    29   14   33 1   
    30   14   34 1   
    31   15   16 ar  
    32   15   35 1   
    33   16   17 1   
    34   17   18 1   
    35   17   36 1   
    36   17   37 1   
    37   18   19 2   
    38   18   20 1   
    39   20   22 1   
@<TRIPOS>SUBSTRUCTURE
     1 IDA         1 TEMP              0 ****  ****    0 ROOT
