@<TRIPOS>MOLECULE
IDA
   38    39     1     0     0
SMALL
bcc


@<TRIPOS>ATOM
      1 N2          1.5450    0.1030   -2.0430 n         1 IDA     -0.669000
      2 C10         1.0820    0.2190   -0.7600 c         1 IDA      0.654100
      3 O1         -0.0310   -0.2490   -0.4430 o         1 IDA     -0.616100
      4 C9          1.9320    0.9560    0.2610 c3        1 IDA     -0.100200
      5 C1          3.3870    0.7680    0.0850 cc        1 IDA     -0.082300
      6 N1          3.9790   -0.5050   -0.0270 na        1 IDA     -0.180400
      7 C4          5.3620   -0.3280   -0.1090 ca        1 IDA     -0.035200
      8 C3          5.6420    1.0900   -0.1220 ca        1 IDA     -0.098800
      9 C2          4.3670    1.7580   -0.0020 cd        1 IDA     -0.172200
     10 C5          6.9590    1.5340   -0.2330 ca        1 IDA     -0.068000
     11 C6          7.9850    0.5980   -0.3200 ca        1 IDA     -0.106300
     12 C12         9.4030    1.0420   -0.4210 c3        1 IDA     -0.034100
     13 C13         9.9650    0.8280   -1.8150 c3        1 IDA     -0.077400
     14 C14        11.4080    1.2530   -1.8940 c3        1 IDA     -0.094100
     15 C7          7.7000   -0.7840   -0.3030 ca        1 IDA     -0.086000
     16 C8          6.4030   -1.2720   -0.2050 ca        1 IDA     -0.109300
     17 C11         6.1230   -2.7300   -0.2400 c3        1 IDA     -0.072100
     18 C15         5.6590   -3.2510    1.0870 c         1 IDA      0.639100
     19 O3          6.3090   -3.7800    1.9900 o         1 IDA     -0.533000
     20 O2          4.3110   -3.1440    1.2900 oh        1 IDA     -0.632100
     21 HN21        1.0000   -0.3700   -2.7200 hn        1 IDA      0.317000
     22 HN22        4.0790   -3.5020    2.1630 ho        1 IDA      0.450000
     23 HC91        1.6900    2.0510    0.1870 hc        1 IDA      0.092700
     24 HC92        1.6160    0.6040    1.2820 hc        1 IDA      0.092700
     25 HN1         3.5400   -1.3560    0.2270 hn        1 IDA      0.316700
     26 HC2         4.2100    2.8320    0.0190 ha        1 IDA      0.159000
     27 HC5         7.1770    2.6120   -0.2480 ha        1 IDA      0.138000
     28 H121        9.4860    2.1280   -0.1520 hc        1 IDA      0.048200
     29 H122       10.0240    0.4690    0.3200 hc        1 IDA      0.048200
     30 H131        9.8720   -0.2550   -2.0910 hc        1 IDA      0.041700
     31 H132        9.3580    1.4120   -2.5560 hc        1 IDA      0.041700
     32 H141       11.5160    2.3350   -1.6420 hc        1 IDA      0.034033
     33 H142       12.0330    0.6640   -1.1790 hc        1 IDA      0.034033
     34 H143       11.8040    1.0890   -2.9250 hc        1 IDA      0.034033
     35 HC7         8.5410   -1.4940   -0.3690 ha        1 IDA      0.137000
     36 H111        7.0510   -3.3010   -0.5190 hc        1 IDA      0.085200
     37 H112        5.3300   -2.9470   -1.0080 hc        1 IDA      0.085200
     38 H23         2.4410    0.4350   -2.2940 hn        1 IDA      0.317000
@<TRIPOS>BOND
     1    1    2 1   
     2    1   21 1   
     3    1   38 1   
     4    2    3 2   
     5    2    4 1   
     6    4    5 1   
     7    4   23 1   
     8    4   24 1   
     9    5    6 1   
    10    5    9 2   
    11    6    7 1   
    12    6   25 1   
    13    7    8 ar  
    14    7   16 ar  
    15    8    9 1   
    16    8   10 ar  
    17    9   26 1   
    18   10   11 ar  
    19   10   27 1   
    20   11   12 1   
    21   11   15 ar  
    22   12   13 1   
    23   12   28 1   
    24   12   29 1   
    25   13   14 1   
    26   13   30 1   
    27   13   31 1   
    28   14   32 1   
    29   14   33 1   
    30   14   34 1   
    31   15   16 ar  
    32   15   35 1   
    33   16   17 1   
    34   17   18 1   
    35   17   36 1   
    36   17   37 1   
    37   18   19 2   
    38   18   20 1   
    39   20   22 1   
@<TRIPOS>SUBSTRUCTURE
     1 IDA         1 TEMP              0 ****  ****    0 ROOT
