@<TRIPOS>MOLECULE
IDA
   37    32     1     0     0
SMALL
bcc


@<TRIPOS>ATOM
      1 N2         -3.1710    4.8590    2.7290 n         1 IDA     -0.409000
      2 C10        -2.8300    3.7090    1.9700 c2        1 IDA      0.298000
      3 O1         -3.5400    2.7230    2.0080 o         1 IDA     -0.433000
      4 C9         -1.5970    3.7190    1.0930 c3        1 IDA     -0.118000
      5 C1         -1.1630    2.2980    0.8150 c2        1 IDA     -0.058000
      6 N1         -0.2990    1.5550    1.5700 n2        1 IDA     -0.185000
      7 C4          0.0770    0.4500    0.8270 c1        1 IDA      0.000000
      8 C3         -0.5590    0.5170   -0.3860 c1        1 IDA     -0.091000
      9 C2         -1.3290    1.6610   -0.3980 c1        1 IDA     -0.204000
     10 C5         -0.3680   -0.5000   -1.3370 c1        1 IDA     -0.106000
     11 C6          0.4640   -1.5720   -1.0490 c1        1 IDA     -0.107000
     12 C12         0.5950   -2.8810   -1.7980 c3        1 IDA     -0.108000
     13 C13         0.7420   -2.6040   -3.2790 c3        1 IDA     -0.161000
     14 C14         0.9900   -3.9030   -4.0140 c3        1 IDA     -0.208000
     15 C7          1.1080   -1.6410    0.1790 c1        1 IDA     -0.135000
     16 C8          0.9200   -0.6370    1.1180 c1        1 IDA     -0.018000
     17 C11         1.6300   -0.9900    2.4070 c3        1 IDA     -0.201000
     18 C15         2.9650   -0.2830    2.4570 c2        1 IDA      0.343000
     19 O3          3.7460   -0.3430    1.4720 o         1 IDA     -0.581000
     20 O2          3.3060    0.3440    3.4940 o         1 IDA     -0.581000
     21 HN21       -3.8930    4.8390    3.2900 hn        1 IDA      0.246500
     22 HN22       -2.6770    5.6240    2.6470 hn        1 IDA      0.246500
     23 HC91       -1.8010    4.1680    0.2480 hc        1 IDA      0.113500
     24 HC92       -0.8760    4.1970    1.5490 hc        1 IDA      0.113500
     25 HN1        -0.0190    1.7530    2.4160 DU        1 IDA      0.217500
     26 HC2        -1.8720    1.9800   -1.1450 DU        1 IDA      0.217500
     27 HC5        -0.8240   -0.4530   -2.2000 ha        1 IDA      0.114000
     28 H121       -0.2050   -3.4250   -1.6460 hc        1 IDA      0.070500
     29 H122        1.3830   -3.3630   -1.4760 hc        1 IDA      0.070500
     30 H131       -0.0770   -2.1890   -3.6160 hc        1 IDA      0.089000
     31 H132        1.4970   -1.9980   -3.4230 hc        1 IDA      0.089000
     32 H141        0.2500   -4.5220   -3.8430 hc        1 IDA      0.063000
     33 H142        1.8280   -4.3020   -3.6990 hc        1 IDA      0.063000
     34 H143        1.0540   -3.7270   -4.9760 hc        1 IDA      0.063000
     35 HC7         1.6940   -2.3960    0.3810 ha        1 IDA      0.123000
     36 H111        1.7710   -1.9560    2.4480 hc        1 IDA      0.081000
     37 H112        1.0830   -0.7080    3.1680 hc        1 IDA      0.081000
@<TRIPOS>BOND
     1    1    2 1   
     2    1   21 1   
     3    1   22 1   
     4    2    3 1   
     5    2    4 1   
     6    4    5 1   
     7    4   23 1   
     8    4   24 1   
     9    5    6 1   
    10    5    9 1   
    11    6    7 1   
    12    7   16 1   
    13    8   10 1   
    14   10   27 1   
    15   11   12 1   
    16   11   15 1   
    17   12   13 1   
    18   12   28 1   
    19   12   29 1   
    20   13   14 1   
    21   13   30 1   
    22   13   31 1   
    23   14   32 1   
    24   14   33 1   
    25   14   34 1   
    26   15   35 1   
    27   16   17 1   
    28   17   18 1   
    29   17   36 1   
    30   17   37 1   
    31   18   19 1   
    32   18   20 1   
@<TRIPOS>SUBSTRUCTURE
     1 IDA         1 TEMP              0 ****  ****    0 ROOT
