@<TRIPOS>MOLECULE
IDA
   37    38     1     0     0
SMALL
bcc


@<TRIPOS>ATOM
      1 N2          0.3650   -0.5360   -4.1570 n         1 IDA     -0.649000
      2 C10        -0.9480   -0.2510   -4.3860 c         1 IDA      0.654100
      3 O1         -1.5620   -0.8200   -5.3220 o         1 IDA     -0.672100
      4 C9         -1.6700    0.8130   -3.5670 c3        1 IDA     -0.085200
      5 C1         -1.4680    0.6750   -2.1110 cc        1 IDA     -0.089300
      6 N1         -0.2790    1.0760   -1.4850 na        1 IDA     -0.162400
      7 C4         -0.3280    0.6350   -0.1640 ca        1 IDA     -0.044200
      8 C3         -1.6430    0.1060    0.1000 ca        1 IDA     -0.102800
      9 C2         -2.3480    0.1430   -1.1600 cd        1 IDA     -0.192200
     10 C5         -1.9420   -0.3510    1.3870 ca        1 IDA     -0.106000
     11 C6         -0.9470   -0.3250    2.3570 ca        1 IDA     -0.114300
     12 C12        -1.2310   -0.8190    3.7330 c3        1 IDA     -0.023100
     13 C13        -1.3090    0.3170    4.7360 c3        1 IDA     -0.079400
     14 C14        -1.5610   -0.1940    6.1310 c3        1 IDA     -0.091100
     15 C7          0.3580    0.1350    2.0570 ca        1 IDA     -0.135000
     16 C8          0.7030    0.6140    0.8020 ca        1 IDA     -0.025300
     17 C11         2.0710    1.0560    0.4450 c3        1 IDA     -0.165100
     18 C15         2.7150    0.2250   -0.6890 c         1 IDA      0.923600
     19 O3          3.5930   -0.6200   -0.3810 o         1 IDA     -0.846300
     20 O2          2.3750    0.4610   -1.8950 o         1 IDA     -0.846300
     21 HN21        0.7830   -1.2630   -4.6860 hn        1 IDA      0.333000
     22 HN22        0.8870   -0.1900   -3.3820 hn        1 IDA      0.333000
     23 HC91       -2.7660    0.7210   -3.7960 hc        1 IDA      0.074200
     24 HC92       -1.3230    1.8190   -3.9300 hc        1 IDA      0.074200
     25 HN1         0.5960    1.2550   -1.9450 hn        1 IDA      0.344700
     26 HC2        -3.3620   -0.1990   -1.3370 ha        1 IDA      0.140000
     27 HC5        -2.9440   -0.7360    1.6150 ha        1 IDA      0.114000
     28 H121       -0.4210   -1.5320    4.0450 hc        1 IDA      0.035700
     29 H122       -2.1980   -1.3900    3.7470 hc        1 IDA      0.035700
     30 H131       -2.1280    1.0230    4.4370 hc        1 IDA      0.042700
     31 H132       -0.3480    0.8970    4.7110 hc        1 IDA      0.042700
     32 H141       -1.6160    0.6560    6.8530 hc        1 IDA      0.025033
     33 H142       -2.5250   -0.7570    6.1760 hc        1 IDA      0.025033
     34 H143       -0.7410   -0.8790    6.4540 hc        1 IDA      0.025033
     35 HC7         1.1250    0.0860    2.8440 ha        1 IDA      0.123000
     36 H111        2.0370    2.1250    0.1050 hc        1 IDA      0.041700
     37 H112        2.7410    0.9930    1.3400 hc        1 IDA      0.041700
@<TRIPOS>BOND
     1    1    2 1   
     2    1   21 1   
     3    1   22 1   
     4    2    3 2   
     5    2    4 1   
     6    4    5 1   
     7    4   23 1   
     8    4   24 1   
     9    5    6 1   
    10    5    9 2   
    11    6    7 1   
    12    6   25 1   
    13    7    8 ar  
    14    7   16 ar  
    15    8    9 1   
    16    8   10 ar  
    17    9   26 1   
    18   10   11 ar  
    19   10   27 1   
    20   11   12 1   
    21   11   15 ar  
    22   12   13 1   
    23   12   28 1   
    24   12   29 1   
    25   13   14 1   
    26   13   30 1   
    27   13   31 1   
    28   14   32 1   
    29   14   33 1   
    30   14   34 1   
    31   15   16 ar  
    32   15   35 1   
    33   16   17 1   
    34   17   18 1   
    35   17   36 1   
    36   17   37 1   
    37   18   19 1   
    38   18   20 1   
@<TRIPOS>SUBSTRUCTURE
     1 IDA         1 TEMP              0 ****  ****    0 ROOT
