@<TRIPOS>MOLECULE
IDB
   46    46     1     0     0
SMALL
bcc


@<TRIPOS>ATOM
      1 I1          0.5490    0.1530    1.3850 i         1 IDB      0.125000
      2 I2          7.2640    0.0660    0.0470 i         1 IDB      0.112000
      3 I3          6.2560    0.4920    3.1970 i         1 IDB      0.145000
      4 O1          3.3800    0.0030   -3.2560 o         1 IDB     -0.368000
      5 O2          2.8170   -0.5630    4.1890 o         1 IDB     -0.525500
      6 O3          2.7830    1.6610    3.8850 o         1 IDB     -0.525500
      7 N1          2.0530   -0.2230   -1.3630 ns        1 IDB     -0.324000
      8 C1          3.4630    0.2870    2.0490 ca        1 IDB      0.001000
      9 C2          2.5500    0.1290    1.0040 ca        1 IDB     -0.279000
     10 C3          2.9940   -0.0490   -0.3330 ca        1 IDB      0.100000
     11 C4          4.3810   -0.0650   -0.5870 ca        1 IDB     -0.166000
     12 C5          5.2780    0.0960    0.4610 ca        1 IDB     -0.204000
     13 C6          4.8370    0.2710    1.7700 ca        1 IDB     -0.246000
     14 C7          2.2630   -0.1700   -2.7300 c2        1 IDB      0.307000
     15 C8          1.0260   -0.3290   -3.6050 c3        1 IDB     -0.181000
     16 C10         0.3980   -1.6900   -3.4740 c3        1 IDB     -0.229000
     17 C11        -1.8490   -2.5760   -6.0620 c1        1 IDB     -0.055000
     18 O4         -2.7340   -5.6910   -7.2480 o         1 IDB     -0.358000
     19 O5         -6.7260   -2.5790  -12.7660 o         1 IDB     -0.523000
     20 O6         -8.2520   -3.7530  -11.6110 o         1 IDB     -0.523000
     21 N2         -3.8450   -3.8430   -8.1190 ns        1 IDB     -0.322000
     22 C12        -5.9410   -4.1880  -11.1820 ca        1 IDB     -0.001000
     23 C13        -5.4170   -3.6930   -9.9860 ca        1 IDB     -0.274000
     24 C14        -4.3750   -4.3780   -9.3090 ca        1 IDB      0.089000
     25 C15        -3.8740   -5.5720   -9.8660 ca        1 IDB     -0.158000
     26 C16        -4.4060   -6.0550  -11.0560 ca        1 IDB     -0.207000
     27 C17        -5.4280   -5.3800  -11.7160 ca        1 IDB     -0.241000
     28 C18        -3.1130   -4.5080   -7.1520 c2        1 IDB      0.276000
     29 C19        -2.7450   -3.6930   -5.9150 c3        1 IDB     -0.277000
     30 H1          1.1060   -0.3440   -1.0620 hn        1 IDB      0.241000
     31 H5          4.7550   -0.2000   -1.6160 ha        1 IDB      0.173000
     32 H8C1        1.3520   -0.1610   -4.6660 hc        1 IDB      0.106500
     33 H8C2        0.2820    0.4700   -3.3480 hc        1 IDB      0.106500
     34 H101       -0.4060   -1.8160   -4.2470 hc        1 IDB      0.089000
     35 H102       -0.0610   -1.8290   -2.4650 hc        1 IDB      0.089000
     36 H111        1.1610   -2.4920   -3.6250 hc        1 IDB      0.089000
     37 H112       -1.4570   -2.3510   -7.0640 ha        1 IDB      0.061000
     38 HB         -4.1520   -2.9180   -7.8960 hn        1 IDB      0.237000
     39 H16        -3.0680   -6.1260   -9.3560 ha        1 IDB      0.170000
     40 H191       -3.6810   -3.3270   -5.4000 hc        1 IDB      0.176000
     41 H192       -2.2460   -4.4010   -5.1820 hc        1 IDB      0.176000
     42 I4         -6.1430   -1.9660   -9.1860 i         1 IDB      0.128000
     43 I5         -3.6550   -7.7760  -11.8200 i         1 IDB      0.118000
     44 I6         -6.1080   -6.1970  -13.4390 i         1 IDB      0.151000
     45 C9          2.9760    0.4790    3.5030 c2        1 IDB      0.360000
     46 C20        -7.0750   -3.4380  -11.9180 c2        1 IDB      0.360000
@<TRIPOS>BOND
     1    1    9 1   
     2    2   12 1   
     3    3   13 1   
     4    4   14 1   
     5    5   45 1   
     6    6   45 1   
     7    7   10 1   
     8    7   14 1   
     9    7   30 1   
    10    8    9 1   
    11    8   13 1   
    12    8   45 1   
    13    9   10 1   
    14   10   11 1   
    15   11   12 1   
    16   11   31 1   
    17   12   13 1   
    18   14   15 1   
    19   15   16 1   
    20   15   32 1   
    21   15   33 1   
    22   16   34 1   
    23   16   35 1   
    24   16   36 1   
    25   17   29 1   
    26   17   37 1   
    27   18   28 1   
    28   19   46 1   
    29   20   46 1   
    30   21   24 1   
    31   21   28 1   
    32   21   38 1   
    33   22   23 1   
    34   22   27 1   
    35   22   46 1   
    36   23   24 1   
    37   23   42 1   
    38   24   25 1   
    39   25   26 1   
    40   25   39 1   
    41   26   27 1   
    42   26   43 1   
    43   27   44 1   
    44   28   29 1   
    45   29   40 1   
    46   29   41 1   
@<TRIPOS>SUBSTRUCTURE
     1 IDB         1 TEMP              0 ****  ****    0 ROOT
