@<TRIPOS>MOLECULE
IDB
   46    47     1     0     0
SMALL
bcc


@<TRIPOS>ATOM
      1 I1          5.2140   -1.9120   -1.9830 i         1 IDB     -0.150900
      2 I2          4.4490    1.9400    2.5370 i         1 IDB     -0.171900
      3 I3          9.8080    0.0770    1.3460 i         1 IDB     -0.156900
      4 O1          3.6150    2.0730   -1.1280 o         1 IDB     -0.582100
      5 O2          8.8610   -1.2730   -1.9960 o         1 IDB     -0.789300
      6 O3          8.4570   -2.9020   -0.5060 o         1 IDB     -0.789300
      7 N1          3.7100    0.0510   -0.0040 n         1 IDB     -0.489100
      8 C1          7.3520   -0.8120   -0.1940 ca        1 IDB     -0.015600
      9 C2          5.9830   -0.7730   -0.4840 ca        1 IDB      0.023900
     10 C3          5.1010    0.0460    0.2590 ca        1 IDB      0.103600
     11 C4          5.6180    0.8180    1.3190 ca        1 IDB      0.008900
     12 C5          6.9860    0.7980    1.5810 ca        1 IDB     -0.070000
     13 C6          7.8460   -0.0030    0.8370 ca        1 IDB      0.035900
     14 C7          3.0600    1.0270   -0.7510 c         1 IDB      0.665100
     15 C8          1.5940    0.7690   -1.0700 c3        1 IDB     -0.154400
     16 C10         0.7370    0.7690    0.1770 c3        1 IDB     -0.077400
     17 C11        -0.7360    0.7680   -0.1820 c3        1 IDB     -0.077400
     18 O4         -3.6140    2.0820    1.1150 o         1 IDB     -0.582100
     19 O5         -8.8610   -1.2570    2.0030 o         1 IDB     -0.789300
     20 O6         -8.4580   -2.8950    0.5220 o         1 IDB     -0.789300
     21 N2         -3.7090    0.0520    0.0030 n         1 IDB     -0.489100
     22 C12        -7.3510   -0.8070    0.1980 ca        1 IDB     -0.015600
     23 C13        -5.9820   -0.7670    0.4870 ca        1 IDB      0.023900
     24 C14        -5.1010    0.0470   -0.2600 ca        1 IDB      0.103600
     25 C15        -5.6170    0.8130   -1.3240 ca        1 IDB      0.008900
     26 C16        -6.9850    0.7920   -1.5870 ca        1 IDB     -0.070000
     27 C17        -7.8460   -0.0040   -0.8380 ca        1 IDB      0.035900
     28 C18        -3.0590    1.0330    0.7440 c         1 IDB      0.665100
     29 C19        -1.5930    0.7760    1.0640 c3        1 IDB     -0.154400
     30 H1          3.2620   -0.8360    0.0780 hn        1 IDB      0.318500
     31 H5          7.3850    1.4230    2.3980 ha        1 IDB      0.138000
     32 H8C1        1.2600    1.5870   -1.7630 hc        1 IDB      0.068700
     33 H8C2        1.4900   -0.2040   -1.6160 hc        1 IDB      0.068700
     34 H101        0.9720   -0.1300    0.8050 hc        1 IDB      0.051700
     35 H102        0.9720    1.6770    0.7930 hc        1 IDB      0.051700
     36 H111       -0.9710    1.6730   -0.8040 hc        1 IDB      0.051700
     37 H112       -0.9720   -0.1340   -0.8060 hc        1 IDB      0.051700
     38 HB         -3.2620   -0.8340   -0.0750 hn        1 IDB      0.318500
     39 H16        -7.3840    1.4130   -2.4070 ha        1 IDB      0.138000
     40 H191       -1.4890   -0.1940    1.6160 hc        1 IDB      0.068700
     41 H192       -1.2580    1.5980    1.7530 hc        1 IDB      0.068700
     42 I4         -5.2140   -1.8980    1.9940 i         1 IDB     -0.150900
     43 I5         -4.4480    1.9270   -2.5490 i         1 IDB     -0.171900
     44 I6         -9.8080    0.0740   -1.3470 i         1 IDB     -0.156900
     45 C9          8.3060   -1.7440   -0.9720 c         1 IDB      0.910200
     46 C20        -8.3060   -1.7350    0.9820 c         1 IDB      0.910200
@<TRIPOS>BOND
     1    1    9 1   
     2    2   11 1   
     3    3   13 1   
     4    4   14 2   
     5    5   45 1   
     6    6   45 1   
     7    7   10 1   
     8    7   14 1   
     9    7   30 1   
    10    8    9 ar  
    11    8   13 ar  
    12    8   45 1   
    13    9   10 ar  
    14   10   11 ar  
    15   11   12 ar  
    16   12   13 ar  
    17   12   31 1   
    18   14   15 1   
    19   15   16 1   
    20   15   32 1   
    21   15   33 1   
    22   16   17 1   
    23   16   34 1   
    24   16   35 1   
    25   17   29 1   
    26   17   36 1   
    27   17   37 1   
    28   18   28 2   
    29   19   46 1   
    30   20   46 1   
    31   21   24 1   
    32   21   28 1   
    33   21   38 1   
    34   22   23 ar  
    35   22   27 ar  
    36   22   46 1   
    37   23   24 ar  
    38   23   42 1   
    39   24   25 ar  
    40   25   26 ar  
    41   25   43 1   
    42   26   27 ar  
    43   26   39 1   
    44   27   44 1   
    45   28   29 1   
    46   29   40 1   
    47   29   41 1   
@<TRIPOS>SUBSTRUCTURE
     1 IDB         1 TEMP              0 ****  ****    0 ROOT
