@<TRIPOS>MOLECULE
IDB
   46    46     1     0     0
SMALL
bcc


@<TRIPOS>ATOM
      1 I1          2.3900    2.7500   -0.2180 i         1 IDB      0.130000
      2 I2          4.8350   -2.3120   -0.2900 i         1 IDB      0.118000
      3 I3          5.7370    0.0430    3.9850 i         1 IDB      0.133000
      4 O1          1.0230   -2.4280   -0.6800 o         1 IDB     -0.365000
      5 O2          3.6010    3.0790    3.2000 o         1 IDB     -0.518000
      6 O3          5.3700    3.1270    1.8130 o         1 IDB     -0.518000
      7 N1          1.9020   -0.2870   -0.9520 n         1 IDB     -0.335000
      8 C1          3.9870    1.1820    1.7990 c2        1 IDB      0.105000
      9 C2          3.1090    1.0610    0.6660 c2        1 IDB     -0.330000
     10 C3          2.7370   -0.1700    0.1600 c2        1 IDB      0.093000
     11 C4          3.2820   -1.4010    0.8030 c3        1 IDB     -0.234000
     12 C5          4.0960   -1.2400    1.9940 c1        1 IDB     -0.147000
     13 C6          4.4740    0.0390    2.4040 c2        1 IDB     -0.370000
     14 C7          1.1030   -1.3630   -1.3130 c2        1 IDB      0.233000
     15 C8         -0.4780   -1.1850   -4.1210 c1        1 IDB     -0.079000
     16 C10        -0.6260   -2.5130   -4.6570 c3        1 IDB     -0.253000
     17 C11        -1.3100   -2.6590   -6.0020 c3        1 IDB     -0.183000
     18 O4         -1.0140   -4.5790   -8.7600 o         1 IDB     -0.361000
     19 O5         -8.1340   -3.1200  -10.5650 o         1 IDB     -0.523000
     20 O6         -8.1160   -5.3580  -10.3840 o         1 IDB     -0.523000
     21 N2         -3.1630   -3.9790   -8.1080 n         1 IDB     -0.321000
     22 C12        -6.0140   -4.2230  -10.4950 ca        1 IDB      0.000000
     23 C13        -5.2880   -4.1200   -9.3070 ca        1 IDB     -0.276000
     24 C14        -3.8690   -4.1080   -9.3190 ca        1 IDB      0.092000
     25 C15        -3.2010   -4.2010  -10.5560 ca        1 IDB     -0.162000
     26 C16        -3.9360   -4.3060  -11.7320 ca        1 IDB     -0.206000
     27 C17        -5.3270   -4.3180  -11.7150 ca        1 IDB     -0.242000
     28 C18        -1.8260   -4.2470   -7.8760 c2        1 IDB      0.307000
     29 C19        -1.3570   -4.1080   -6.4320 c3        1 IDB     -0.187000
     30 H1          1.7660    0.5540   -1.4800 hn        1 IDB      0.241000
     31 H5          2.4930   -2.1860    0.9460 h1        1 IDB      0.196000
     32 H8C1       -0.8930   -0.3470   -4.6990 ha        1 IDB      0.054000
     33 H8C2        0.5230   -1.1770   -2.2660 h5        1 IDB      0.193000
     34 H101       -2.3500   -2.2420   -5.9430 hc        1 IDB      0.093500
     35 H102       -1.1740   -3.1150   -3.8700 hc        1 IDB      0.157000
     36 H111        0.4130   -2.9620   -4.6990 hc        1 IDB      0.157000
     37 H112       -0.7550   -2.0580   -6.7710 hc        1 IDB      0.093500
     38 HB         -3.7240   -3.7670   -7.3070 hn        1 IDB      0.240000
     39 H16        -2.0990   -4.1970  -10.5940 ha        1 IDB      0.171000
     40 H191       -2.0220   -4.6960   -5.7490 hc        1 IDB      0.109000
     41 H192       -0.3290   -4.5570   -6.3770 hc        1 IDB      0.109000
     42 I4         -6.2620   -3.9830   -7.5220 i         1 IDB      0.127000
     43 I5         -2.9320   -4.4370  -13.4890 i         1 IDB      0.116000
     44 I6         -6.2680   -4.4760  -13.5000 i         1 IDB      0.151000
     45 C9          4.3510    2.5920    2.3180 c2        1 IDB      0.355000
     46 C20        -7.5600   -4.2350  -10.4780 c2        1 IDB      0.360000
@<TRIPOS>BOND
     1    1    9 1   
     2    2   11 1   
     3    3   13 1   
     4    4   14 1   
     5    5   45 1   
     6    6   45 1   
     7    7   10 1   
     8    7   14 1   
     9    7   30 1   
    10    8    9 1   
    11    8   13 1   
    12    8   45 1   
    13    9   10 1   
    14   10   11 1   
    15   11   12 1   
    16   11   31 1   
    17   12   13 1   
    18   14   33 1   
    19   15   16 1   
    20   15   32 1   
    21   16   17 1   
    22   16   35 1   
    23   16   36 1   
    24   17   29 1   
    25   17   34 1   
    26   17   37 1   
    27   18   28 1   
    28   19   46 1   
    29   20   46 1   
    30   21   24 1   
    31   21   28 1   
    32   21   38 1   
    33   22   23 1   
    34   22   27 1   
    35   22   46 1   
    36   23   24 1   
    37   23   42 1   
    38   24   25 1   
    39   25   26 1   
    40   25   39 1   
    41   26   27 1   
    42   26   43 1   
    43   27   44 1   
    44   28   29 1   
    45   29   40 1   
    46   29   41 1   
@<TRIPOS>SUBSTRUCTURE
     1 IDB         1 TEMP              0 ****  ****    0 ROOT
