@<TRIPOS>MOLECULE
IDC
   47    46     1     0     0
SMALL
bcc


@<TRIPOS>ATOM
      1 C1A         0.9060    0.6070    0.4880 c3        1 IDC      0.157000
      2 C2A         2.2700    0.7600    1.1380 c3        1 IDC     -0.014000
      3 C3A         2.3250    1.9280    2.0780 c3        1 IDC     -0.002000
      4 C4A         1.8510    3.1820    1.4420 c3        1 IDC     -0.024000
      5 C5A         0.4860    3.0170    0.7810 c3        1 IDC     -0.001000
      6 C6A         0.1670    4.2820   -0.0000 c3        1 IDC     -0.025000
      7 O2A         2.5760   -0.4250    1.8560 oh        1 IDC     -0.337000
      8 O3A         3.7010    2.1140    2.5230 oh        1 IDC     -0.335000
      9 O4A         1.7610    4.2150    2.4490 oh        1 IDC     -0.338000
     10 O5A         0.4360    1.8580   -0.1390 os        1 IDC     -0.260000
     11 O6A        -0.4510    5.1890    0.8250 oh        1 IDC     -0.345000
     12 C1B        -2.4160   -2.8190   -1.8980 c1        1 IDC     -0.096000
     13 C2B        -2.1440   -1.3160   -2.4170 c2        1 IDC      0.082000
     14 C3B        -0.9040   -0.7120   -2.0110 c3        1 IDC      0.011000
     15 C4B        -0.4220   -1.0480   -0.6740 c3        1 IDC      0.034000
     16 C5B        -0.3190   -2.4720   -0.3550 c3        1 IDC     -0.014000
     17 C6B        -0.3410   -2.6210    1.1310 c3        1 IDC     -0.037000
     18 O2B        -2.1810   -1.3320   -3.8720 oh        1 IDC     -0.328000
     19 O3B        -1.0740    0.7850   -2.0850 oh        1 IDC     -0.336000
     20 O4B         0.9740   -0.4140   -0.5010 os        1 IDC     -0.253000
     21 N1B        -1.4430   -3.4150   -0.9560 n3        1 IDC     -0.141000
     22 O6B        -1.2860   -3.6120    1.4910 oh        1 IDC     -0.319000
     23 N2B        -3.2020   -3.8070   -2.3620 n2        1 IDC     -0.139000
     24 C7B        -2.7910   -5.0040   -1.7730 c1        1 IDC     -0.168000
     25 C8B        -1.6840   -4.7160   -0.8960 c1        1 IDC     -0.165000
     26 HC1A        0.2660    0.3400    1.1650 h2        1 IDC      0.127000
     27 HC2A        2.9530    0.8900    0.4240 h1        1 IDC      0.116000
     28 HC3A        1.7940    1.7450    2.8150 h1        1 IDC      0.103000
     29 HC4A        2.5030    3.4570    0.7600 h1        1 IDC      0.100000
     30 HC5A       -0.2000    2.8950    1.4870 h1        1 IDC      0.113000
     31 HCA1       -0.4540    4.0550   -0.7850 h1        1 IDC      0.088000
     32 HCA2        0.9640    4.6510   -0.3300 h1        1 IDC      0.088000
     33 HO2A        3.3900   -0.6300    1.7260 ho        1 IDC      0.228000
     34 HO3A        3.7050    2.4550    3.3850 ho        1 IDC      0.228000
     35 HO4A        2.3240    4.9040    2.2330 ho        1 IDC      0.233000
     36 HO6A       -0.7140    5.8920    0.3490 ho        1 IDC      0.215000
     37 HC2B       -2.9100   -0.7230   -2.0860 h4        1 IDC      0.105000
     38 HC3B       -0.2130   -0.9740   -2.6570 h1        1 IDC      0.121000
     39 HC4B       -1.0070   -0.6470   -0.0430 h1        1 IDC      0.128000
     40 HC5B        0.5410   -2.7870   -0.6780 h1        1 IDC      0.146000
     41 HCB1       -0.5920   -1.7610    1.5450 h1        1 IDC      0.110500
     42 HCB2        0.5240   -2.8820    1.4370 h1        1 IDC      0.110500
     43 HO2B       -3.0090   -1.2030   -4.1450 ho        1 IDC      0.235000
     44 HO3B       -0.9110    1.0640   -2.9290 ho        1 IDC      0.227000
     45 HO6B       -1.3160   -3.6830    2.3660 ho        1 IDC      0.202000
     46 HC7B       -3.2180   -5.9340   -1.9260 DU        1 IDC      0.184000
     47 HC8B       -1.2150   -5.3440   -0.3740 DU        1 IDC      0.184000
@<TRIPOS>BOND
     1    1    2 1   
     2    1   10 1   
     3    1   20 1   
     4    1   26 1   
     5    2    3 1   
     6    2    7 1   
     7    2   27 1   
     8    3    4 1   
     9    3    8 1   
    10    3   28 1   
    11    4    5 1   
    12    4    9 1   
    13    4   29 1   
    14    5    6 1   
    15    5   10 1   
    16    5   30 1   
    17    6   11 1   
    18    6   31 1   
    19    6   32 1   
    20    7   33 1   
    21    8   34 1   
    22    9   35 1   
    23   11   36 1   
    24   12   21 1   
    25   12   23 1   
    26   13   14 1   
    27   13   18 1   
    28   13   37 1   
    29   14   15 1   
    30   14   19 1   
    31   14   38 1   
    32   15   16 1   
    33   15   20 1   
    34   15   39 1   
    35   16   17 1   
    36   16   21 1   
    37   16   40 1   
    38   17   22 1   
    39   17   41 1   
    40   17   42 1   
    41   18   43 1   
    42   19   44 1   
    43   21   25 1   
    44   22   45 1   
    45   23   24 1   
    46   24   25 1   
@<TRIPOS>SUBSTRUCTURE
     1 IDC         1 TEMP              0 ****  ****    0 ROOT
