@<TRIPOS>MOLECULE
IDC
   47    49     1     0     0
SMALL
bcc


@<TRIPOS>ATOM
      1 C1A        -0.0970   -0.1670    0.4390 c3        1 IDC      0.308900
      2 C2A         1.4250   -0.2360    0.2020 c3        1 IDC      0.084100
      3 C3A         2.1440    0.0500    1.5280 c3        1 IDC      0.108100
      4 C4A         1.6510    1.3880    2.1110 c3        1 IDC      0.122100
      5 C5A         0.1200    1.3770    2.2340 c3        1 IDC      0.104100
      6 C6A        -0.4230    2.7590    2.6180 c3        1 IDC      0.149400
      7 O2A         1.7960   -1.5440   -0.1960 oh        1 IDC     -0.604800
      8 O3A         3.5390    0.1900    1.3270 oh        1 IDC     -0.602800
      9 O4A         2.1690    1.5700    3.4160 oh        1 IDC     -0.592800
     10 O5A        -0.4820    1.0870    0.9700 os        1 IDC     -0.419600
     11 O6A        -1.8310    2.7560    2.6520 oh        1 IDC     -0.602800
     12 C1B        -4.5930   -0.7830   -2.2540 cc        1 IDC      0.342800
     13 C2B        -4.3630    0.5170   -1.5480 c3        1 IDC      0.096800
     14 C3B        -2.8550    0.7980   -1.3570 c3        1 IDC      0.139100
     15 C4B        -2.1160   -0.4420   -0.8300 c3        1 IDC      0.147100
     16 C5B        -2.2710   -1.6630   -1.7850 c3        1 IDC      0.035000
     17 C6B        -1.7870   -2.9160   -1.0210 c3        1 IDC      0.115400
     18 O2B        -4.8520    1.6290   -2.2780 oh        1 IDC     -0.601800
     19 O3B        -2.7130    1.8130   -0.3770 oh        1 IDC     -0.589800
     20 O4B        -0.7110   -0.1620   -0.8350 os        1 IDC     -0.409600
     21 N1B        -3.6050   -1.7860   -2.3050 na        1 IDC     -0.188900
     22 O6B        -1.5760   -3.9360   -1.9810 oh        1 IDC     -0.602800
     23 N2B        -5.7220   -1.1860   -2.8890 nd        1 IDC     -0.662000
     24 C7B        -5.4550   -2.4670   -3.3650 cd        1 IDC      0.285200
     25 C8B        -4.1470   -2.8570   -3.0150 cc        1 IDC     -0.225600
     26 HC1A       -0.4540   -1.0130    1.0890 h2        1 IDC      0.049700
     27 HC2A        1.7260    0.5160   -0.5780 h1        1 IDC      0.082700
     28 HC3A        1.9500   -0.7870    2.2560 h1        1 IDC      0.063700
     29 HC4A        1.9860    2.2290    1.4430 h1        1 IDC      0.065700
     30 HC5A       -0.2000    0.6080    2.9890 h1        1 IDC      0.065700
     31 HCA1       -0.0500    3.5280    1.8910 h1        1 IDC      0.059700
     32 HCA2       -0.0880    3.0100    3.6590 h1        1 IDC      0.059700
     33 HO2A        1.4240   -1.6770   -1.0780 ho        1 IDC      0.422000
     34 HO3A        3.8420   -0.6270    0.9090 ho        1 IDC      0.426000
     35 HO4A        3.1320    1.5190    3.3360 ho        1 IDC      0.425000
     36 HO6A       -2.1400    2.4930    1.7720 ho        1 IDC      0.427000
     37 HC2B       -4.8730    0.4800   -0.5410 h1        1 IDC      0.069700
     38 HC3B       -2.4000    1.1300   -2.3310 h1        1 IDC      0.076700
     39 HC4B       -2.4830   -0.6870    0.2020 h1        1 IDC      0.078700
     40 HC5B       -1.5680   -1.5120   -2.6630 h1        1 IDC      0.095700
     41 HCB1       -2.5370   -3.2460   -0.2550 h1        1 IDC      0.042200
     42 HCB2       -0.8150   -2.6610   -0.5140 h1        1 IDC      0.042200
     43 HO2B       -5.7670    1.4400   -2.5270 ho        1 IDC      0.435000
     44 HO3B       -3.1110    2.6080   -0.7580 ho        1 IDC      0.423000
     45 HO6B       -1.2910   -4.7200   -1.4960 ho        1 IDC      0.412000
     46 HC7B       -6.2010   -3.0310   -3.9230 h4        1 IDC      0.045100
     47 HC8B       -3.5780   -3.7680   -3.2020 h4        1 IDC      0.197000
@<TRIPOS>BOND
     1    1    2 1   
     2    1   10 1   
     3    1   20 1   
     4    1   26 1   
     5    2    3 1   
     6    2    7 1   
     7    2   27 1   
     8    3    4 1   
     9    3    8 1   
    10    3   28 1   
    11    4    5 1   
    12    4    9 1   
    13    4   29 1   
    14    5    6 1   
    15    5   10 1   
    16    5   30 1   
    17    6   11 1   
    18    6   31 1   
    19    6   32 1   
    20    7   33 1   
    21    8   34 1   
    22    9   35 1   
    23   11   36 1   
    24   12   13 1   
    25   12   21 1   
    26   12   23 2   
    27   13   14 1   
    28   13   18 1   
    29   13   37 1   
    30   14   15 1   
    31   14   19 1   
    32   14   38 1   
    33   15   16 1   
    34   15   20 1   
    35   15   39 1   
    36   16   17 1   
    37   16   21 1   
    38   16   40 1   
    39   17   22 1   
    40   17   41 1   
    41   17   42 1   
    42   18   43 1   
    43   19   44 1   
    44   21   25 1   
    45   22   45 1   
    46   23   24 1   
    47   24   25 2   
    48   24   46 1   
    49   25   47 1   
@<TRIPOS>SUBSTRUCTURE
     1 IDC         1 TEMP              0 ****  ****    0 ROOT
