@<TRIPOS>MOLECULE
IDC
   47    49     1     0     0
SMALL
bcc


@<TRIPOS>ATOM
      1 C1A        -0.0990   -0.1650    0.4460 c3        1 IDC      0.308900
      2 C2A         1.4230   -0.2430    0.2170 c3        1 IDC      0.084100
      3 C3A         2.1360    0.0480    1.5450 c3        1 IDC      0.108100
      4 C4A         1.6470    1.3920    2.1170 c3        1 IDC      0.122100
      5 C5A         0.1150    1.3890    2.2320 c3        1 IDC      0.104100
      6 C6A        -0.4230    2.7760    2.6040 c3        1 IDC      0.149400
      7 O2A         1.7900   -1.5550   -0.1710 oh        1 IDC     -0.604800
      8 O3A         3.5330    0.1810    1.3500 oh        1 IDC     -0.602800
      9 O4A         2.1590    1.5810    3.4240 oh        1 IDC     -0.592800
     10 O5A        -0.4820    1.0940    0.9670 os        1 IDC     -0.419600
     11 O6A        -1.8320    2.7790    2.6320 oh        1 IDC     -0.602800
     12 C1B        -4.5840   -0.7810   -2.2670 cc        1 IDC      0.342800
     13 C2B        -4.3530    0.5220   -1.5670 c3        1 IDC      0.096800
     14 C3B        -2.8450    0.7980   -1.3700 c3        1 IDC      0.139100
     15 C4B        -2.1130   -0.4410   -0.8320 c3        1 IDC      0.147100
     16 C5B        -2.2680   -1.6670   -1.7800 c3        1 IDC      0.035000
     17 C6B        -1.7930   -2.9170   -1.0060 c3        1 IDC      0.115400
     18 O2B        -4.8350    1.6310   -2.3060 oh        1 IDC     -0.601800
     19 O3B        -2.7040    1.8190   -0.3960 oh        1 IDC     -0.589800
     20 O4B        -0.7080   -0.1670   -0.8310 os        1 IDC     -0.409600
     21 N1B        -3.6000   -1.7880   -2.3060 na        1 IDC     -0.188900
     22 O6B        -1.5800   -3.9430   -1.9590 oh        1 IDC     -0.602800
     23 N2B        -5.7110   -1.1840   -2.9050 nd        1 IDC     -0.662000
     24 C7B        -5.4470   -2.4680   -3.3710 cd        1 IDC      0.285200
     25 C8B        -4.1430   -2.8610   -3.0130 cc        1 IDC     -0.225600
     26 HC1A       -0.4630   -1.0060    1.0990 h2        1 IDC      0.049700
     27 HC2A        1.7320    0.5030   -0.5660 h1        1 IDC      0.082700
     28 HC3A        1.9350   -0.7830    2.2770 h1        1 IDC      0.063700
     29 HC4A        1.9880    2.2280    1.4440 h1        1 IDC      0.065700
     30 HC5A       -0.2130    0.6260    2.9900 h1        1 IDC      0.065700
     31 HCA1       -0.0930    3.0320    3.6450 h1        1 IDC      0.059700
     32 HCA2       -0.0430    3.5390    1.8750 h1        1 IDC      0.059700
     33 HO2A        1.4230   -1.6920   -1.0540 ho        1 IDC      0.422000
     34 HO3A        3.8340   -0.6400    0.9390 ho        1 IDC      0.426000
     35 HO4A        3.1220    1.5250    3.3490 ho        1 IDC      0.425000
     36 HO6A       -2.1380    2.5120    1.7520 ho        1 IDC      0.427000
     37 HC2B       -4.8680    0.4930   -0.5620 h1        1 IDC      0.069700
     38 HC3B       -2.3840    1.1230   -2.3430 h1        1 IDC      0.076700
     39 HC4B       -2.4870   -0.6780    0.2000 h1        1 IDC      0.078700
     40 HC5B       -1.5600   -1.5240   -2.6550 h1        1 IDC      0.095700
     41 HCB1       -0.8230   -2.6630   -0.4950 h1        1 IDC      0.042200
     42 HCB2       -2.5480   -3.2400   -0.2420 h1        1 IDC      0.042200
     43 HO2B       -5.7480    1.4450   -2.5580 ho        1 IDC      0.435000
     44 HO3B       -3.0970    2.6140   -0.7830 ho        1 IDC      0.423000
     45 HO6B       -1.3010   -4.7250   -1.4680 ho        1 IDC      0.412000
     46 HC7B       -6.1920   -3.0330   -3.9300 h4        1 IDC      0.045100
     47 HC8B       -3.5760   -3.7750   -3.1910 h4        1 IDC      0.197000
@<TRIPOS>BOND
     1    1    2 1   
     2    1   10 1   
     3    1   20 1   
     4    1   26 1   
     5    2    3 1   
     6    2    7 1   
     7    2   27 1   
     8    3    4 1   
     9    3    8 1   
    10    3   28 1   
    11    4    5 1   
    12    4    9 1   
    13    4   29 1   
    14    5    6 1   
    15    5   10 1   
    16    5   30 1   
    17    6   11 1   
    18    6   31 1   
    19    6   32 1   
    20    7   33 1   
    21    8   34 1   
    22    9   35 1   
    23   11   36 1   
    24   12   13 1   
    25   12   21 1   
    26   12   23 2   
    27   13   14 1   
    28   13   18 1   
    29   13   37 1   
    30   14   15 1   
    31   14   19 1   
    32   14   38 1   
    33   15   16 1   
    34   15   20 1   
    35   15   39 1   
    36   16   17 1   
    37   16   21 1   
    38   16   40 1   
    39   17   22 1   
    40   17   41 1   
    41   17   42 1   
    42   18   43 1   
    43   19   44 1   
    44   21   25 1   
    45   22   45 1   
    46   23   24 1   
    47   24   25 2   
    48   24   46 1   
    49   25   47 1   
@<TRIPOS>SUBSTRUCTURE
     1 IDC         1 TEMP              0 ****  ****    0 ROOT
