@<TRIPOS>MOLECULE
IDC
   47    49     1     0     0
SMALL
bcc


@<TRIPOS>ATOM
      1 C1A        -0.4520   -0.1020   -1.4140 c3        1 IDC      0.308900
      2 C2A        -1.3280    0.6530   -2.4330 c3        1 IDC      0.084100
      3 C3A        -1.0970    0.0480   -3.8250 c3        1 IDC      0.108100
      4 C4A         0.4090    0.0530   -4.1530 c3        1 IDC      0.122100
      5 C5A         1.1930   -0.6560   -3.0390 c3        1 IDC      0.104100
      6 C6A         2.7060   -0.4960   -3.2270 c3        1 IDC      0.149400
      7 O2A        -2.6980    0.4710   -2.1260 oh        1 IDC     -0.604800
      8 O3A        -1.7260    0.8280   -4.8260 oh        1 IDC     -0.602800
      9 O4A         0.6490   -0.6650   -5.3490 oh        1 IDC     -0.592800
     10 O5A         0.9170   -0.0560   -1.7710 os        1 IDC     -0.419600
     11 O6A         3.4120   -1.0850   -2.1590 oh        1 IDC     -0.602800
     12 C1B         0.5560   -0.1010    3.7660 cc        1 IDC      0.342800
     13 C2B         1.7040    0.0770    2.8210 c3        1 IDC      0.096800
     14 C3B         1.2380    0.6660    1.4700 c3        1 IDC      0.139100
     15 C4B        -0.0140   -0.0540    0.9460 c3        1 IDC      0.147100
     16 C5B        -1.2000    0.0280    1.9530 c3        1 IDC      0.035000
     17 C6B        -2.2730   -0.9840    1.4940 c3        1 IDC      0.115400
     18 O2B         2.6720    0.9920    3.3040 oh        1 IDC     -0.601800
     19 O3B         2.2660    0.4570    0.5160 oh        1 IDC     -0.589800
     20 O4B        -0.4810    0.6440   -0.2130 os        1 IDC     -0.409600
     21 N1B        -0.7760   -0.1580    3.3140 na        1 IDC     -0.188900
     22 O6B        -3.4750   -0.6520    2.1650 oh        1 IDC     -0.602800
     23 N2B         0.6150   -0.2540    5.1130 nd        1 IDC     -0.662000
     24 C7B        -0.7020   -0.4040    5.5370 cd        1 IDC      0.285200
     25 C8B        -1.5810   -0.3450    4.4380 cc        1 IDC     -0.225600
     26 HC1A       -0.8020   -1.1630   -1.2730 h2        1 IDC      0.049700
     27 HC2A       -1.0630    1.7460   -2.4310 h1        1 IDC      0.082700
     28 HC3A       -1.4990   -1.0020   -3.8570 h1        1 IDC      0.063700
     29 HC4A        0.7600    1.1160   -4.2650 h1        1 IDC      0.065700
     30 HC5A        0.9160   -1.7460   -3.0070 h1        1 IDC      0.065700
     31 HCA1        2.9640    0.5930   -3.3150 h1        1 IDC      0.059700
     32 HCA2        3.0230   -1.0490   -4.1500 h1        1 IDC      0.059700
     33 HO2A       -2.8580    0.9430   -1.2980 ho        1 IDC      0.422000
     34 HO3A       -2.6630    0.8740   -4.5920 ho        1 IDC      0.426000
     35 HO4A        0.1070   -0.2450   -6.0320 ho        1 IDC      0.425000
     36 HO6A        3.1150   -0.6520   -1.3440 ho        1 IDC      0.427000
     37 HC2B        2.1930   -0.9260    2.6500 h1        1 IDC      0.069700
     38 HC3B        1.0280    1.7660    1.5820 h1        1 IDC      0.076700
     39 HC4B        0.2400   -1.1220    0.7080 h1        1 IDC      0.078700
     40 HC5B       -1.6570    1.0640    1.8700 h1        1 IDC      0.095700
     41 HCB1       -2.4100   -0.8670    0.3830 h1        1 IDC      0.042200
     42 HCB2       -1.9700   -2.0390    1.7280 h1        1 IDC      0.042200
     43 HO2B        2.9040    0.7300    4.2050 ho        1 IDC      0.435000
     44 HO3B        3.0200    0.9830    0.8180 ho        1 IDC      0.423000
     45 HO6B       -4.1360   -1.2980    1.8880 ho        1 IDC      0.412000
     46 HC7B       -0.9460   -0.5430    6.5890 h4        1 IDC      0.045100
     47 HC8B       -2.6660   -0.4190    4.3600 h4        1 IDC      0.197000
@<TRIPOS>BOND
     1    1    2 1   
     2    1   10 1   
     3    1   20 1   
     4    1   26 1   
     5    2    3 1   
     6    2    7 1   
     7    2   27 1   
     8    3    4 1   
     9    3    8 1   
    10    3   28 1   
    11    4    5 1   
    12    4    9 1   
    13    4   29 1   
    14    5    6 1   
    15    5   10 1   
    16    5   30 1   
    17    6   11 1   
    18    6   31 1   
    19    6   32 1   
    20    7   33 1   
    21    8   34 1   
    22    9   35 1   
    23   11   36 1   
    24   12   13 1   
    25   12   21 1   
    26   12   23 2   
    27   13   14 1   
    28   13   18 1   
    29   13   37 1   
    30   14   15 1   
    31   14   19 1   
    32   14   38 1   
    33   15   16 1   
    34   15   20 1   
    35   15   39 1   
    36   16   17 1   
    37   16   21 1   
    38   16   40 1   
    39   17   22 1   
    40   17   41 1   
    41   17   42 1   
    42   18   43 1   
    43   19   44 1   
    44   21   25 1   
    45   22   45 1   
    46   23   24 1   
    47   24   25 2   
    48   24   46 1   
    49   25   47 1   
@<TRIPOS>SUBSTRUCTURE
     1 IDC         1 TEMP              0 ****  ****    0 ROOT
