@<TRIPOS>MOLECULE
IDD
   36    32     1     0     0
SMALL
bcc


@<TRIPOS>ATOM
      1 C1          1.4600   -0.1550    2.5140 c1        1 IDD      0.002000
      2 C2          2.8470   -0.2350    2.5360 c1        1 IDD     -0.129750
      3 C3          3.5270   -0.2450    3.7550 c1        1 IDD     -0.129750
      4 C4          2.8120   -0.1740    4.9550 c1        1 IDD     -0.129750
      5 C5          1.4230   -0.0930    4.9320 c1        1 IDD     -0.129750
      6 C6          0.7460   -0.0830    3.7140 c1        1 IDD     -0.104000
      7 C1B        -0.2230   -1.0340   -0.5210 c1        1 IDD     -0.105000
      8 C2B        -0.8880   -1.8470   -1.7330 c2        1 IDD      0.078000
      9 C3B        -1.5860   -1.0730   -2.7110 c3        1 IDD     -0.005000
     10 C4B        -1.0250    0.2490   -3.0270 c3        1 IDD      0.039000
     11 C5B        -0.7660    1.1300   -1.9110 c3        1 IDD     -0.041000
     12 C6B        -2.0420    1.8780   -1.5890 c3        1 IDD     -0.034000
     13 O2B         0.1580   -2.5780   -2.4150 oh        1 IDD     -0.333000
     14 O3B        -2.9980   -0.8730   -2.2230 oh        1 IDD     -0.320000
     15 O4B         0.2760    0.0310   -3.7580 oh        1 IDD     -0.315000
     16 N1B        -0.2550    0.4560   -0.5820 n3        1 IDD     -0.130000
     17 O6B        -1.7510    3.2870   -1.4730 oh        1 IDD     -0.323000
     18 N2B         0.4100   -1.3920    0.6330 n2        1 IDD     -0.126000
     19 C7B         0.7840   -0.2130    1.3130 c1        1 IDD     -0.081000
     20 C8B         0.3500    0.9260    0.5190 c1        1 IDD     -0.142000
     21 H21         3.3770   -0.2890    1.6460 ha        1 IDD      0.130500
     22 H31         4.5060   -0.3020    3.7700 ha        1 IDD      0.130500
     23 H41         3.3020   -0.1810    5.8330 ha        1 IDD      0.130500
     24 H51         0.9190   -0.0420    5.7770 ha        1 IDD      0.130500
     25 H61        -0.1810   -0.0290    3.6980 ha        1 IDD      0.148000
     26 H2B1       -1.5180   -2.5000   -1.3500 h4        1 IDD      0.108000
     27 H3B1       -1.6160   -1.5780   -3.5150 h1        1 IDD      0.117000
     28 H4B1       -1.6240    0.6900   -3.6160 h1        1 IDD      0.140000
     29 H5B1       -0.1210    1.7570   -2.1830 h1        1 IDD      0.134000
     30 H6B1       -2.6990    1.7350   -2.3080 h1        1 IDD      0.111500
     31 H6B2       -2.4000    1.5550   -0.7590 h1        1 IDD      0.111500
     32 HO21        0.0950   -3.4320   -2.2160 ho        1 IDD      0.231000
     33 HO31       -3.5560   -1.4310   -2.6720 ho        1 IDD      0.213000
     34 HO41        0.2440    0.4190   -4.5130 ho        1 IDD      0.225000
     35 HO61       -2.5240    3.7450   -1.2570 ho        1 IDD      0.207000
     36 H8B1        0.5370    1.9240    0.7330 DU        1 IDD      0.191000
@<TRIPOS>BOND
     1    1    6 1   
     2    2    3 1   
     3    2   21 1   
     4    3   22 1   
     5    4    5 1   
     6    4   23 1   
     7    5   24 1   
     8    6   25 1   
     9    7   16 1   
    10    7   18 1   
    11    8    9 1   
    12    8   13 1   
    13    8   26 1   
    14    9   10 1   
    15    9   14 1   
    16    9   27 1   
    17   10   11 1   
    18   10   15 1   
    19   10   28 1   
    20   11   12 1   
    21   11   16 1   
    22   11   29 1   
    23   12   17 1   
    24   12   30 1   
    25   12   31 1   
    26   13   32 1   
    27   14   33 1   
    28   15   34 1   
    29   16   20 1   
    30   17   35 1   
    31   18   19 1   
    32   19   20 1   
@<TRIPOS>SUBSTRUCTURE
     1 IDD         1 TEMP              0 ****  ****    0 ROOT
