@<TRIPOS>MOLECULE
IDD
   36    38     1     0     0
SMALL
bcc


@<TRIPOS>ATOM
      1 C1          0.0530   -0.0180   -0.0250 ca        1 IDD     -0.098500
      2 C2          1.4000   -0.4110   -0.0060 ca        1 IDD     -0.117000
      3 C3          2.1180   -0.3980    1.1880 ca        1 IDD     -0.133000
      4 C4          1.5060    0.0060    2.3740 ca        1 IDD     -0.132000
      5 C5          0.1670    0.3980    2.3630 ca        1 IDD     -0.133000
      6 C6         -0.5570    0.3850    1.1740 ca        1 IDD     -0.117000
      7 C1B        -1.2880   -0.4270   -3.3430 cc        1 IDD      0.342800
      8 C2B        -1.3470   -0.9220   -4.7580 c3        1 IDD      0.102800
      9 C3B        -2.3390   -0.0740   -5.5770 c3        1 IDD      0.106100
     10 C4B        -3.6750    0.0660   -4.8300 c3        1 IDD      0.141100
     11 C5B        -3.4830    0.8280   -3.4900 c3        1 IDD      0.049000
     12 C6B        -4.7950    0.6970   -2.6880 c3        1 IDD      0.118400
     13 O2B        -0.1070   -0.8120   -5.4350 oh        1 IDD     -0.603800
     14 O3B        -2.6400   -0.7170   -6.8040 oh        1 IDD     -0.611800
     15 O4B        -4.5910    0.8420   -5.5830 oh        1 IDD     -0.600800
     16 N1B        -2.3170    0.3600   -2.7840 na        1 IDD     -0.185900
     17 O6B        -4.7340    1.6290   -1.6220 oh        1 IDD     -0.607800
     18 N2B        -0.3110   -0.6660   -2.4370 nd        1 IDD     -0.653000
     19 C7B        -0.7110   -0.0180   -1.2580 cd        1 IDD      0.342800
     20 C8B        -1.9580    0.6230   -1.4680 cc        1 IDD     -0.198600
     21 H21         1.8940   -0.7320   -0.9360 ha        1 IDD      0.138000
     22 H31         3.1730   -0.7080    1.1920 ha        1 IDD      0.129500
     23 H41         2.0760    0.0170    3.3140 ha        1 IDD      0.129000
     24 H51        -0.3200    0.7160    3.2960 ha        1 IDD      0.129500
     25 H61        -1.6140    0.6900    1.1750 ha        1 IDD      0.138000
     26 H2B1       -1.6730   -2.0030   -4.7540 h1        1 IDD      0.068700
     27 H3B1       -1.8950    0.9400   -5.7800 h1        1 IDD      0.075700
     28 H4B1       -4.1130   -0.9540   -4.6450 h1        1 IDD      0.060700
     29 H5B1       -3.3340    1.9280   -3.7210 h1        1 IDD      0.097700
     30 H6B1       -4.9240   -0.3400   -2.2790 h1        1 IDD      0.051200
     31 H6B2       -5.6450    0.9400   -3.3820 h1        1 IDD      0.051200
     32 HO21        0.5750   -1.1980   -4.8700 ho        1 IDD      0.436000
     33 HO31       -1.7980   -0.8450   -7.2620 ho        1 IDD      0.433000
     34 HO41       -4.5850    0.4830   -6.4820 ho        1 IDD      0.434000
     35 HO61       -5.6260    1.6980   -1.2620 ho        1 IDD      0.412000
     36 H8B1       -2.5890    1.2230   -0.8100 h4        1 IDD      0.202000
@<TRIPOS>BOND
     1    1    2 ar  
     2    1    6 ar  
     3    1   19 1   
     4    2    3 ar  
     5    2   21 1   
     6    3    4 ar  
     7    3   22 1   
     8    4    5 ar  
     9    4   23 1   
    10    5    6 ar  
    11    5   24 1   
    12    6   25 1   
    13    7    8 1   
    14    7   16 1   
    15    7   18 2   
    16    8    9 1   
    17    8   13 1   
    18    8   26 1   
    19    9   10 1   
    20    9   14 1   
    21    9   27 1   
    22   10   11 1   
    23   10   15 1   
    24   10   28 1   
    25   11   12 1   
    26   11   16 1   
    27   11   29 1   
    28   12   17 1   
    29   12   30 1   
    30   12   31 1   
    31   13   32 1   
    32   14   33 1   
    33   15   34 1   
    34   16   20 1   
    35   17   35 1   
    36   18   19 1   
    37   19   20 2   
    38   20   36 1   
@<TRIPOS>SUBSTRUCTURE
     1 IDD         1 TEMP              0 ****  ****    0 ROOT
