@<TRIPOS>MOLECULE
IDD
   36    38     1     0     0
SMALL
bcc


@<TRIPOS>ATOM
      1 C1          0.0600   -0.0090   -0.0280 ca        1 IDD     -0.098500
      2 C2          1.4070   -0.4020   -0.0100 ca        1 IDD     -0.117000
      3 C3          2.1250   -0.3870    1.1840 ca        1 IDD     -0.133000
      4 C4          1.5140    0.0190    2.3700 ca        1 IDD     -0.132000
      5 C5          0.1750    0.4100    2.3590 ca        1 IDD     -0.133000
      6 C6         -0.5500    0.3960    1.1700 ca        1 IDD     -0.117000
      7 C1B        -1.2840   -0.4230   -3.3440 cc        1 IDD      0.342800
      8 C2B        -1.3450   -0.9230   -4.7580 c3        1 IDD      0.102800
      9 C3B        -2.3350   -0.0750   -5.5790 c3        1 IDD      0.106100
     10 C4B        -3.6700    0.0710   -4.8320 c3        1 IDD      0.141100
     11 C5B        -3.4760    0.8370   -3.4940 c3        1 IDD      0.049000
     12 C6B        -4.7880    0.7110   -2.6910 c3        1 IDD      0.118400
     13 O2B        -0.1060   -0.8180   -5.4360 oh        1 IDD     -0.603800
     14 O3B        -2.6390   -0.7200   -6.8040 oh        1 IDD     -0.611800
     15 O4B        -4.5850    0.8470   -5.5870 oh        1 IDD     -0.600800
     16 N1B        -2.3100    0.3680   -2.7870 na        1 IDD     -0.185900
     17 O6B        -4.7230    1.6470   -1.6280 oh        1 IDD     -0.607800
     18 N2B        -0.3080   -0.6630   -2.4380 nd        1 IDD     -0.653000
     19 C7B        -0.7050   -0.0100   -1.2610 cd        1 IDD      0.342800
     20 C8B        -1.9500    0.6330   -1.4720 cc        1 IDD     -0.198600
     21 H21         1.9010   -0.7240   -0.9390 ha        1 IDD      0.138000
     22 H31         3.1800   -0.6970    1.1880 ha        1 IDD      0.129500
     23 H41         2.0840    0.0300    3.3090 ha        1 IDD      0.129000
     24 H51        -0.3120    0.7290    3.2920 ha        1 IDD      0.129500
     25 H61        -1.6070    0.7010    1.1720 ha        1 IDD      0.138000
     26 H2B1       -1.6730   -2.0030   -4.7510 h1        1 IDD      0.068700
     27 H3B1       -1.8890    0.9380   -5.7860 h1        1 IDD      0.075700
     28 H4B1       -4.1110   -0.9470   -4.6430 h1        1 IDD      0.060700
     29 H5B1       -3.3240    1.9350   -3.7290 h1        1 IDD      0.097700
     30 H6B1       -4.9190   -0.3240   -2.2790 h1        1 IDD      0.051200
     31 H6B2       -5.6370    0.9550   -3.3850 h1        1 IDD      0.051200
     32 HO21        0.5760   -1.2040   -4.8710 ho        1 IDD      0.436000
     33 HO31       -1.7980   -0.8520   -7.2620 ho        1 IDD      0.433000
     34 HO41       -4.5810    0.4860   -6.4840 ho        1 IDD      0.434000
     35 HO61       -5.6150    1.7200   -1.2680 ho        1 IDD      0.412000
     36 H8B1       -2.5790    1.2370   -0.8150 h4        1 IDD      0.202000
@<TRIPOS>BOND
     1    1    2 ar  
     2    1    6 ar  
     3    1   19 1   
     4    2    3 ar  
     5    2   21 1   
     6    3    4 ar  
     7    3   22 1   
     8    4    5 ar  
     9    4   23 1   
    10    5    6 ar  
    11    5   24 1   
    12    6   25 1   
    13    7    8 1   
    14    7   16 1   
    15    7   18 2   
    16    8    9 1   
    17    8   13 1   
    18    8   26 1   
    19    9   10 1   
    20    9   14 1   
    21    9   27 1   
    22   10   11 1   
    23   10   15 1   
    24   10   28 1   
    25   11   12 1   
    26   11   16 1   
    27   11   29 1   
    28   12   17 1   
    29   12   30 1   
    30   12   31 1   
    31   13   32 1   
    32   14   33 1   
    33   15   34 1   
    34   16   20 1   
    35   17   35 1   
    36   18   19 1   
    37   19   20 2   
    38   20   36 1   
@<TRIPOS>SUBSTRUCTURE
     1 IDD         1 TEMP              0 ****  ****    0 ROOT
