@<TRIPOS>MOLECULE
IDD
   36    38     1     0     0
SMALL
bcc


@<TRIPOS>ATOM
      1 C1          2.9070   -0.1860   -0.0010 ca        1 IDD     -0.098500
      2 C2          3.6230   -1.3860   -0.1360 ca        1 IDD     -0.117000
      3 C3          5.0160   -1.3730   -0.1540 ca        1 IDD     -0.133000
      4 C4          5.7110   -0.1700   -0.0390 ca        1 IDD     -0.132000
      5 C5          5.0060    1.0260    0.0970 ca        1 IDD     -0.133000
      6 C6          3.6140    1.0210    0.1180 ca        1 IDD     -0.117000
      7 C1B        -0.6230   -0.8860    0.1470 cc        1 IDD      0.342800
      8 C2B        -1.8610   -1.7180    0.3140 c3        1 IDD      0.102800
      9 C3B        -3.0810   -0.9770   -0.2670 c3        1 IDD      0.106100
     10 C4B        -3.1350    0.4680    0.2540 c3        1 IDD      0.141100
     11 C5B        -1.8940    1.2740   -0.2190 c3        1 IDD      0.049000
     12 C6B        -1.8870    2.6110    0.5510 c3        1 IDD      0.118400
     13 O2B        -1.7990   -2.9490   -0.3840 oh        1 IDD     -0.603800
     14 O3B        -4.2830   -1.5950    0.1620 oh        1 IDD     -0.611800
     15 O4B        -4.2580    1.1510   -0.2760 oh        1 IDD     -0.600800
     16 N1B        -0.6830    0.5060   -0.0700 na        1 IDD     -0.185900
     17 O6B        -0.9490    3.4610   -0.0880 oh        1 IDD     -0.607800
     18 N2B         0.6590   -1.3160    0.2020 nd        1 IDD     -0.653000
     19 C7B         1.4570   -0.1770    0.0140 cd        1 IDD      0.342800
     20 C8B         0.6270    0.9600   -0.1560 cc        1 IDD     -0.198600
     21 H21         3.0850   -2.3420   -0.2280 ha        1 IDD      0.138000
     22 H31         5.5680   -2.3180   -0.2600 ha        1 IDD      0.129500
     23 H41         6.8100   -0.1630   -0.0540 ha        1 IDD      0.129000
     24 H51         5.5500    1.9780    0.1900 ha        1 IDD      0.129500
     25 H61         3.0660    1.9680    0.2310 ha        1 IDD      0.138000
     26 H2B1       -2.0200   -1.9220    1.4130 h1        1 IDD      0.068700
     27 H3B1       -3.0320   -0.9870   -1.3920 h1        1 IDD      0.075700
     28 H4B1       -3.1970    0.4620    1.3780 h1        1 IDD      0.060700
     29 H5B1       -2.0210    1.5150   -1.3190 h1        1 IDD      0.097700
     30 H6B1       -1.5970    2.4650    1.6250 h1        1 IDD      0.051200
     31 H6B2       -2.9220    3.0450    0.4920 h1        1 IDD      0.051200
     32 HO21       -0.9610   -3.3740   -0.1620 ho        1 IDD      0.436000
     33 HO31       -4.2370   -2.5160   -0.1280 ho        1 IDD      0.433000
     34 HO41       -5.0220    0.5700   -0.1460 ho        1 IDD      0.434000
     35 HO61       -1.1030    4.3500    0.2520 ho        1 IDD      0.412000
     36 H8B1        0.8600    2.0120   -0.3280 h4        1 IDD      0.202000
@<TRIPOS>BOND
     1    1    2 ar  
     2    1    6 ar  
     3    1   19 1   
     4    2    3 ar  
     5    2   21 1   
     6    3    4 ar  
     7    3   22 1   
     8    4    5 ar  
     9    4   23 1   
    10    5    6 ar  
    11    5   24 1   
    12    6   25 1   
    13    7    8 1   
    14    7   16 1   
    15    7   18 2   
    16    8    9 1   
    17    8   13 1   
    18    8   26 1   
    19    9   10 1   
    20    9   14 1   
    21    9   27 1   
    22   10   11 1   
    23   10   15 1   
    24   10   28 1   
    25   11   12 1   
    26   11   16 1   
    27   11   29 1   
    28   12   17 1   
    29   12   30 1   
    30   12   31 1   
    31   13   32 1   
    32   14   33 1   
    33   15   34 1   
    34   16   20 1   
    35   17   35 1   
    36   18   19 1   
    37   19   20 2   
    38   20   36 1   
@<TRIPOS>SUBSTRUCTURE
     1 IDD         1 TEMP              0 ****  ****    0 ROOT
