@<TRIPOS>MOLECULE
IDE
   41    43     1     0     0
SMALL
bcc


@<TRIPOS>ATOM
      1 O6B         2.2990    3.4670    0.9540 oh        1 IDE     -0.608800
      2 C6B         3.0180    2.6990    0.0030 c3        1 IDE      0.118400
      3 C5B         2.9260    1.2230    0.4440 c3        1 IDE      0.049000
      4 C4B         3.9700    0.4200   -0.3790 c3        1 IDE      0.141100
      5 O4B         5.2370    0.8280    0.1070 oh        1 IDE     -0.599800
      6 C3B         3.7740   -1.0920   -0.1840 c3        1 IDE      0.106100
      7 O3B         4.8120   -1.7200   -0.9190 oh        1 IDE     -0.610800
      8 C2B         2.3980   -1.5360   -0.7180 c3        1 IDE      0.102800
      9 O2B         2.2440   -2.8780   -0.2930 oh        1 IDE     -0.602800
     10 N1B         1.6070    0.6550    0.3120 na        1 IDE     -0.184900
     11 C8B         0.3940    1.2240    0.6830 cc        1 IDE     -0.194600
     12 C7B        -0.5970    0.2600    0.3970 cd        1 IDE      0.267600
     13 N2B        -0.0080   -0.8840   -0.1510 nd        1 IDE     -0.661000
     14 C1B         1.3220   -0.6300   -0.1940 cc        1 IDE      0.343800
     15 C7         -2.0550    0.4060    0.6630 c3        1 IDE      0.175500
     16 N1         -2.8820    0.2030   -0.5080 nh        1 IDE     -0.724600
     17 C1         -4.2270   -0.1420   -0.3050 ca        1 IDE      0.146600
     18 C6         -4.9430   -0.8150   -1.3270 ca        1 IDE     -0.188500
     19 C5         -6.3000   -1.0710   -1.1830 ca        1 IDE     -0.096000
     20 C4         -6.9810   -0.6830   -0.0300 ca        1 IDE     -0.174000
     21 C3         -6.2880   -0.0290    0.9850 ca        1 IDE     -0.096000
     22 C2         -4.9290    0.2420    0.8610 ca        1 IDE     -0.188500
     23 H6B         2.5070    4.3920    0.7770 ho        1 IDE      0.413000
     24 H6B1        2.5820    2.8500   -1.0190 h1        1 IDE      0.052200
     25 H6B2        4.1040    2.9870    0.0000 h1        1 IDE      0.052200
     26 H5B         3.2190    1.1750    1.5380 h1        1 IDE      0.098700
     27 H4B         3.8900    0.6730   -1.4730 h1        1 IDE      0.061700
     28 H3          5.8880    0.2170   -0.2660 ho        1 IDE      0.434000
     29 H3B         3.8650   -1.3610    0.9050 h1        1 IDE      0.075700
     30 H2          4.6750   -2.6730   -0.8280 ho        1 IDE      0.433000
     31 H2B         2.3900   -1.4990   -1.8460 h1        1 IDE      0.069700
     32 H1          1.3330   -3.1450   -0.4730 ho        1 IDE      0.436000
     33 H8B         0.3320    2.2300    1.1030 h4        1 IDE      0.204000
     34 H71        -2.3360   -0.3060    1.4970 h1        1 IDE      0.049200
     35 H72        -2.2440    1.4560    1.0340 h1        1 IDE      0.049200
     36 HN1        -2.4420   -0.3380   -1.2250 hn        1 IDE      0.407800
     37 H8         -4.4260   -1.1330   -2.2440 ha        1 IDE      0.130500
     38 H7         -6.8400   -1.5900   -1.9900 ha        1 IDE      0.127000
     39 H6         -8.0540   -0.8920    0.0760 ha        1 IDE      0.129000
     40 H5         -6.8180    0.2810    1.8990 ha        1 IDE      0.127000
     41 H4         -4.4100    0.7660    1.6770 ha        1 IDE      0.130500
@<TRIPOS>BOND
     1    1    2 1   
     2    1   23 1   
     3    2    3 1   
     4    2   24 1   
     5    2   25 1   
     6    3    4 1   
     7    3   10 1   
     8    3   26 1   
     9    4    5 1   
    10    4    6 1   
    11    4   27 1   
    12    5   28 1   
    13    6    7 1   
    14    6    8 1   
    15    6   29 1   
    16    7   30 1   
    17    8    9 1   
    18    8   14 1   
    19    8   31 1   
    20    9   32 1   
    21   10   11 1   
    22   10   14 1   
    23   11   12 2   
    24   11   33 1   
    25   12   13 1   
    26   12   15 1   
    27   13   14 2   
    28   15   16 1   
    29   15   34 1   
    30   15   35 1   
    31   16   17 1   
    32   16   36 1   
    33   17   18 ar  
    34   17   22 ar  
    35   18   19 ar  
    36   18   37 1   
    37   19   20 ar  
    38   19   38 1   
    39   20   21 ar  
    40   20   39 1   
    41   21   22 ar  
    42   21   40 1   
    43   22   41 1   
@<TRIPOS>SUBSTRUCTURE
     1 IDE         1 TEMP              0 ****  ****    0 ROOT
