@<TRIPOS>MOLECULE
IDE
   42    44     1     0     0
SMALL
bcc


@<TRIPOS>ATOM
      1 O6B         0.3460    0.2260   -0.5900 oh        1 IDE     -0.607800
      2 C6B         1.7310    0.2010   -0.3260 c3        1 IDE      0.118400
      3 C5B         1.9920    0.0490    1.1900 c3        1 IDE      0.001000
      4 C4B         3.5030    0.2770    1.4540 c3        1 IDE      0.146100
      5 O4B         3.7190    1.6530    1.2080 oh        1 IDE     -0.594800
      6 C3B         3.8630   -0.0730    2.9080 c3        1 IDE      0.108100
      7 O3B         5.2420    0.2150    3.0420 oh        1 IDE     -0.597800
      8 C2B         3.6140   -1.5690    3.1950 c3        1 IDE      0.091800
      9 O2B         3.7030   -1.7010    4.5980 oh        1 IDE     -0.579800
     10 N1B         1.5530   -1.2200    1.7280 na        1 IDE     -0.167900
     11 C8B         0.3750   -1.8920    1.4460 cc        1 IDE     -0.137600
     12 C7B         0.3910   -3.0530    2.2510 cd        1 IDE      0.156600
     13 N2B         1.5730   -3.1040    3.0070 nd        1 IDE     -0.687000
     14 C1B         2.2630   -1.9890    2.6770 cc        1 IDE      0.393800
     15 C7         -0.6870   -4.0540    2.3700 c3        1 IDE      0.130500
     16 N1         -0.1220   -5.4500    2.3720 n4        1 IDE     -0.629400
     17 C1         -1.1730   -6.4680    2.4040 ca        1 IDE     -0.059400
     18 C6         -1.6430   -7.0210    1.2000 ca        1 IDE     -0.104000
     19 C5         -2.6380   -7.9960    1.2450 ca        1 IDE     -0.103000
     20 C4         -3.1610   -8.4170    2.4680 ca        1 IDE     -0.074000
     21 C3         -2.6910   -7.8630    3.6590 ca        1 IDE     -0.103000
     22 C2         -1.6970   -6.8870    3.6400 ca        1 IDE     -0.104000
     23 H6B         0.0360    1.1310   -0.4570 ho        1 IDE      0.419000
     24 H6B1        2.2420    1.1420   -0.6660 h1        1 IDE      0.083200
     25 H6B2        2.1290   -0.6770   -0.9000 h1        1 IDE      0.083200
     26 H5B         1.4140    0.8640    1.7280 h1        1 IDE      0.097700
     27 H4B         4.1270   -0.3390    0.7470 h1        1 IDE      0.067700
     28 H3          4.6260    1.8500    1.4890 ho        1 IDE      0.446000
     29 H3B         3.2630    0.5550    3.6230 h1        1 IDE      0.082700
     30 H2          5.4660    0.0880    3.9740 ho        1 IDE      0.438000
     31 H2B         4.4040   -2.1970    2.6900 h1        1 IDE      0.080700
     32 H1          3.6200   -2.6390    4.8140 ho        1 IDE      0.428000
     33 H8B        -0.3550   -1.5090    0.7250 h4        1 IDE      0.221000
     34 H71        -1.4060   -3.9670    1.5060 hx        1 IDE      0.107200
     35 H72        -1.2550   -3.9270    3.3380 hx        1 IDE      0.107200
     36 HN1         0.4580   -5.5780    1.5340 hn        1 IDE      0.461300
     37 H8         -1.2400   -6.7020    0.2250 ha        1 IDE      0.155500
     38 H7         -3.0090   -8.4360    0.3040 ha        1 IDE      0.170000
     39 H6         -3.9480   -9.1910    2.4940 ha        1 IDE      0.170000
     40 H5         -3.1040   -8.1960    4.6260 ha        1 IDE      0.170000
     41 H4         -1.3350   -6.4590    4.5900 ha        1 IDE      0.155500
     42 H12         0.4840   -5.5610    3.1970 hn        1 IDE      0.461300
@<TRIPOS>BOND
     1    1    2 1   
     2    1   23 1   
     3    2    3 1   
     4    2   24 1   
     5    2   25 1   
     6    3    4 1   
     7    3   10 1   
     8    3   26 1   
     9    4    5 1   
    10    4    6 1   
    11    4   27 1   
    12    5   28 1   
    13    6    7 1   
    14    6    8 1   
    15    6   29 1   
    16    7   30 1   
    17    8    9 1   
    18    8   14 1   
    19    8   31 1   
    20    9   32 1   
    21   10   11 1   
    22   10   14 1   
    23   11   12 2   
    24   11   33 1   
    25   12   13 1   
    26   12   15 1   
    27   13   14 2   
    28   15   16 1   
    29   15   34 1   
    30   15   35 1   
    31   16   17 1   
    32   16   36 1   
    33   16   42 1   
    34   17   18 ar  
    35   17   22 ar  
    36   18   19 ar  
    37   18   37 1   
    38   19   20 ar  
    39   19   38 1   
    40   20   21 ar  
    41   20   39 1   
    42   21   22 ar  
    43   21   40 1   
    44   22   41 1   
@<TRIPOS>SUBSTRUCTURE
     1 IDE         1 TEMP              0 ****  ****    0 ROOT
