@<TRIPOS>MOLECULE
IDE
   41    43     1     0     0
SMALL
bcc


@<TRIPOS>ATOM
      1 O6B         0.0270    0.8590    0.2470 oh        1 IDE     -0.608800
      2 C6B         1.4290    0.6770    0.1480 c3        1 IDE      0.118400
      3 C5B         1.9270    0.2000    1.5290 c3        1 IDE      0.049000
      4 C4B         3.4760    0.3180    1.5370 c3        1 IDE      0.141100
      5 O4B         3.7540    1.7080    1.5500 oh        1 IDE     -0.599800
      6 C3B         4.0710   -0.3670    2.7770 c3        1 IDE      0.106100
      7 O3B         5.4690   -0.1420    2.7170 oh        1 IDE     -0.610800
      8 C2B         3.7720   -1.8790    2.7590 c3        1 IDE      0.102800
      9 O2B         4.1690   -2.3570    4.0320 oh        1 IDE     -0.602800
     10 N1B         1.5030   -1.1340    1.8740 na        1 IDE     -0.184900
     11 C8B         0.2350   -1.6880    1.7320 cc        1 IDE     -0.194600
     12 C7B         0.3180   -2.9960    2.2560 cd        1 IDE      0.267600
     13 N2B         1.6160   -3.2520    2.7080 nd        1 IDE     -0.661000
     14 C1B         2.3180   -2.1170    2.4720 cc        1 IDE      0.343800
     15 C7         -0.8100   -3.9640    2.3550 c3        1 IDE      0.175500
     16 N1         -0.5400   -5.2350    1.7150 nh        1 IDE     -0.724600
     17 C1         -1.2950   -6.3460    2.1260 ca        1 IDE      0.146600
     18 C6         -0.7850   -7.6540    1.9290 ca        1 IDE     -0.188500
     19 C5         -1.5610   -8.7640    2.2350 ca        1 IDE     -0.096000
     20 C4         -2.8480   -8.6150    2.7500 ca        1 IDE     -0.174000
     21 C3         -3.3570   -7.3350    2.9560 ca        1 IDE     -0.096000
     22 C2         -2.5990   -6.2090    2.6540 ca        1 IDE     -0.188500
     23 H6B        -0.2500    1.3220   -0.5520 ho        1 IDE      0.413000
     24 H6B1        1.9410    1.6510   -0.0820 h1        1 IDE      0.052200
     25 H6B2        1.6610   -0.0730   -0.6530 h1        1 IDE      0.052200
     26 H5B         1.5100    0.9120    2.3060 h1        1 IDE      0.098700
     27 H4B         3.9120   -0.1410    0.6060 h1        1 IDE      0.061700
     28 H3          4.7000    1.8000    1.7320 ho        1 IDE      0.434000
     29 H3B         3.6530    0.0920    3.7160 h1        1 IDE      0.075700
     30 H2          5.8540   -0.5990    3.4780 ho        1 IDE      0.433000
     31 H2B         4.3900   -2.3860    1.9620 h1        1 IDE      0.069700
     32 H1          3.8580   -3.2680    4.1180 ho        1 IDE      0.436000
     33 H8B        -0.5910   -1.1320    1.2840 h4        1 IDE      0.204000
     34 H71        -1.0680   -4.0980    3.4490 h1        1 IDE      0.049200
     35 H72        -1.7110   -3.5130    1.8450 h1        1 IDE      0.049200
     36 HN1         0.4340   -5.4380    1.6140 hn        1 IDE      0.407800
     37 H8          0.2290   -7.7960    1.5260 ha        1 IDE      0.130500
     38 H7         -1.1500   -9.7720    2.0710 ha        1 IDE      0.127000
     39 H6         -3.4540   -9.4990    2.9920 ha        1 IDE      0.129000
     40 H5         -4.3720   -7.2080    3.3630 ha        1 IDE      0.127000
     41 H4         -3.0310   -5.2110    2.8210 ha        1 IDE      0.130500
@<TRIPOS>BOND
     1    1    2 1   
     2    1   23 1   
     3    2    3 1   
     4    2   24 1   
     5    2   25 1   
     6    3    4 1   
     7    3   10 1   
     8    3   26 1   
     9    4    5 1   
    10    4    6 1   
    11    4   27 1   
    12    5   28 1   
    13    6    7 1   
    14    6    8 1   
    15    6   29 1   
    16    7   30 1   
    17    8    9 1   
    18    8   14 1   
    19    8   31 1   
    20    9   32 1   
    21   10   11 1   
    22   10   14 1   
    23   11   12 2   
    24   11   33 1   
    25   12   13 1   
    26   12   15 1   
    27   13   14 2   
    28   15   16 1   
    29   15   34 1   
    30   15   35 1   
    31   16   17 1   
    32   16   36 1   
    33   17   18 ar  
    34   17   22 ar  
    35   18   19 ar  
    36   18   37 1   
    37   19   20 ar  
    38   19   38 1   
    39   20   21 ar  
    40   20   39 1   
    41   21   22 ar  
    42   21   40 1   
    43   22   41 1   
@<TRIPOS>SUBSTRUCTURE
     1 IDE         1 TEMP              0 ****  ****    0 ROOT
