@<TRIPOS>MOLECULE
IDF
   21    20     1     0     0
SMALL
bcc


@<TRIPOS>ATOM
      1 O6B        -2.7230    1.3230   -2.0670 o         1 IDF     -0.523000
      2 C6         -1.4770    1.1510   -2.0830 c1        1 IDF      0.365000
      3 O6A        -0.8470    1.2110   -3.1710 o         1 IDF     -0.523000
      4 C5         -0.7700    0.9250   -0.8600 c2        1 IDF      0.096000
      5 O5          0.6670    1.2130   -1.0060 os        1 IDF     -0.281000
      6 F5         -1.3650    1.8100   -0.0500 f         1 IDF     -0.190000
      7 C4         -0.9800   -0.6480   -0.3090 c3        1 IDF     -0.023000
      8 O4         -0.4390   -1.4420   -1.0160 oh        1 IDF     -0.362000
      9 C3         -0.2020   -0.4700    1.1080 c3        1 IDF      0.032000
     10 O3         -0.8290    0.5660    1.8430 oh        1 IDF     -0.331000
     11 C2          1.1850   -0.1480    0.9530 c3        1 IDF     -0.053000
     12 O2          2.0180   -1.4190    1.1730 oh        1 IDF     -0.320000
     13 C1          1.4550    0.3500   -0.3050 c3        1 IDF      0.149000
     14 F1          2.8140    1.0390   -0.1890 f         1 IDF     -0.181000
     15 H2         -1.9250   -0.8600   -0.1760 h1        1 IDF      0.102000
     16 H3         -0.6150   -2.2680   -0.7250 ho        1 IDF      0.266000
     17 H4         -0.2760   -1.3040    1.6130 h1        1 IDF      0.143000
     18 H5         -1.1750    0.2300    2.5910 ho        1 IDF      0.212000
     19 H6          1.4360    0.5200    1.6220 h1        1 IDF      0.101000
     20 H7          2.4680   -1.3500    1.9370 ho        1 IDF      0.198000
     21 H8          1.5810   -0.4310   -0.8830 h2        1 IDF      0.122000
@<TRIPOS>BOND
     1    1    2 1   
     2    2    3 1   
     3    4    5 1   
     4    4    6 1   
     5    4    7 1   
     6    5   13 1   
     7    7    8 1   
     8    7    9 1   
     9    7   15 1   
    10    8   16 1   
    11    9   10 1   
    12    9   11 1   
    13    9   17 1   
    14   10   18 1   
    15   11   12 1   
    16   11   13 1   
    17   11   19 1   
    18   12   20 1   
    19   13   14 1   
    20   13   21 1   
@<TRIPOS>SUBSTRUCTURE
     1 IDF         1 TEMP              0 ****  ****    0 ROOT
