@<TRIPOS>MOLECULE
IDF
   21    21     1     0     0
SMALL
bcc


@<TRIPOS>ATOM
      1 O6B         2.5000   -1.1870    0.5380 o         1 IDF     -0.784800
      2 C6          2.2210    0.0070    0.2570 c         1 IDF      0.947600
      3 O6A         3.0140    0.9620    0.1280 o         1 IDF     -0.784800
      4 C5          0.6790    0.3280   -0.0150 c3        1 IDF      0.183100
      5 O5          0.0080    0.2080    1.2310 os        1 IDF     -0.422600
      6 F5          0.4950    1.6470   -0.3760 f         1 IDF     -0.249300
      7 C4          0.0630   -0.6090   -1.0930 c3        1 IDF      0.087100
      8 O4          0.2200   -1.9830   -0.8010 oh        1 IDF     -0.646800
      9 C3         -1.4580   -0.3930   -1.2200 c3        1 IDF      0.107100
     10 O3         -1.7660    0.8290   -1.8550 oh        1 IDF     -0.606800
     11 C2         -2.1400   -0.4850    0.1540 c3        1 IDF      0.075100
     12 O2         -2.2660   -1.8220    0.5840 oh        1 IDF     -0.605800
     13 C1         -1.3950    0.3350    1.2390 c3        1 IDF      0.319400
     14 F1         -1.6550    1.6840    1.1210 f         1 IDF     -0.260300
     15 H2          0.5590   -0.3770   -2.0750 h1        1 IDF      0.060700
     16 H3          1.0760   -2.1090   -0.3520 ho        1 IDF      0.471000
     17 H4         -1.8890   -1.1870   -1.8930 h1        1 IDF      0.087700
     18 H5         -1.3640    1.5390   -1.3320 ho        1 IDF      0.425000
     19 H6         -3.1960   -0.1000    0.0750 h1        1 IDF      0.078700
     20 H7         -1.3800   -2.2180    0.5510 ho        1 IDF      0.438000
     21 H8         -1.7020   -0.0310    2.2650 h2        1 IDF      0.081700
@<TRIPOS>BOND
     1    1    2 1   
     2    2    3 1   
     3    2    4 1   
     4    4    5 1   
     5    4    6 1   
     6    4    7 1   
     7    5   13 1   
     8    7    8 1   
     9    7    9 1   
    10    7   15 1   
    11    8   16 1   
    12    9   10 1   
    13    9   11 1   
    14    9   17 1   
    15   10   18 1   
    16   11   12 1   
    17   11   13 1   
    18   11   19 1   
    19   12   20 1   
    20   13   14 1   
    21   13   21 1   
@<TRIPOS>SUBSTRUCTURE
     1 IDF         1 TEMP              0 ****  ****    0 ROOT
