@<TRIPOS>MOLECULE
IDF
   21    21     1     0     0
SMALL
bcc


@<TRIPOS>ATOM
      1 O6B         1.5140   -0.5900   -0.9200 o         1 IDF     -0.784800
      2 C6          1.1430    0.1670   -0.0010 c         1 IDF      0.947600
      3 O6A         0.1960    0.9950   -0.0260 o         1 IDF     -0.784800
      4 C5          2.0000    0.1140    1.3470 c3        1 IDF      0.183100
      5 O5          1.1590   -0.4450    2.3470 os        1 IDF     -0.422600
      6 F5          3.0470   -0.7790    1.2430 f         1 IDF     -0.249300
      7 C4          2.5340    1.5150    1.7620 c3        1 IDF      0.087100
      8 O4          1.5200    2.4920    1.8800 oh        1 IDF     -0.646800
      9 C3          3.2140    1.4680    3.1450 c3        1 IDF      0.107100
     10 O3          4.4640    0.8130    3.0960 oh        1 IDF     -0.606800
     11 C2          2.2930    0.8150    4.1870 c3        1 IDF      0.075100
     12 O2          1.2760    1.6970    4.6060 oh        1 IDF     -0.605800
     13 C1          1.6510   -0.4970    3.6670 c3        1 IDF      0.319400
     14 F1          2.5460   -1.5450    3.6990 f         1 IDF     -0.260300
     15 H2          3.2800    1.8420    0.9870 h1        1 IDF      0.060700
     16 H3          0.8380    2.3130    1.2070 ho        1 IDF      0.471000
     17 H4          3.4500    2.5190    3.4770 h1        1 IDF      0.087700
     18 H5          4.3100   -0.0840    2.7620 ho        1 IDF      0.425000
     19 H6          2.8830    0.5820    5.1170 h1        1 IDF      0.078700
     20 H7          0.8180    2.0090    3.8080 ho        1 IDF      0.438000
     21 H8          0.7410   -0.7460    4.2920 h2        1 IDF      0.081700
@<TRIPOS>BOND
     1    1    2 1   
     2    2    3 1   
     3    2    4 1   
     4    4    5 1   
     5    4    6 1   
     6    4    7 1   
     7    5   13 1   
     8    7    8 1   
     9    7    9 1   
    10    7   15 1   
    11    8   16 1   
    12    9   10 1   
    13    9   11 1   
    14    9   17 1   
    15   10   18 1   
    16   11   12 1   
    17   11   13 1   
    18   11   19 1   
    19   12   20 1   
    20   13   14 1   
    21   13   21 1   
@<TRIPOS>SUBSTRUCTURE
     1 IDF         1 TEMP              0 ****  ****    0 ROOT
