@<TRIPOS>MOLECULE
IDG
   26    26     1     0     0
SMALL
bcc


@<TRIPOS>ATOM
      1 C5         -0.1450   -0.3800    1.0790 c3        1 IDG      0.118100
      2 O5          0.9700    0.1860    0.3880 os        1 IDG     -0.455600
      3 C1          1.1580   -0.4060   -0.8950 c3        1 IDG      0.300900
      4 O1          2.3270    0.2270   -1.3520 oh        1 IDG     -0.607800
      5 C2         -0.0200   -0.0970   -1.8590 c3        1 IDG      0.118500
      6 N2         -0.0790    1.2470   -2.3820 n3        1 IDG     -0.887800
      7 C3         -1.3380   -0.5080   -1.1510 c3        1 IDG      0.108100
      8 O3         -1.4230   -1.9260   -1.1020 oh        1 IDG     -0.604800
      9 C4         -1.4320   -0.0330    0.3140 c3        1 IDG      0.114100
     10 O4         -1.7310    1.3480    0.3580 oh        1 IDG     -0.587800
     11 C6         -0.1500    0.2440    2.4850 c3        1 IDG      0.164800
     12 N6          0.7450   -0.4170    3.4000 n3        1 IDG     -0.914800
     13 H5         -0.0420   -1.5000    1.1120 h1        1 IDG      0.071700
     14 H1          1.3050   -1.5180   -0.7980 h2        1 IDG      0.052700
     15 HO1         2.9130    0.3440   -0.5900 ho        1 IDG      0.435000
     16 H2          0.1210   -0.7810   -2.7500 h1        1 IDG      0.071700
     17 HN21       -0.2890    1.9040   -1.6550 hn        1 IDG      0.359300
     18 HN22        0.8080    1.4870   -2.7860 hn        1 IDG      0.359300
     19 H3         -2.2170   -0.0870   -1.7170 h1        1 IDG      0.075700
     20 HO3        -1.5730   -2.2260   -2.0070 ho        1 IDG      0.411000
     21 H4         -2.3160   -0.5370    0.7980 h1        1 IDG      0.092700
     22 HO4        -0.8940    1.8290    0.2990 ho        1 IDG      0.410000
     23 H61        -1.2250    0.2460    2.8370 h1        1 IDG      0.043700
     24 H62         0.1790    1.3190    2.3930 h1        1 IDG      0.043700
     25 HN61        0.7470    0.0500    4.2840 hn        1 IDG      0.353800
     26 HN62        0.4920   -1.3760    3.5280 hn        1 IDG      0.353800
@<TRIPOS>BOND
     1    1    2 1   
     2    1    9 1   
     3    1   11 1   
     4    1   13 1   
     5    2    3 1   
     6    3    4 1   
     7    3    5 1   
     8    3   14 1   
     9    4   15 1   
    10    5    6 1   
    11    5    7 1   
    12    5   16 1   
    13    6   17 1   
    14    6   18 1   
    15    7    8 1   
    16    7    9 1   
    17    7   19 1   
    18    8   20 1   
    19    9   10 1   
    20    9   21 1   
    21   10   22 1   
    22   11   12 1   
    23   11   23 1   
    24   11   24 1   
    25   12   25 1   
    26   12   26 1   
@<TRIPOS>SUBSTRUCTURE
     1 IDG         1 TEMP              0 ****  ****    0 ROOT
