@<TRIPOS>MOLECULE
IDG
   26    26     1     0     0
SMALL
bcc


@<TRIPOS>ATOM
      1 C5         -0.5230    0.6460   -0.6980 c3        1 IDG      0.118100
      2 O5          0.9430    0.6480   -0.7050 os        1 IDG     -0.455600
      3 C1          1.5200    0.6140    0.6360 c3        1 IDG      0.300900
      4 O1          2.8870    0.4470    0.5290 oh        1 IDG     -0.607800
      5 C2          0.9530   -0.5110    1.4860 c3        1 IDG      0.118500
      6 N2          1.4220   -1.7880    0.9490 n3        1 IDG     -0.887800
      7 C3         -0.5230   -0.5130    1.5060 c3        1 IDG      0.108100
      8 O3         -0.9870    0.6600    2.2490 oh        1 IDG     -0.604800
      9 C4         -1.1000   -0.4800    0.1450 c3        1 IDG      0.114100
     10 O4         -0.8320   -1.7320   -0.5040 oh        1 IDG     -0.587800
     11 C6         -1.0070    0.4970   -2.1070 c3        1 IDG      0.164800
     12 N6         -0.8090    1.7210   -2.8060 n3        1 IDG     -0.914800
     13 H5         -0.8510    1.5330   -0.3280 h1        1 IDG      0.071700
     14 H1          1.3430    1.4430    1.0680 h2        1 IDG      0.052700
     15 HO1         3.2790    1.2470    0.4070 ho        1 IDG      0.435000
     16 H2          1.2750   -0.4140    2.3830 h1        1 IDG      0.071700
     17 HN21        2.3380   -1.7900    0.9220 hn        1 IDG      0.359300
     18 HN22        1.1290   -2.4720    1.4840 hn        1 IDG      0.359300
     19 H3         -0.8290   -1.3140    1.9590 h1        1 IDG      0.075700
     20 HO3        -1.4490    0.3940    2.9650 ho        1 IDG      0.411000
     21 H4         -2.0930   -0.3570    0.2150 h1        1 IDG      0.092700
     22 HO4        -1.5670   -2.2080   -0.5340 ho        1 IDG      0.410000
     23 H61        -1.9900    0.2650   -2.1040 h1        1 IDG      0.043700
     24 H62        -0.5090   -0.2090   -2.5470 h1        1 IDG      0.043700
     25 HN61       -0.4210    1.5440   -3.6480 hn        1 IDG      0.353800
     26 HN62       -1.6000    2.1300   -2.9220 hn        1 IDG      0.353800
@<TRIPOS>BOND
     1    1    2 1   
     2    1    9 1   
     3    1   11 1   
     4    1   13 1   
     5    2    3 1   
     6    3    4 1   
     7    3    5 1   
     8    3   14 1   
     9    4   15 1   
    10    5    6 1   
    11    5    7 1   
    12    5   16 1   
    13    6   17 1   
    14    6   18 1   
    15    7    8 1   
    16    7    9 1   
    17    7   19 1   
    18    8   20 1   
    19    9   10 1   
    20    9   21 1   
    21   10   22 1   
    22   11   12 1   
    23   11   23 1   
    24   11   24 1   
    25   12   25 1   
    26   12   26 1   
@<TRIPOS>SUBSTRUCTURE
     1 IDG         1 TEMP              0 ****  ****    0 ROOT
