@<TRIPOS>MOLECULE
IDH
   14    14     1     0     0
SMALL
bcc


@<TRIPOS>ATOM
      1 N1         -0.0430   -0.1690   -0.0070 n         1 IDH     -0.548900
      2 C2          1.3410    0.0460   -0.0460 c         1 IDH      0.796500
      3 O2          1.9500    0.2080   -1.1250 o         1 IDH     -0.634500
      4 N3          2.0590    0.0220    1.1690 n         1 IDH     -0.591500
      5 C4          1.4840   -0.2830    2.4010 c         1 IDH      0.714500
      6 O4          2.2210   -0.3870    3.3930 o         1 IDH     -0.583500
      7 C5         -0.0100   -0.5310    2.4410 c3        1 IDH     -0.015800
      8 C6         -0.7480    0.0420    1.2300 c3        1 IDH      0.088000
      9 I5         -0.9340    0.1610    4.1680 i         1 IDH     -0.158900
     10 H1         -0.5310    0.0440   -0.8490 hn        1 IDH      0.334500
     11 H3          3.0500    0.1300    1.1090 hn        1 IDH      0.355500
     12 H5         -0.1360   -1.6470    2.4690 h1        1 IDH      0.119700
     13 H6C1       -0.9300    1.1460    1.3940 h1        1 IDH      0.062700
     14 H6C2       -1.7530   -0.4640    1.1390 h1        1 IDH      0.062700
@<TRIPOS>BOND
     1    1    2 1   
     2    1    8 1   
     3    1   10 1   
     4    2    3 2   
     5    2    4 1   
     6    4    5 1   
     7    4   11 1   
     8    5    6 2   
     9    5    7 1   
    10    7    8 1   
    11    7    9 1   
    12    7   12 1   
    13    8   13 1   
    14    8   14 1   
@<TRIPOS>SUBSTRUCTURE
     1 IDH         1 TEMP              0 ****  ****    0 ROOT
