@<TRIPOS>MOLECULE
IDH
   14    14     1     0     0
SMALL
bcc


@<TRIPOS>ATOM
      1 N1         -0.0430   -0.1630   -0.0140 ns        1 IDH     -0.548900
      2 C2          1.3410    0.0540   -0.0560 c         1 IDH      0.796500
      3 O2          1.9460    0.2210   -1.1370 o         1 IDH     -0.634500
      4 N3          2.0630    0.0240    1.1560 ns        1 IDH     -0.591500
      5 C4          1.4920   -0.2870    2.3890 c         1 IDH      0.714500
      6 O4          2.2320   -0.3960    3.3780 o         1 IDH     -0.583500
      7 C5         -0.0020   -0.5370    2.4320 c3        1 IDH     -0.015800
      8 C6         -0.7450    0.0420    1.2260 c3        1 IDH      0.088000
      9 I5         -0.9210    0.1460    4.1660 i         1 IDH     -0.158900
     10 H1         -0.5340    0.0550   -0.8530 hn        1 IDH      0.334500
     11 H3          3.0540    0.1330    1.0940 hn        1 IDH      0.355500
     12 H5         -0.1270   -1.6530    2.4550 h1        1 IDH      0.119700
     13 H6C1       -0.9260    1.1450    1.3970 h1        1 IDH      0.062700
     14 H6C2       -1.7500   -0.4640    1.1360 h1        1 IDH      0.062700
@<TRIPOS>BOND
     1    1    2 1   
     2    1    8 1   
     3    1   10 1   
     4    2    3 2   
     5    2    4 1   
     6    4    5 1   
     7    4   11 1   
     8    5    6 2   
     9    5    7 1   
    10    7    8 1   
    11    7    9 1   
    12    7   12 1   
    13    8   13 1   
    14    8   14 1   
@<TRIPOS>SUBSTRUCTURE
     1 IDH         1 TEMP              0 ****  ****    0 ROOT
