@<TRIPOS>MOLECULE
IDH
   14    14     1     0     0
SMALL
bcc


@<TRIPOS>ATOM
      1 N1         -1.3780    0.1690    2.4520 n         1 IDH     -0.548900
      2 C2         -0.1830   -0.1040    3.1320 c         1 IDH      0.796500
      3 O2         -0.1550   -0.2660    4.3710 o         1 IDH     -0.634500
      4 N3          1.0180   -0.1400    2.3920 n         1 IDH     -0.591500
      5 C4          1.0980    0.1600    1.0330 c         1 IDH      0.714500
      6 O4          2.2160    0.2100    0.4990 o         1 IDH     -0.583500
      7 C5         -0.1920    0.4710    0.3010 c3        1 IDH     -0.015800
      8 C6         -1.4360   -0.0420    1.0300 c3        1 IDH      0.088000
      9 I5         -0.2380   -0.2220   -1.6570 i         1 IDH     -0.158900
     10 H1         -2.2120   -0.0040    2.9700 hn        1 IDH      0.334500
     11 H3          1.8610   -0.2880    2.9060 hn        1 IDH      0.355500
     12 H5         -0.2350    1.5900    0.2170 h1        1 IDH      0.119700
     13 H6C1       -2.3410    0.5090    0.6410 h1        1 IDH      0.062700
     14 H6C2       -1.5730   -1.1410    0.8010 h1        1 IDH      0.062700
@<TRIPOS>BOND
     1    1    2 1   
     2    1    8 1   
     3    1   10 1   
     4    2    3 2   
     5    2    4 1   
     6    4    5 1   
     7    4   11 1   
     8    5    6 2   
     9    5    7 1   
    10    7    8 1   
    11    7    9 1   
    12    7   12 1   
    13    8   13 1   
    14    8   14 1   
@<TRIPOS>SUBSTRUCTURE
     1 IDH         1 TEMP              0 ****  ****    0 ROOT
