@<TRIPOS>MOLECULE
IDH
   14    14     1     0     0
SMALL
bcc


@<TRIPOS>ATOM
      1 N1         -0.5960   -0.5670   -1.2530 n         1 IDH     -0.565900
      2 C2          0.8230   -0.5670   -1.2530 c         1 IDH      0.807500
      3 O2          1.4290   -0.6260   -2.3030 o         1 IDH     -0.636500
      4 N3          1.5320   -0.5670   -0.0240 n         1 IDH     -0.591500
      5 C4          0.9310   -0.0260    1.1430 c         1 IDH      0.712500
      6 O4          1.5820    0.0950    2.1610 o         1 IDH     -0.587500
      7 C5         -0.5100    0.5680    1.0730 c3        1 IDH     -0.015800
      8 C6         -1.3060    0.0940   -0.2160 c3        1 IDH      0.102000
      9 I5         -0.4670    2.7360    1.2480 i         1 IDH     -0.169900
     10 H1         -1.0520   -0.9600   -1.9380 hn        1 IDH      0.344500
     11 H3          2.3850   -0.8880    0.0100 hn        1 IDH      0.356500
     12 H5         -1.0090    0.3310    1.8780 h1        1 IDH      0.122700
     13 H6C1       -2.0160   -0.5060    0.0820 h1        1 IDH      0.060700
     14 H6C2       -1.7270    0.8830   -0.6070 h1        1 IDH      0.060700
@<TRIPOS>BOND
     1    1    2 1   
     2    1    8 1   
     3    1   10 1   
     4    2    3 2   
     5    2    4 1   
     6    4    5 1   
     7    4   11 1   
     8    5    6 2   
     9    5    7 1   
    10    7    8 1   
    11    7    9 1   
    12    7   12 1   
    13    8   13 1   
    14    8   14 1   
@<TRIPOS>SUBSTRUCTURE
     1 IDH         1 TEMP              0 ****  ****    0 ROOT
