@<TRIPOS>MOLECULE
IDH
   14    14     1     0     0
SMALL
bcc


@<TRIPOS>ATOM
      1 N1         -0.0320   -0.1760   -0.0180 n         1 IDH     -0.548900
      2 C2          1.3530    0.0410   -0.0510 c         1 IDH      0.796500
      3 O2          1.9660    0.1980   -1.1270 o         1 IDH     -0.634500
      4 N3          2.0640    0.0240    1.1680 n         1 IDH     -0.591500
      5 C4          1.4830   -0.2760    2.3990 c         1 IDH      0.714500
      6 O4          2.2150   -0.3740    3.3950 o         1 IDH     -0.583500
      7 C5         -0.0110   -0.5260    2.4320 c3        1 IDH     -0.015800
      8 C6         -0.7440    0.0400    1.2140 c3        1 IDH      0.088000
      9 I5         -0.9460    0.1720    4.1510 i         1 IDH     -0.158900
     10 H1         -0.5160    0.0320   -0.8640 hn        1 IDH      0.334500
     11 H3          3.0550    0.1330    1.1130 hn        1 IDH      0.355500
     12 H5         -0.1350   -1.6420    2.4640 h1        1 IDH      0.119700
     13 H6C1       -1.7470   -0.4680    1.1200 h1        1 IDH      0.062700
     14 H6C2       -0.9270    1.1450    1.3720 h1        1 IDH      0.062700
@<TRIPOS>BOND
     1    1    2 1   
     2    1    8 1   
     3    1   10 1   
     4    2    3 2   
     5    2    4 1   
     6    4    5 1   
     7    4   11 1   
     8    5    6 2   
     9    5    7 1   
    10    7    8 1   
    11    7    9 1   
    12    7   12 1   
    13    8   13 1   
    14    8   14 1   
@<TRIPOS>SUBSTRUCTURE
     1 IDH         1 TEMP              0 ****  ****    0 ROOT
