@<TRIPOS>MOLECULE
IDI
   21    22     1     0     0
SMALL
bcc


@<TRIPOS>ATOM
      1 I           0.0400   -0.0730   -0.0160 i         1 IDI     -0.145900
      2 C4          4.3260   -0.0480    0.0160 ca        1 IDI     -0.133000
      3 C5          2.9870   -0.0720    0.3990 ca        1 IDI     -0.096000
      4 C6          1.9830   -0.0400   -0.5700 ca        1 IDI      0.021900
      5 C7          2.3220    0.0150   -1.9200 ca        1 IDI     -0.094000
      6 C8          3.6660    0.0380   -2.3100 ca        1 IDI     -0.081300
      7 C9          4.6760    0.0080   -1.3380 ca        1 IDI     -0.047300
      8 C1          3.9850    0.0800   -3.7750 c3        1 IDI      0.207100
      9 C2          6.3110   -0.3630   -3.1920 c3        1 IDI      0.165800
     10 C3          6.1060    0.0590   -1.7370 c3        1 IDI     -0.039100
     11 N1          5.3840    0.2830   -4.0970 n7        1 IDI     -0.819200
     12 HC51        2.7310   -0.1150    1.4690 ha        1 IDI      0.144000
     13 HC71        1.5390    0.0430   -2.6940 ha        1 IDI      0.143000
     14 HC11        3.5800   -0.8750   -4.2320 h1        1 IDI      0.043200
     15 HC12        3.4210    0.9400   -4.2430 h1        1 IDI      0.043200
     16 HC21        6.2430   -1.4900   -3.2450 h1        1 IDI      0.031700
     17 HC22        7.3510   -0.0710   -3.5120 h1        1 IDI      0.031700
     18 HC31        6.4810    1.1090   -1.5930 hc        1 IDI      0.061200
     19 HC32        6.7200   -0.6130   -1.0810 hc        1 IDI      0.061200
     20 HN11        5.5590   -0.0140   -5.0390 hn        1 IDI      0.366800
     21 HC41        5.1150   -0.0720    0.7820 ha        1 IDI      0.137000
@<TRIPOS>BOND
     1    1    4 1   
     2    2    3 ar  
     3    2    7 ar  
     4    2   21 1   
     5    3    4 ar  
     6    3   12 1   
     7    4    5 ar  
     8    5    6 ar  
     9    5   13 1   
    10    6    7 ar  
    11    6    8 1   
    12    7   10 1   
    13    8   11 1   
    14    8   14 1   
    15    8   15 1   
    16    9   10 1   
    17    9   11 1   
    18    9   16 1   
    19    9   17 1   
    20   10   18 1   
    21   10   19 1   
    22   11   20 1   
@<TRIPOS>SUBSTRUCTURE
     1 IDI         1 TEMP              0 ****  ****    0 ROOT
