@<TRIPOS>MOLECULE
IDI
   21    20     1     0     0
SMALL
bcc


@<TRIPOS>ATOM
      1 I          -4.3910   -0.0180    2.0420 i         1 IDI      0.140000
      2 C4          0.0040   -0.0180    2.0420 c1        1 IDI     -0.133000
      3 C5         -1.3430   -0.0180    2.4330 c1        1 IDI     -0.096000
      4 C6         -2.3690   -0.0180    1.4510 c2        1 IDI     -0.264000
      5 C7         -2.0370   -0.0180    0.0870 c2        1 IDI     -0.094000
      6 C8         -0.7060   -0.0180   -0.3030 c1        1 IDI     -0.074000
      7 C9          0.3360   -0.0180    0.6950 c1        1 IDI     -0.040000
      8 C1         -0.2650   -0.0180   -1.8230 c3        1 IDI     -0.037000
      9 C2          1.9930   -0.0180   -1.2200 c3        1 IDI     -0.071000
     10 C3          1.8030   -0.0180    0.1970 c3        1 IDI     -0.125000
     11 N1          1.0730    0.7060   -1.9750 n3        1 IDI     -0.298000
     12 HC41        0.7080   -0.0180    2.7180 ha        1 IDI      0.137000
     13 HC51       -1.5760   -0.0180    3.3810 ha        1 IDI      0.144000
     14 HC71       -2.7430   -0.0240   -0.5870 ha        1 IDI      0.143000
     15 HC11       -0.1730   -0.9390   -2.1340 h1        1 IDI      0.082500
     16 HC12       -0.9430    0.4380   -2.3570 h1        1 IDI      0.082500
     17 HC21        1.9510   -0.9460   -1.5200 h1        1 IDI      0.071000
     18 HC22        2.8760    0.3600   -1.3950 h1        1 IDI      0.071000
     19 HC31        2.2450   -0.8080    0.5610 hc        1 IDI      0.100500
     20 HC32        2.2450    0.7730    0.5610 hc        1 IDI      0.100500
     21 HN11        1.3120    0.6550   -2.8530 hn        1 IDI      0.162000
@<TRIPOS>BOND
     1    1    4 1   
     2    2    7 1   
     3    2   12 1   
     4    3    4 1   
     5    3   13 1   
     6    4    5 1   
     7    5    6 1   
     8    5   14 1   
     9    6    8 1   
    10    7   10 1   
    11    8   11 1   
    12    8   15 1   
    13    8   16 1   
    14    9   10 1   
    15    9   11 1   
    16    9   17 1   
    17    9   18 1   
    18   10   19 1   
    19   10   20 1   
    20   11   21 1   
@<TRIPOS>SUBSTRUCTURE
     1 IDI         1 TEMP              0 ****  ****    0 ROOT
