@<TRIPOS>MOLECULE
IDI
   21    22     1     0     0
SMALL
bcc


@<TRIPOS>ATOM
      1 I          -0.1250    0.0500   -2.3320 i         1 IDI     -0.145900
      2 C4          1.8820   -0.0330    1.4540 ca        1 IDI     -0.133000
      3 C5          1.6040   -0.0070    0.0890 ca        1 IDI     -0.096000
      4 C6          0.2800    0.0150   -0.3530 ca        1 IDI      0.021900
      5 C7         -0.7610    0.0120    0.5720 ca        1 IDI     -0.094000
      6 C8         -0.4870   -0.0110    1.9440 ca        1 IDI     -0.081300
      7 C9          0.8420   -0.0360    2.3900 ca        1 IDI     -0.047300
      8 C1         -1.6390    0.0040    2.9040 c3        1 IDI      0.207100
      9 C2         -0.0300    0.3920    4.6940 c3        1 IDI      0.165800
     10 C3          1.1470   -0.0890    3.8440 c3        1 IDI     -0.039100
     11 N1         -1.2880   -0.2040    4.2950 n3        1 IDI     -0.819200
     12 HC51        2.4350   -0.0060   -0.6330 ha        1 IDI      0.144000
     13 HC71       -1.8100    0.0280    0.2350 ha        1 IDI      0.143000
     14 HC11       -2.3520   -0.8290    2.6280 h1        1 IDI      0.043200
     15 HC12       -2.1900    0.9820    2.7480 h1        1 IDI      0.043200
     16 HC21        0.1550    0.0990    5.7660 h1        1 IDI      0.031700
     17 HC22       -0.0590    1.5210    4.6490 h1        1 IDI      0.031700
     18 HC31        1.4010   -1.1490    4.1170 hc        1 IDI      0.061200
     19 HC32        2.0410    0.5460    4.0790 hc        1 IDI      0.061200
     20 HN11       -2.0280    0.1310    4.8830 hn        1 IDI      0.366800
     21 HC41        2.9260   -0.0510    1.8000 ha        1 IDI      0.137000
@<TRIPOS>BOND
     1    1    4 1   
     2    2    3 ar  
     3    2    7 ar  
     4    2   21 1   
     5    3    4 ar  
     6    3   12 1   
     7    4    5 ar  
     8    5    6 ar  
     9    5   13 1   
    10    6    7 ar  
    11    6    8 1   
    12    7   10 1   
    13    8   11 1   
    14    8   14 1   
    15    8   15 1   
    16    9   10 1   
    17    9   11 1   
    18    9   16 1   
    19    9   17 1   
    20   10   18 1   
    21   10   19 1   
    22   11   20 1   
@<TRIPOS>SUBSTRUCTURE
     1 IDI         1 TEMP              0 ****  ****    0 ROOT
