@<TRIPOS>MOLECULE
IDI
   21    22     1     0     0
SMALL
bcc


@<TRIPOS>ATOM
      1 I           0.0420   -0.0650   -0.0120 i         1 IDI     -0.145900
      2 C4          4.3280   -0.0490    0.0160 ca        1 IDI     -0.133000
      3 C5          2.9900   -0.0700    0.4010 ca        1 IDI     -0.096000
      4 C6          1.9850   -0.0360   -0.5680 ca        1 IDI      0.021900
      5 C7          2.3230    0.0190   -1.9180 ca        1 IDI     -0.094000
      6 C8          3.6660    0.0390   -2.3090 ca        1 IDI     -0.081300
      7 C9          4.6770    0.0070   -1.3390 ca        1 IDI     -0.047300
      8 C1          3.9830    0.0800   -3.7750 c3        1 IDI      0.207100
      9 C2          6.3090   -0.3670   -3.1940 c3        1 IDI      0.165800
     10 C3          6.1070    0.0560   -1.7390 c3        1 IDI     -0.039100
     11 N1          5.3830    0.2810   -4.0980 n3        1 IDI     -0.819200
     12 HC51        2.7340   -0.1130    1.4710 ha        1 IDI      0.144000
     13 HC71        1.5390    0.0480   -2.6910 ha        1 IDI      0.143000
     14 HC11        3.5760   -0.8730   -4.2320 h1        1 IDI      0.043200
     15 HC12        3.4210    0.9420   -4.2420 h1        1 IDI      0.043200
     16 HC21        7.3490   -0.0770   -3.5150 h1        1 IDI      0.031700
     17 HC22        6.2390   -1.4940   -3.2470 h1        1 IDI      0.031700
     18 HC31        6.7200   -0.6180   -1.0830 hc        1 IDI      0.061200
     19 HC32        6.4830    1.1050   -1.5960 hc        1 IDI      0.061200
     20 HN11        5.5560   -0.0170   -5.0400 hn        1 IDI      0.366800
     21 HC41        5.1180   -0.0740    0.7810 ha        1 IDI      0.137000
@<TRIPOS>BOND
     1    1    4 1   
     2    2    3 ar  
     3    2    7 ar  
     4    2   21 1   
     5    3    4 ar  
     6    3   12 1   
     7    4    5 ar  
     8    5    6 ar  
     9    5   13 1   
    10    6    7 ar  
    11    6    8 1   
    12    7   10 1   
    13    8   11 1   
    14    8   14 1   
    15    8   15 1   
    16    9   10 1   
    17    9   11 1   
    18    9   16 1   
    19    9   17 1   
    20   10   18 1   
    21   10   19 1   
    22   11   20 1   
@<TRIPOS>SUBSTRUCTURE
     1 IDI         1 TEMP              0 ****  ****    0 ROOT
