@<TRIPOS>MOLECULE
IDJ
   22    22     1     0     0
SMALL
bcc


@<TRIPOS>ATOM
      1 O6B         0.9090    1.2370    0.4410 o         1 IDJ     -0.829800
      2 C6          1.3540    0.1350    0.0150 c         1 IDJ      0.930600
      3 O6A         1.1820   -0.9860    0.5620 o         1 IDJ     -0.829800
      4 C5          2.1680    0.1380   -1.3230 c3        1 IDJ     -0.000500
      5 N5          3.5280   -0.3220   -1.1000 n3        1 IDJ     -0.806200
      6 C4          2.1420    1.5110   -2.0190 c3        1 IDJ      0.148100
      7 O4          2.6940    2.5540   -1.2350 oh        1 IDJ     -0.641800
      8 C3          2.9610    1.4830   -3.3250 c3        1 IDJ      0.097100
      9 O3          2.2600    0.8090   -4.3570 oh        1 IDJ     -0.609800
     10 C2          4.3520    0.8540   -3.1210 c3        1 IDJ      0.129100
     11 O2          5.2210    1.7740   -2.4920 oh        1 IDJ     -0.616800
     12 C1          4.2730   -0.4670   -2.3290 c3        1 IDJ      0.132800
     13 H2          1.6100   -0.5730   -2.0120 h1        1 IDJ      0.000700
     14 H3          3.5100   -1.1770   -0.5750 hn        1 IDJ      0.382800
     15 H5          1.0690    1.7600   -2.2540 h1        1 IDJ      0.046700
     16 H6          2.3220    2.4500   -0.3410 ho        1 IDJ      0.460000
     17 H7          3.0900    2.5340   -3.7090 h1        1 IDJ      0.081700
     18 H8          2.0070   -0.0550   -4.0090 ho        1 IDJ      0.399000
     19 H9          4.8240    0.6510   -4.1220 h1        1 IDJ      0.054700
     20 H10         4.7940    2.0450   -1.6640 ho        1 IDJ      0.439000
     21 H11         3.8380   -1.2470   -3.0240 h1        1 IDJ      0.016700
     22 H12         5.3200   -0.7840   -2.0660 h1        1 IDJ      0.016700
@<TRIPOS>BOND
     1    1    2 1   
     2    2    3 1   
     3    2    4 1   
     4    4    5 1   
     5    4    6 1   
     6    4   13 1   
     7    5   12 1   
     8    5   14 1   
     9    6    7 1   
    10    6    8 1   
    11    6   15 1   
    12    7   16 1   
    13    8    9 1   
    14    8   10 1   
    15    8   17 1   
    16    9   18 1   
    17   10   11 1   
    18   10   12 1   
    19   10   19 1   
    20   11   20 1   
    21   12   21 1   
    22   12   22 1   
@<TRIPOS>SUBSTRUCTURE
     1 IDJ         1 TEMP              0 ****  ****    0 ROOT
