@<TRIPOS>MOLECULE
IDJ
   22    22     1     0     0
SMALL
bcc


@<TRIPOS>ATOM
      1 O6B        -2.9470    0.1510    1.2120 o         1 IDJ     -0.834300
      2 C6         -2.2080    0.0700    0.1960 c         1 IDJ      0.928600
      3 O6A        -2.5940    0.1980   -1.0010 o         1 IDJ     -0.834300
      4 C5         -0.6970   -0.2400    0.4520 c3        1 IDJ      0.003500
      5 N5         -0.0780    0.8300    1.2210 n3        1 IDJ     -0.805200
      6 C4          0.0700   -0.5160   -0.8530 c3        1 IDJ      0.184100
      7 O4          0.0480    0.5670   -1.7690 oh        1 IDJ     -0.651800
      8 C3          1.5640   -0.7840   -0.5750 c3        1 IDJ      0.095100
      9 O3          1.6570   -2.0950   -0.0350 oh        1 IDJ     -0.594800
     10 C2          2.1770    0.2600    0.3760 c3        1 IDJ      0.129100
     11 O2          2.4480    1.4560   -0.3270 oh        1 IDJ     -0.619800
     12 C1          1.2810    0.5190    1.6020 c3        1 IDJ      0.139800
     13 H2         -0.6730   -1.2170    1.0290 h1        1 IDJ      0.025700
     14 H3         -0.6460    1.0280    2.0240 hn        1 IDJ      0.379800
     15 H5         -0.3900   -1.4190   -1.3430 h1        1 IDJ      0.051700
     16 H6         -0.8720    0.8830   -1.7930 ho        1 IDJ      0.461000
     17 H7          2.1270   -0.7440   -1.5520 h1        1 IDJ      0.041700
     18 H8          2.5840   -2.2300    0.1910 ho        1 IDJ      0.382000
     19 H9          3.1860   -0.0910    0.7330 h1        1 IDJ      0.035700
     20 H10         1.6090    1.7460   -0.7220 ho        1 IDJ      0.442000
     21 H11         1.6960    1.4010    2.1640 h1        1 IDJ      0.019200
     22 H12         1.3600   -0.3920    2.2660 h1        1 IDJ      0.019200
@<TRIPOS>BOND
     1    1    2 1   
     2    2    3 1   
     3    2    4 1   
     4    4    5 1   
     5    4    6 1   
     6    4   13 1   
     7    5   12 1   
     8    5   14 1   
     9    6    7 1   
    10    6    8 1   
    11    6   15 1   
    12    7   16 1   
    13    8    9 1   
    14    8   10 1   
    15    8   17 1   
    16    9   18 1   
    17   10   11 1   
    18   10   12 1   
    19   10   19 1   
    20   11   20 1   
    21   12   21 1   
    22   12   22 1   
@<TRIPOS>SUBSTRUCTURE
     1 IDJ         1 TEMP              0 ****  ****    0 ROOT
