@<TRIPOS>MOLECULE
IDJ
   22    22     1     0     0
SMALL
bcc


@<TRIPOS>ATOM
      1 O6B         0.8610    1.2440    0.3870 o         1 IDJ     -0.829800
      2 C6          1.3440    0.1450   -0.0000 c         1 IDJ      0.930600
      3 O6A         1.1960   -0.9650    0.5760 o         1 IDJ     -0.829800
      4 C5          2.1780    0.1350   -1.3260 c3        1 IDJ     -0.000500
      5 N5          3.5470   -0.2790   -1.0710 n3        1 IDJ     -0.806200
      6 C4          2.1230    1.4870   -2.0610 c3        1 IDJ      0.148100
      7 O4          2.6320    2.5670   -1.2990 oh        1 IDJ     -0.641800
      8 C3          2.9620    1.4460   -3.3540 c3        1 IDJ      0.097100
      9 O3          2.2970    0.7230   -4.3760 oh        1 IDJ     -0.609800
     10 C2          4.3670    0.8650   -3.1110 c3        1 IDJ      0.129100
     11 O2          5.1990    1.8270   -2.4970 oh        1 IDJ     -0.616800
     12 C1          4.3150   -0.4360   -2.2840 c3        1 IDJ      0.132800
     13 H2          1.6510   -0.6110   -2.0030 h1        1 IDJ      0.000700
     14 H3          3.5460   -1.1180   -0.5210 hn        1 IDJ      0.382800
     15 H5          1.0460    1.6970   -2.3180 h1        1 IDJ      0.046700
     16 H6          2.2500    2.4770   -0.4080 ho        1 IDJ      0.460000
     17 H7          3.0660    2.4890   -3.7650 h1        1 IDJ      0.081700
     18 H8          2.0640   -0.1380   -4.0070 ho        1 IDJ      0.399000
     19 H9          4.8610    0.6470   -4.1000 h1        1 IDJ      0.054700
     20 H10         4.7520    2.1080   -1.6830 ho        1 IDJ      0.439000
     21 H11         3.9130   -1.2470   -2.9620 h1        1 IDJ      0.016700
     22 H12         5.3670   -0.7140   -1.9970 h1        1 IDJ      0.016700
@<TRIPOS>BOND
     1    1    2 1   
     2    2    3 1   
     3    2    4 1   
     4    4    5 1   
     5    4    6 1   
     6    4   13 1   
     7    5   12 1   
     8    5   14 1   
     9    6    7 1   
    10    6    8 1   
    11    6   15 1   
    12    7   16 1   
    13    8    9 1   
    14    8   10 1   
    15    8   17 1   
    16    9   18 1   
    17   10   11 1   
    18   10   12 1   
    19   10   19 1   
    20   11   20 1   
    21   12   21 1   
    22   12   22 1   
@<TRIPOS>SUBSTRUCTURE
     1 IDJ         1 TEMP              0 ****  ****    0 ROOT
