@<TRIPOS>MOLECULE
IDL
   20    14     1     0     0
SMALL
bcc


@<TRIPOS>ATOM
      1 C           0.2660    0.1930   -1.5190 c1        1 IDL     -0.041000
      2 N1          1.6390    0.1770   -1.4880 n1        1 IDL     -0.171000
      3 C2         -1.5390    0.2320    0.0210 c1        1 IDL     -0.007000
      4 N2         -0.1820    0.2060   -0.2360 n1        1 IDL     -0.056000
      5 O2          2.4620   -1.4730    3.0170 o         1 IDL     -0.570500
      6 C3         -2.4460    0.2430   -1.0310 c1        1 IDL     -0.177500
      7 O3          0.3870   -2.0100    2.6130 o         1 IDL     -0.570500
      8 C4         -1.9940    0.2290   -2.3270 c1        1 IDL     -0.177500
      9 C5         -0.6500    0.2040   -2.5820 c1        1 IDL     -0.120000
     10 C7          0.8960    0.2000    0.5840 c1        1 IDL     -0.052000
     11 C8          2.0270    0.1820   -0.2010 c1        1 IDL     -0.181000
     12 C17         1.0540    0.2390    2.0880 c2        1 IDL     -0.182000
     13 C18         1.3150   -1.1580    2.6050 c2        1 IDL      0.337000
     14 H2         -1.8610    0.2420    0.9430 ha        1 IDL      0.243000
     15 H3         -3.4050    0.2610   -0.8490 ha        1 IDL      0.125500
     16 H4         -2.6320    0.2370   -3.0670 ha        1 IDL      0.125500
     17 H5         -0.3280    0.1940   -3.5040 ha        1 IDL      0.138000
     18 H8          2.9490    0.1940    0.1210 DU        1 IDL      0.165000
     19 H17         1.8060    0.8190    2.3220 ha        1 IDL      0.086500
     20 H17A        0.2350    0.5890    2.4930 ha        1 IDL      0.086500
@<TRIPOS>BOND
     1    1    9 1   
     2    2   11 1   
     3    3    4 1   
     4    3   14 1   
     5    5   13 1   
     6    6    8 1   
     7    6   15 1   
     8    7   13 1   
     9    8   16 1   
    10    9   17 1   
    11   10   11 1   
    12   12   13 1   
    13   12   19 1   
    14   12   20 1   
@<TRIPOS>SUBSTRUCTURE
     1 IDL         1 TEMP              0 ****  ****    0 ROOT
