@<TRIPOS>MOLECULE
IDL
   20    21     1     0     0
SMALL
bcc


@<TRIPOS>ATOM
      1 C           0.1310   -0.0760   -0.0510 cc        1 IDL     -0.065300
      2 N1          1.4710   -0.3320   -0.0820 nd        1 IDL     -0.311600
      3 C2         -1.6410    0.3530    1.5850 cc        1 IDL     -0.031300
      4 N2         -0.3240    0.0680    1.3090 na        1 IDL      0.019700
      5 O2         -1.0610    1.2140    4.3480 o         1 IDL     -0.835800
      6 C3         -2.5450    0.4720    0.5530 cd        1 IDL     -0.228000
      7 O3          0.9960    1.9900    4.7320 o         1 IDL     -0.835800
      8 C4         -2.1320    0.3210   -0.8020 cd        1 IDL     -0.127000
      9 C5         -0.8260    0.0580   -1.1100 cc        1 IDL     -0.120000
     10 C7          0.7920   -0.1190    2.1320 cc        1 IDL     -0.083300
     11 C8          1.8730   -0.3550    1.2420 cd        1 IDL     -0.040400
     12 C17         0.8020   -0.1270    3.6020 c3        1 IDL     -0.149200
     13 C18         0.2010    1.1350    4.2640 c         1 IDL      0.917600
     14 H2         -1.8870    0.5060    2.6650 h4        1 IDL      0.243000
     15 H3         -3.5930    0.7010    0.7800 ha        1 IDL      0.135000
     16 H4         -2.8840    0.4270   -1.5960 ha        1 IDL      0.116000
     17 H5         -0.4690   -0.0540   -2.1410 ha        1 IDL      0.138000
     18 H8          2.9120   -0.5270    1.5190 h4        1 IDL      0.165000
     19 H17         0.2210   -1.0130    3.9730 hc        1 IDL      0.047200
     20 H17A        1.8660   -0.2290    3.9410 hc        1 IDL      0.047200
@<TRIPOS>BOND
     1    1    2 2   
     2    1    4 1   
     3    1    9 1   
     4    2   11 1   
     5    3    4 1   
     6    3    6 2   
     7    3   14 1   
     8    4   10 1   
     9    5   13 1   
    10    6    8 1   
    11    6   15 1   
    12    7   13 1   
    13    8    9 2   
    14    8   16 1   
    15    9   17 1   
    16   10   11 2   
    17   10   12 1   
    18   11   18 1   
    19   12   13 1   
    20   12   19 1   
    21   12   20 1   
@<TRIPOS>SUBSTRUCTURE
     1 IDL         1 TEMP              0 ****  ****    0 ROOT
