@<TRIPOS>MOLECULE
IDL
   20    21     1     0     0
SMALL
bcc


@<TRIPOS>ATOM
      1 C          -1.6670   -0.9450    0.0490 cc        1 IDL     -0.065300
      2 N1         -1.1940   -2.2050    0.2720 nd        1 IDL     -0.311600
      3 C2         -0.8670    1.3700    0.0670 cc        1 IDL     -0.031300
      4 N2         -0.6260    0.0300    0.2570 na        1 IDL      0.019700
      5 O2          2.0020    2.0480   -0.0760 o         1 IDL     -0.835800
      6 C3         -2.1250    1.7930   -0.2980 cd        1 IDL     -0.228000
      7 O3          3.3710    0.4200   -0.7560 o         1 IDL     -0.835800
      8 C4         -3.1820    0.8580   -0.4980 cd        1 IDL     -0.127000
      9 C5         -2.9690   -0.4820   -0.3370 cc        1 IDL     -0.120000
     10 C7          0.5210   -0.6780    0.6330 cc        1 IDL     -0.083300
     11 C8          0.1350   -2.0430    0.6240 cd        1 IDL     -0.040400
     12 C17         1.8200   -0.0990    1.0110 c3        1 IDL     -0.149200
     13 C18         2.4360    0.8580   -0.0360 c         1 IDL      0.917600
     14 H2          0.0170    2.0440    0.1940 h4        1 IDL      0.243000
     15 H3         -2.3100    2.8640   -0.4500 ha        1 IDL      0.135000
     16 H4         -4.1700    1.2370   -0.7930 ha        1 IDL      0.116000
     17 H5         -3.7540   -1.2330   -0.4930 ha        1 IDL      0.138000
     18 H8          0.7720   -2.8970    0.8480 h4        1 IDL      0.165000
     19 H17         1.7060    0.4750    1.9690 hc        1 IDL      0.047200
     20 H17A        2.5380   -0.9430    1.1820 hc        1 IDL      0.047200
@<TRIPOS>BOND
     1    1    2 2   
     2    1    4 1   
     3    1    9 1   
     4    2   11 1   
     5    3    4 1   
     6    3    6 2   
     7    3   14 1   
     8    4   10 1   
     9    5   13 1   
    10    6    8 1   
    11    6   15 1   
    12    7   13 1   
    13    8    9 2   
    14    8   16 1   
    15    9   17 1   
    16   10   11 2   
    17   10   12 1   
    18   11   18 1   
    19   12   13 1   
    20   12   19 1   
    21   12   20 1   
@<TRIPOS>SUBSTRUCTURE
     1 IDL         1 TEMP              0 ****  ****    0 ROOT
