@<TRIPOS>MOLECULE
IDL
   20    21     1     0     0
SMALL
bcc


@<TRIPOS>ATOM
      1 C           0.0890   -0.1650   -0.0430 cc        1 IDL     -0.065300
      2 N1          1.4280   -0.4190   -0.0970 nd        1 IDL     -0.311600
      3 C2         -1.6400    0.3520    1.6140 cc        1 IDL     -0.031300
      4 N2         -0.3300    0.0550    1.3190 na        1 IDL      0.019700
      5 O2         -0.9880    1.3690    4.3070 o         1 IDL     -0.835800
      6 C3         -2.5720    0.4120    0.6030 cd        1 IDL     -0.228000
      7 O3          1.0770    2.1710    4.5890 o         1 IDL     -0.835800
      8 C4         -2.1960    0.1840   -0.7530 cd        1 IDL     -0.127000
      9 C5         -0.8980   -0.0930   -1.0810 cc        1 IDL     -0.120000
     10 C7          0.8090   -0.0830    2.1190 cc        1 IDL     -0.083300
     11 C8          1.8660   -0.3680    1.2160 cd        1 IDL     -0.040400
     12 C17         0.8590   -0.0080    3.5870 c3        1 IDL     -0.149200
     13 C18         0.2720    1.2880    4.1930 c         1 IDL      0.917600
     14 H2         -1.8570    0.5660    2.6900 h4        1 IDL      0.243000
     15 H3         -3.6150    0.6510    0.8450 ha        1 IDL      0.135000
     16 H4         -2.9700    0.2450   -1.5300 ha        1 IDL      0.116000
     17 H5         -0.5680   -0.2630   -2.1140 ha        1 IDL      0.138000
     18 H8          2.9130   -0.5210    1.4730 h4        1 IDL      0.165000
     19 H17         0.2920   -0.8730    4.0240 hc        1 IDL      0.047200
     20 H17A        1.9320   -0.0880    3.9010 hc        1 IDL      0.047200
@<TRIPOS>BOND
     1    1    2 2   
     2    1    4 1   
     3    1    9 1   
     4    2   11 1   
     5    3    4 1   
     6    3    6 2   
     7    3   14 1   
     8    4   10 1   
     9    5   13 1   
    10    6    8 1   
    11    6   15 1   
    12    7   13 1   
    13    8    9 2   
    14    8   16 1   
    15    9   17 1   
    16   10   11 2   
    17   10   12 1   
    18   11   18 1   
    19   12   13 1   
    20   12   19 1   
    21   12   20 1   
@<TRIPOS>SUBSTRUCTURE
     1 IDL         1 TEMP              0 ****  ****    0 ROOT
