@<TRIPOS>MOLECULE
IDM
   18    19     1     0     0
SMALL
bcc


@<TRIPOS>ATOM
      1 N1         -0.0230    0.0340   -0.0310 nh        1 IDM     -0.690600
      2 C2          1.4450   -0.0330    0.0260 c3        1 IDM      0.156800
      3 C3          1.8760   -0.0080    1.5180 c3        1 IDM     -0.043100
      4 C4A         0.5750   -0.0080    2.2530 ca        1 IDM     -0.134300
      5 C4          0.3160    0.0160    3.6090 ca        1 IDM     -0.091000
      6 C5         -1.0180    0.0110    4.0430 ca        1 IDM     -0.158000
      7 C6         -2.0620   -0.0160    3.1240 ca        1 IDM     -0.107000
      8 C7         -1.8200   -0.0390    1.7460 ca        1 IDM     -0.153000
      9 C7A        -0.4960   -0.0290    1.3070 ca        1 IDM      0.095600
     10 HN1        -0.4330   -0.6570   -0.6260 hn        1 IDM      0.382800
     11 H21         1.8420    0.8680   -0.5120 h1        1 IDM      0.047200
     12 H22         1.8410   -0.9530   -0.4800 h1        1 IDM      0.047200
     13 H31         2.4710    0.9110    1.7400 hc        1 IDM      0.058700
     14 H32         2.4960   -0.9010    1.7760 hc        1 IDM      0.058700
     15 H4          1.1370    0.0360    4.3400 ha        1 IDM      0.133000
     16 H5         -1.2350    0.0290    5.1200 ha        1 IDM      0.130000
     17 H6         -3.1030   -0.0190    3.4820 ha        1 IDM      0.130000
     18 H7         -2.6560   -0.0550    1.0330 ha        1 IDM      0.138000
@<TRIPOS>BOND
     1    1    2 1   
     2    1    9 1   
     3    1   10 1   
     4    2    3 1   
     5    2   11 1   
     6    2   12 1   
     7    3    4 1   
     8    3   13 1   
     9    3   14 1   
    10    4    5 ar  
    11    4    9 ar  
    12    5    6 ar  
    13    5   15 1   
    14    6    7 ar  
    15    6   16 1   
    16    7    8 ar  
    17    7   17 1   
    18    8    9 ar  
    19    8   18 1   
@<TRIPOS>SUBSTRUCTURE
     1 IDM         1 TEMP              0 ****  ****    0 ROOT
