@<TRIPOS>MOLECULE
IDM
   18    19     1     0     0
SMALL
bcc


@<TRIPOS>ATOM
      1 N1          1.2060    0.1740   -1.5250 nh        1 IDM     -0.690600
      2 C2          0.0570    0.0640   -2.4370 c3        1 IDM      0.156800
      3 C3         -1.2390    0.0050   -1.5820 c3        1 IDM     -0.043100
      4 C4A        -0.7270    0.0040   -0.1780 ca        1 IDM     -0.134300
      5 C4         -1.4090   -0.0310    1.0210 ca        1 IDM     -0.091000
      6 C5         -0.6770   -0.0220    2.2170 ca        1 IDM     -0.158000
      7 C6          0.7140    0.0240    2.1970 ca        1 IDM     -0.107000
      8 C7          1.4240    0.0630    0.9910 ca        1 IDM     -0.153000
      9 C7A         0.7020    0.0580   -0.2020 ca        1 IDM      0.095600
     10 HN1         1.9390   -0.4760   -1.7250 hn        1 IDM      0.382800
     11 H21         0.1320   -0.8400   -3.0970 h1        1 IDM      0.047200
     12 H22         0.0580    0.9790   -3.0860 h1        1 IDM      0.047200
     13 H31        -1.8820    0.8960   -1.7820 hc        1 IDM      0.058700
     14 H32        -1.8300   -0.9150   -1.8060 hc        1 IDM      0.058700
     15 H4         -2.5070   -0.0680    1.0440 ha        1 IDM      0.133000
     16 H5         -1.2110   -0.0510    3.1770 ha        1 IDM      0.130000
     17 H6          1.2730    0.0320    3.1450 ha        1 IDM      0.130000
     18 H7          2.5220    0.1030    0.9920 ha        1 IDM      0.138000
@<TRIPOS>BOND
     1    1    2 1   
     2    1    9 1   
     3    1   10 1   
     4    2    3 1   
     5    2   11 1   
     6    2   12 1   
     7    3    4 1   
     8    3   13 1   
     9    3   14 1   
    10    4    5 ar  
    11    4    9 ar  
    12    5    6 ar  
    13    5   15 1   
    14    6    7 ar  
    15    6   16 1   
    16    7    8 ar  
    17    7   17 1   
    18    8    9 ar  
    19    8   18 1   
@<TRIPOS>SUBSTRUCTURE
     1 IDM         1 TEMP              0 ****  ****    0 ROOT
