@<TRIPOS>MOLECULE
IDM
   18    19     1     0     0
SMALL
bcc


@<TRIPOS>ATOM
      1 N1         -0.0250    0.0320   -0.0310 nh        1 IDM     -0.690600
      2 C2          1.4430   -0.0340    0.0250 c3        1 IDM      0.156800
      3 C3          1.8750   -0.0070    1.5170 c3        1 IDM     -0.043100
      4 C4A         0.5750   -0.0070    2.2530 ca        1 IDM     -0.134300
      5 C4          0.3170    0.0180    3.6090 ca        1 IDM     -0.091000
      6 C5         -1.0160    0.0120    4.0440 ca        1 IDM     -0.158000
      7 C6         -2.0620   -0.0170    3.1260 ca        1 IDM     -0.107000
      8 C7         -1.8210   -0.0400    1.7470 ca        1 IDM     -0.153000
      9 C7A        -0.4970   -0.0300    1.3080 ca        1 IDM      0.095600
     10 HN1        -0.4340   -0.6590   -0.6250 hn        1 IDM      0.382800
     11 H21         1.8400   -0.9540   -0.4810 h1        1 IDM      0.047200
     12 H22         1.8390    0.8670   -0.5140 h1        1 IDM      0.047200
     13 H31         2.4700    0.9130    1.7370 hc        1 IDM      0.058700
     14 H32         2.4960   -0.8990    1.7750 hc        1 IDM      0.058700
     15 H4          1.1380    0.0390    4.3390 ha        1 IDM      0.133000
     16 H5         -1.2330    0.0310    5.1210 ha        1 IDM      0.130000
     17 H6         -3.1020   -0.0200    3.4850 ha        1 IDM      0.130000
     18 H7         -2.6570   -0.0580    1.0360 ha        1 IDM      0.138000
@<TRIPOS>BOND
     1    1    2 1   
     2    1    9 1   
     3    1   10 1   
     4    2    3 1   
     5    2   11 1   
     6    2   12 1   
     7    3    4 1   
     8    3   13 1   
     9    3   14 1   
    10    4    5 ar  
    11    4    9 ar  
    12    5    6 ar  
    13    5   15 1   
    14    6    7 ar  
    15    6   16 1   
    16    7    8 ar  
    17    7   17 1   
    18    8    9 ar  
    19    8   18 1   
@<TRIPOS>SUBSTRUCTURE
     1 IDM         1 TEMP              0 ****  ****    0 ROOT
