@<TRIPOS>MOLECULE
IDM
   18    17     1     0     0
SMALL
bcc


@<TRIPOS>ATOM
      1 N1         -0.1440    0.0420   -1.9200 n3        1 IDM     -0.246000
      2 C2          1.2830    0.0420   -1.9200 c3        1 IDM     -0.080000
      3 C3          1.7280    0.0420   -0.5330 c3        1 IDM     -0.129000
      4 C4A         0.5150    0.0420    0.3310 c2        1 IDM     -0.127000
      5 C4          0.3560    0.0420    1.7170 c2        1 IDM     -0.091000
      6 C5         -0.9230    0.0420    2.2720 c1        1 IDM     -0.158000
      7 C6         -2.0490    0.0420    1.4390 c1        1 IDM     -0.130000
      8 C7         -1.8920    0.0420    0.0540 c1        1 IDM     -0.130000
      9 C7A        -0.6080    0.0420   -0.4980 c1        1 IDM      0.014000
     10 HN1        -0.4480   -0.7090   -2.3390 hn        1 IDM      0.178000
     11 H21         1.6040   -0.7690   -2.3600 h1        1 IDM      0.086500
     12 H22         1.6040    0.8520   -2.3600 h1        1 IDM      0.086500
     13 H31         2.2440   -0.7690   -0.3610 hc        1 IDM      0.098000
     14 H32         2.2440    0.8520   -0.3610 hc        1 IDM      0.098000
     15 H4          1.1400    0.0420    2.2990 ha        1 IDM      0.133000
     16 H5         -1.0340    0.0420    3.2420 ha        1 IDM      0.130000
     17 H6         -2.9440    0.0420    1.8280 ha        1 IDM      0.134000
     18 H7         -2.6750    0.0420   -0.5280 ha        1 IDM      0.134000
@<TRIPOS>BOND
     1    1    2 1   
     2    1    9 1   
     3    1   10 1   
     4    2    3 1   
     5    2   11 1   
     6    2   12 1   
     7    3    4 1   
     8    3   13 1   
     9    3   14 1   
    10    4    5 1   
    11    4    9 1   
    12    5    6 1   
    13    5   15 1   
    14    6   16 1   
    15    7    8 1   
    16    7   17 1   
    17    8   18 1   
@<TRIPOS>SUBSTRUCTURE
     1 IDM         1 TEMP              0 ****  ****    0 ROOT
