@<TRIPOS>MOLECULE
IDN
   51    54     1     0     0
SMALL
bcc


@<TRIPOS>ATOM
      1 C01         1.0690    1.0340    0.9730 ca        1 IDN      0.595200
      2 C02         1.5260   -0.3060    0.7060 ca        1 IDN     -0.238600
      3 C03         2.1600   -1.0050    1.7220 ca        1 IDN     -0.018000
      4 C04         2.3510   -0.4060    2.9850 ca        1 IDN     -0.308100
      5 C05         1.9160    0.9290    3.1330 ca        1 IDN      0.455200
      6 N06         1.2870    1.6370    2.1910 nb        1 IDN     -0.723000
      7 C07         3.0310   -1.1390    4.0240 ce        1 IDN      0.063800
      8 C08         2.9100   -1.0200    5.3560 cf        1 IDN     -0.334200
      9 C09         2.0700   -0.0670    6.0870 c         1 IDN      0.569300
     10 O10         2.3130    1.0920    6.3880 o         1 IDN     -0.418100
     11 N11         0.7570   -0.6600    6.5790 nx        1 IDN     -0.604200
     12 C12         0.4460   -0.2200    7.9570 c3        1 IDN      0.087100
     13 C13        -0.3700   -0.3460    5.6020 c3        1 IDN      0.232000
     14 C14        -1.0910    0.8890    5.8830 cc        1 IDN     -0.281400
     15 C15        -0.8210    2.1630    5.3490 cd        1 IDN     -0.017100
     16 N16        -1.7650    3.0730    5.7860 na        1 IDN     -0.037400
     17 C17        -2.6890    2.3970    6.6090 ca        1 IDN     -0.058200
     18 C18        -2.2890    1.0120    6.6880 ca        1 IDN     -0.070800
     19 N19         0.4010    1.7450   -0.0150 ns        1 IDN     -0.544400
     20 C20        -1.8410    4.4530    5.4200 c3        1 IDN      0.011600
     21 C21        -4.1820    0.5940    8.0980 ca        1 IDN     -0.115000
     22 C22        -4.5580    1.9480    8.0240 ca        1 IDN     -0.108000
     23 C23        -3.8270    2.8640    7.2840 ca        1 IDN     -0.110000
     24 C24        -3.0580    0.1190    7.4380 ca        1 IDN     -0.123000
     25 C25         1.3710   -0.8810   -0.6530 c3        1 IDN     -0.033100
     26 C26         0.1600   -0.3430   -1.3810 c3        1 IDN     -0.150400
     27 C27        -0.0270    1.1440   -1.2130 c         1 IDN      0.703500
     28 O28        -0.5750    1.8650   -2.0560 o         1 IDN     -0.563500
     29 H03         2.5200   -2.0310    1.5380 ha        1 IDN      0.154000
     30 H05         2.1110    1.4890    4.0700 h4        1 IDN      0.028100
     31 H07         3.7330   -1.9160    3.6500 ha        1 IDN      0.162000
     32 H08         3.5260   -1.6450    6.0310 ha        1 IDN      0.184000
     33 H121        0.4650    0.9040    8.0040 hx        1 IDN      0.105033
     34 H122       -0.5840   -0.5740    8.2350 hx        1 IDN      0.105033
     35 H123        1.2100   -0.6410    8.6610 hx        1 IDN      0.105033
     36 H131       -1.0830   -1.2210    5.6630 hx        1 IDN      0.094700
     37 H132        0.1040   -0.3190    4.5760 hx        1 IDN      0.094700
     38 H15        -0.0100    2.4670    4.6770 h4        1 IDN      0.186000
     39 H19         0.2020    2.7150    0.1240 hn        1 IDN      0.354500
     40 H201       -2.6930    4.6140    4.7030 h1        1 IDN      0.069700
     41 H202       -2.0160    5.0760    6.3380 h1        1 IDN      0.069700
     42 H203       -0.8820    4.7700    4.9310 h1        1 IDN      0.069700
     43 H21        -4.8000   -0.0990    8.6910 ha        1 IDN      0.147000
     44 H22        -5.4580    2.2830    8.5640 ha        1 IDN      0.152000
     45 H23        -4.1280    3.9200    7.2230 ha        1 IDN      0.151000
     46 H24        -2.7850   -0.9440    7.4910 ha        1 IDN      0.124000
     47 H251        2.3000   -0.6450   -1.2440 hc        1 IDN      0.074700
     48 H252        1.2940   -2.0010   -0.5960 hc        1 IDN      0.074700
     49 H261       -0.7780   -0.8390   -1.0090 hc        1 IDN      0.096700
     50 H262        0.2450   -0.5610   -2.4800 hc        1 IDN      0.096700
     51 H111        0.8740   -1.6810    6.5820 hn        1 IDN      0.442800
@<TRIPOS>BOND
     1    1    2 ar  
     2    1    6 ar  
     3    1   19 1   
     4    2    3 ar  
     5    2   25 1   
     6    3    4 ar  
     7    3   29 1   
     8    4    5 ar  
     9    4    7 1   
    10    5    6 ar  
    11    5   30 1   
    12    7    8 2   
    13    7   31 1   
    14    8    9 1   
    15    8   32 1   
    16    9   10 2   
    17    9   11 1   
    18   11   12 1   
    19   11   13 1   
    20   11   51 1   
    21   12   33 1   
    22   12   34 1   
    23   12   35 1   
    24   13   14 1   
    25   13   36 1   
    26   13   37 1   
    27   14   15 2   
    28   14   18 1   
    29   15   16 1   
    30   15   38 1   
    31   16   17 1   
    32   16   20 1   
    33   17   18 ar  
    34   17   23 ar  
    35   18   24 ar  
    36   19   27 1   
    37   19   39 1   
    38   20   40 1   
    39   20   41 1   
    40   20   42 1   
    41   21   22 ar  
    42   21   24 ar  
    43   21   43 1   
    44   22   23 ar  
    45   22   44 1   
    46   23   45 1   
    47   24   46 1   
    48   25   26 1   
    49   25   47 1   
    50   25   48 1   
    51   26   27 1   
    52   26   49 1   
    53   26   50 1   
    54   27   28 2   
@<TRIPOS>SUBSTRUCTURE
     1 IDN         1 TEMP              0 ****  ****    0 ROOT
