@<TRIPOS>MOLECULE
IDN
   51    54     1     0     0
SMALL
bcc


@<TRIPOS>ATOM
      1 C01         1.0380    1.0280    0.9600 ca        1 IDN      0.595200
      2 C02         1.5480   -0.2970    0.7140 ca        1 IDN     -0.238600
      3 C03         2.2140   -0.9510    1.7390 ca        1 IDN     -0.018000
      4 C04         2.3860   -0.3240    2.9900 ca        1 IDN     -0.308100
      5 C05         1.8980    0.9960    3.1180 ca        1 IDN      0.456200
      6 N06         1.2380    1.6610    2.1660 nb        1 IDN     -0.723000
      7 C07         3.0990   -1.0090    4.0390 ce        1 IDN      0.063800
      8 C08         2.9790   -0.8720    5.3690 cf        1 IDN     -0.334200
      9 C09         2.1040    0.0590    6.0870 c         1 IDN      0.569300
     10 O10         2.3000    1.2320    6.3670 o         1 IDN     -0.418100
     11 N11         0.8170   -0.5780    6.5950 n4        1 IDN     -0.604200
     12 C12         0.4940   -0.1290    7.9670 c3        1 IDN      0.087100
     13 C13        -0.3260   -0.3250    5.6190 c3        1 IDN      0.232000
     14 C14        -1.0930    0.8860    5.8820 cc        1 IDN     -0.281400
     15 C15        -0.8750    2.1600    5.3250 cd        1 IDN     -0.017100
     16 N16        -1.8570    3.0370    5.7440 na        1 IDN     -0.037400
     17 C17        -2.7470    2.3420    6.5870 ca        1 IDN     -0.058200
     18 C18        -2.2920    0.9760    6.6900 ca        1 IDN     -0.070800
     19 N19         0.3390    1.6940   -0.0370 n         1 IDN     -0.544400
     20 C20        -1.9670    4.4180    5.3880 c3        1 IDN      0.011600
     21 C21        -4.1630    0.5080    8.1130 ca        1 IDN     -0.115000
     22 C22        -4.5930    1.8440    8.0150 ca        1 IDN     -0.108000
     23 C23        -3.9020    2.7750    7.2560 ca        1 IDN     -0.110000
     24 C24        -3.0230    0.0670    7.4580 ca        1 IDN     -0.123000
     25 C25         1.4110   -0.9020   -0.6340 c3        1 IDN     -0.033100
     26 C26         0.1760   -0.4250   -1.3650 c3        1 IDN     -0.150400
     27 C27        -0.0690    1.0560   -1.2230 c         1 IDN      0.703500
     28 O28        -0.6480    1.7390   -2.0760 o         1 IDN     -0.563500
     29 H03         2.6140   -1.9650    1.5720 ha        1 IDN      0.154000
     30 H05         2.0750    1.5790    4.0430 h4        1 IDN      0.028100
     31 H07         3.8300   -1.7640    3.6750 ha        1 IDN      0.162000
     32 H08         3.6220   -1.4590    6.0520 ha        1 IDN      0.184000
     33 H121       -0.5190   -0.5180    8.2560 hx        1 IDN      0.105033
     34 H122        0.4690    0.9960    7.9960 hx        1 IDN      0.105033
     35 H123        1.2770   -0.5070    8.6750 hx        1 IDN      0.105033
     36 H131       -1.0030   -1.2260    5.6980 hx        1 IDN      0.094700
     37 H132        0.1430   -0.2960    4.5900 hx        1 IDN      0.094700
     38 H15        -0.0790    2.4840    4.6440 h4        1 IDN      0.186000
     39 H19         0.1020    2.6590    0.0850 hn        1 IDN      0.354500
     40 H201       -1.2360    4.6590    4.5720 h1        1 IDN      0.069367
     41 H202       -1.7500    5.0620    6.2830 h1        1 IDN      0.069367
     42 H203       -3.0100    4.6330    5.0290 h1        1 IDN      0.069367
     43 H21        -4.7520   -0.1980    8.7200 ha        1 IDN      0.147000
     44 H22        -5.5050    2.1520    8.5520 ha        1 IDN      0.152000
     45 H23        -4.2450    3.8170    7.1770 ha        1 IDN      0.151000
     46 H24        -2.7080   -0.9840    7.5290 ha        1 IDN      0.124000
     47 H251        2.3270   -0.6390   -1.2340 hc        1 IDN      0.074700
     48 H252        1.3790   -2.0230   -0.5570 hc        1 IDN      0.074700
     49 H261        0.2650   -0.6590   -2.4610 hc        1 IDN      0.096700
     50 H262       -0.7400   -0.9510   -0.9800 hc        1 IDN      0.096700
     51 H111        0.9740   -1.5930    6.6130 hn        1 IDN      0.442800
@<TRIPOS>BOND
     1    1    2 ar  
     2    1    6 ar  
     3    1   19 1   
     4    2    3 ar  
     5    2   25 1   
     6    3    4 ar  
     7    3   29 1   
     8    4    5 ar  
     9    4    7 1   
    10    5    6 ar  
    11    5   30 1   
    12    7    8 2   
    13    7   31 1   
    14    8    9 1   
    15    8   32 1   
    16    9   10 2   
    17    9   11 1   
    18   11   12 1   
    19   11   13 1   
    20   11   51 1   
    21   12   33 1   
    22   12   34 1   
    23   12   35 1   
    24   13   14 1   
    25   13   36 1   
    26   13   37 1   
    27   14   15 2   
    28   14   18 1   
    29   15   16 1   
    30   15   38 1   
    31   16   17 1   
    32   16   20 1   
    33   17   18 ar  
    34   17   23 ar  
    35   18   24 ar  
    36   19   27 1   
    37   19   39 1   
    38   20   40 1   
    39   20   41 1   
    40   20   42 1   
    41   21   22 ar  
    42   21   24 ar  
    43   21   43 1   
    44   22   23 ar  
    45   22   44 1   
    46   23   45 1   
    47   24   46 1   
    48   25   26 1   
    49   25   47 1   
    50   25   48 1   
    51   26   27 1   
    52   26   49 1   
    53   26   50 1   
    54   27   28 2   
@<TRIPOS>SUBSTRUCTURE
     1 IDN         1 TEMP              0 ****  ****    0 ROOT
