@<TRIPOS>MOLECULE
IDN
   50    53     1     0     0
SMALL
bcc


@<TRIPOS>ATOM
      1 C01        -0.9590    0.1180   -3.8760 ca        1 IDN      0.551200
      2 C02         0.4190    0.0830   -4.2660 ca        1 IDN     -0.243600
      3 C03         1.3890    0.0690   -3.2690 ca        1 IDN     -0.042000
      4 C04         1.0130    0.0980   -1.9160 ca        1 IDN     -0.220100
      5 C05        -0.3720    0.1500   -1.6330 ca        1 IDN      0.452200
      6 N06        -1.3380    0.1570   -2.5580 nb        1 IDN     -0.707000
      7 C07         2.0280    0.0820   -0.8860 ce        1 IDN     -0.031200
      8 C08         1.7970    0.0240    0.4350 cf        1 IDN     -0.229200
      9 C09         2.9380    0.0370    1.3880 c         1 IDN      0.663300
     10 O10         4.0280    0.5690    1.0850 o         1 IDN     -0.617100
     11 N11         2.7870   -0.5800    2.6270 n         1 IDN     -0.474800
     12 C12         3.8160   -0.4650    3.6220 c3        1 IDN      0.078300
     13 C13         1.5400   -1.1820    3.0330 c3        1 IDN      0.171200
     14 C14         0.4700   -0.2520    3.4670 cc        1 IDN     -0.187400
     15 C15         0.6050    0.9670    4.1310 cd        1 IDN     -0.080100
     16 N16        -0.6550    1.5060    4.4150 na        1 IDN     -0.076400
     17 C17        -1.6270    0.6350    3.9020 ca        1 IDN     -0.043200
     18 C18        -0.9480   -0.4940    3.3050 ca        1 IDN     -0.089800
     19 N19        -1.9550    0.1240   -4.8620 n         1 IDN     -0.547400
     20 C20        -0.8980    2.7920    4.9750 c3        1 IDN      0.029600
     21 C21        -3.0840   -1.4330    2.7520 ca        1 IDN     -0.151000
     22 C22        -3.7370   -0.3310    3.3330 ca        1 IDN     -0.113000
     23 C23        -3.0290    0.7100    3.9120 ca        1 IDN     -0.139000
     24 C24        -1.7000   -1.5230    2.7350 ca        1 IDN     -0.092000
     25 C25         0.7850    0.1120   -5.7030 c3        1 IDN     -0.026100
     26 C26        -0.2620   -0.5430   -6.5770 c3        1 IDN     -0.148400
     27 C27        -1.6750   -0.1700   -6.1960 c         1 IDN      0.704500
     28 O28        -2.6050   -0.1410   -7.0190 o         1 IDN     -0.613500
     29 H03         2.4560    0.0390   -3.5440 ha        1 IDN      0.145000
     30 H05        -0.7360    0.1890   -0.5880 h4        1 IDN      0.034100
     31 H07         3.0740    0.1220   -1.2500 ha        1 IDN      0.148000
     32 H08         0.7860   -0.0010    0.8690 ha        1 IDN      0.151000
     33 H121        4.7320    0.0120    3.1830 h1        1 IDN      0.044700
     34 H122        3.4580    0.1580    4.4870 h1        1 IDN      0.044700
     35 H123        4.0840   -1.4870    4.0050 h1        1 IDN      0.044700
     36 H131        1.1450   -1.8070    2.1780 h1        1 IDN      0.058200
     37 H132        1.7630   -1.8890    3.8890 h1        1 IDN      0.058200
     38 H15         1.5140    1.4940    4.4310 h4        1 IDN      0.171000
     39 H19        -2.9050    0.2730   -4.5940 hn        1 IDN      0.346500
     40 H201       -1.0340    3.5600    4.1650 h1        1 IDN      0.051033
     41 H202       -1.8310    2.7600    5.6010 h1        1 IDN      0.051033
     42 H203       -0.0300    3.0940    5.6190 h1        1 IDN      0.051033
     43 H21        -3.6880   -2.2360    2.3040 ha        1 IDN      0.132000
     44 H22        -4.8370   -0.2980    3.3240 ha        1 IDN      0.132000
     45 H23        -3.5460    1.5670    4.3640 ha        1 IDN      0.133000
     46 H24        -1.1960   -2.3890    2.2830 ha        1 IDN      0.132000
     47 H251        1.7700   -0.4030   -5.8640 hc        1 IDN      0.062200
     48 H252        0.9180    1.1850   -6.0170 hc        1 IDN      0.062200
     49 H261       -0.1860   -1.6620   -6.5070 hc        1 IDN      0.084200
     50 H262       -0.1030   -0.2570   -7.6500 hc        1 IDN      0.084200
@<TRIPOS>BOND
     1    1    2 ar  
     2    1    6 ar  
     3    1   19 1   
     4    2    3 ar  
     5    2   25 1   
     6    3    4 ar  
     7    3   29 1   
     8    4    5 ar  
     9    4    7 1   
    10    5    6 ar  
    11    5   30 1   
    12    7    8 2   
    13    7   31 1   
    14    8    9 1   
    15    8   32 1   
    16    9   10 2   
    17    9   11 1   
    18   11   12 1   
    19   11   13 1   
    20   12   33 1   
    21   12   34 1   
    22   12   35 1   
    23   13   14 1   
    24   13   36 1   
    25   13   37 1   
    26   14   15 2   
    27   14   18 1   
    28   15   16 1   
    29   15   38 1   
    30   16   17 1   
    31   16   20 1   
    32   17   18 ar  
    33   17   23 ar  
    34   18   24 ar  
    35   19   27 1   
    36   19   39 1   
    37   20   40 1   
    38   20   41 1   
    39   20   42 1   
    40   21   22 ar  
    41   21   24 ar  
    42   21   43 1   
    43   22   23 ar  
    44   22   44 1   
    45   23   45 1   
    46   24   46 1   
    47   25   26 1   
    48   25   47 1   
    49   25   48 1   
    50   26   27 1   
    51   26   49 1   
    52   26   50 1   
    53   27   28 2   
@<TRIPOS>SUBSTRUCTURE
     1 IDN         1 TEMP              0 ****  ****    0 ROOT
