@<TRIPOS>MOLECULE
IDN
   51    54     1     0     0
SMALL
bcc


@<TRIPOS>ATOM
      1 C01         1.0990    1.0490    0.9850 ca        1 IDN      0.595200
      2 C02         1.5380   -0.2940    0.7060 ca        1 IDN     -0.238600
      3 C03         2.1540   -1.0140    1.7180 ca        1 IDN     -0.018000
      4 C04         2.3450   -0.4320    2.9890 ca        1 IDN     -0.308100
      5 C05         1.9290    0.9080    3.1500 ca        1 IDN      0.455200
      6 N06         1.3180    1.6350    2.2110 nb        1 IDN     -0.723000
      7 C07         3.0050   -1.1860    4.0250 ce        1 IDN      0.063800
      8 C08         2.8770   -1.0810    5.3570 cf        1 IDN     -0.334200
      9 C09         2.0460   -0.1230    6.0930 c         1 IDN      0.569300
     10 O10         2.3040    1.0290    6.4080 o         1 IDN     -0.418100
     11 N11         0.7200   -0.7010    6.5690 n4        1 IDN     -0.604200
     12 C12         0.4060   -0.2720    7.9490 c3        1 IDN      0.087100
     13 C13        -0.3950   -0.3590    5.5870 c3        1 IDN      0.232000
     14 C14        -1.0990    0.8840    5.8770 cc        1 IDN     -0.281400
     15 C15        -0.8060    2.1590    5.3590 cd        1 IDN     -0.017100
     16 N16        -1.7390    3.0780    5.8000 na        1 IDN     -0.037400
     17 C17        -2.6790    2.4080    6.6080 ca        1 IDN     -0.058200
     18 C18        -2.3010    1.0160    6.6750 ca        1 IDN     -0.071800
     19 N19         0.4500    1.7810    0.0000 n         1 IDN     -0.544400
     20 C20        -1.7910    4.4640    5.4480 c3        1 IDN      0.011600
     21 C21        -4.2100    0.6110    8.0660 ca        1 IDN     -0.115000
     22 C22        -4.5650    1.9710    8.0040 ca        1 IDN     -0.108000
     23 C23        -3.8140    2.8850    7.2800 ca        1 IDN     -0.110000
     24 C24        -3.0880    0.1270    7.4090 ca        1 IDN     -0.123000
     25 C25         1.3850   -0.8530   -0.6600 c3        1 IDN     -0.033100
     26 C26         0.1870   -0.2870   -1.3910 c3        1 IDN     -0.150400
     27 C27         0.0220    1.2000   -1.2080 c         1 IDN      0.703500
     28 O28        -0.5090    1.9380   -2.0470 o         1 IDN     -0.563500
     29 H03         2.5000   -2.0430    1.5260 ha        1 IDN      0.154000
     30 H05         2.1260    1.4540    4.0940 h4        1 IDN      0.028100
     31 H07         3.6990   -1.9700    3.6480 ha        1 IDN      0.162000
     32 H08         3.4780   -1.7220    6.0300 ha        1 IDN      0.184000
     33 H121        1.1580   -0.7120    8.6550 hx        1 IDN      0.105033
     34 H122       -0.6310   -0.6130    8.2160 hx        1 IDN      0.105033
     35 H123        0.4420    0.8510    8.0090 hx        1 IDN      0.105033
     36 H131       -1.1210   -1.2240    5.6330 hx        1 IDN      0.094700
     37 H132        0.0880   -0.3270    4.5650 hx        1 IDN      0.094700
     38 H15         0.0150    2.4590    4.6970 h4        1 IDN      0.186000
     39 H19         0.2640    2.7530    0.1470 hn        1 IDN      0.354500
     40 H201       -2.6340    4.6460    4.7260 h1        1 IDN      0.069700
     41 H202       -1.9650    5.0790    6.3720 h1        1 IDN      0.069700
     42 H203       -0.8240    4.7720    4.9710 h1        1 IDN      0.069700
     43 H21        -4.8440   -0.0790    8.6460 ha        1 IDN      0.147000
     44 H22        -5.4640    2.3140    8.5410 ha        1 IDN      0.152000
     45 H23        -4.0990    3.9450    7.2280 ha        1 IDN      0.151000
     46 H24        -2.8330   -0.9410    7.4520 ha        1 IDN      0.124000
     47 H251        2.3220   -0.6240   -1.2430 hc        1 IDN      0.074700
     48 H252        1.2910   -1.9710   -0.6170 hc        1 IDN      0.074700
     49 H261        0.2770   -0.4950   -2.4920 hc        1 IDN      0.096700
     50 H262       -0.7610   -0.7730   -1.0320 hc        1 IDN      0.096700
     51 H111        0.8210   -1.7230    6.5610 hn        1 IDN      0.442800
@<TRIPOS>BOND
     1    1    2 ar  
     2    1    6 ar  
     3    1   19 1   
     4    2    3 ar  
     5    2   25 1   
     6    3    4 ar  
     7    3   29 1   
     8    4    5 ar  
     9    4    7 1   
    10    5    6 ar  
    11    5   30 1   
    12    7    8 2   
    13    7   31 1   
    14    8    9 1   
    15    8   32 1   
    16    9   10 2   
    17    9   11 1   
    18   11   12 1   
    19   11   13 1   
    20   11   51 1   
    21   12   33 1   
    22   12   34 1   
    23   12   35 1   
    24   13   14 1   
    25   13   36 1   
    26   13   37 1   
    27   14   15 2   
    28   14   18 1   
    29   15   16 1   
    30   15   38 1   
    31   16   17 1   
    32   16   20 1   
    33   17   18 ar  
    34   17   23 ar  
    35   18   24 ar  
    36   19   27 1   
    37   19   39 1   
    38   20   40 1   
    39   20   41 1   
    40   20   42 1   
    41   21   22 ar  
    42   21   24 ar  
    43   21   43 1   
    44   22   23 ar  
    45   22   44 1   
    46   23   45 1   
    47   24   46 1   
    48   25   26 1   
    49   25   47 1   
    50   25   48 1   
    51   26   27 1   
    52   26   49 1   
    53   26   50 1   
    54   27   28 2   
@<TRIPOS>SUBSTRUCTURE
     1 IDN         1 TEMP              0 ****  ****    0 ROOT
