@<TRIPOS>MOLECULE
IDN
   50    44     1     0     0
SMALL
bcc


@<TRIPOS>ATOM
      1 C01         2.6070   -3.7340   -2.5740 c1        1 IDN      0.139000
      2 C02         2.8810   -2.5000   -3.2790 c1        1 IDN     -0.168000
      3 C03         3.0160   -1.3470   -2.5860 c1        1 IDN     -0.041000
      4 C04         2.8900   -1.3500   -1.1860 c1        1 IDN     -0.150000
      5 C05         2.6240   -2.5550   -0.5060 c1        1 IDN     -0.020000
      6 N06         2.4860   -3.7320   -1.2120 n1        1 IDN     -0.183000
      7 C07         3.2090   -0.0680   -0.3850 c2        1 IDN     -0.059000
      8 C08         2.1870    0.5850    0.3560 c1        1 IDN     -0.198000
      9 C09         0.7470    0.0150    0.3650 c1        1 IDN      0.337000
     10 O10         0.2700   -0.4380   -0.6480 o         1 IDN     -0.387000
     11 N11        -0.0590    0.1340    1.5430 n3        1 IDN     -0.313000
     12 C12         0.5460    0.0620    2.8200 c3        1 IDN     -0.080000
     13 C13        -1.4990    0.2110    1.4300 c3        1 IDN      0.045000
     14 C14        -1.9790    1.5870    1.9000 c2        1 IDN     -0.201000
     15 C15        -1.2770    2.7730    1.9060 c1        1 IDN     -0.041000
     16 N16        -2.1320    3.7750    2.3270 n2        1 IDN     -0.169000
     17 C17        -3.3640    3.2110    2.5820 c1        1 IDN     -0.004000
     18 C18        -3.2780    1.8580    2.3200 c1        1 IDN     -0.066000
     19 N19         2.4080   -4.9630   -3.3760 n         1 IDN     -0.315000
     20 C20        -1.6370    5.1140    2.4260 c2        1 IDN     -0.068000
     21 C21        -5.6480    1.6360    2.7390 c1        1 IDN     -0.135500
     22 C22        -5.7270    2.9930    3.0000 c1        1 IDN     -0.135500
     23 C23        -4.5870    3.7840    2.9220 c1        1 IDN     -0.138000
     24 C24        -4.4190    1.0620    2.3970 c1        1 IDN     -0.093000
     25 C25         3.1330   -2.5820   -4.8420 c3        1 IDN     -0.112000
     26 C26         3.2370   -3.8700   -5.4020 c3        1 IDN     -0.177000
     27 C27         2.3440   -4.8390   -4.7450 c2        1 IDN      0.312000
     28 O28         1.7280   -5.6410   -5.4030 o         1 IDN     -0.341000
     29 H03         3.1970   -0.5310   -3.0470 ha        1 IDN      0.175000
     30 H05         2.5370   -2.5570    0.4570 ha        1 IDN      0.161000
     31 H07         4.0720    0.2770   -0.3880 ha        1 IDN      0.131000
     32 H08         2.3960    1.4070    0.8660 ha        1 IDN      0.148000
     33 H121        0.8590   -0.8680    2.9860 h1        1 IDN      0.082000
     34 H122        1.3000    0.6660    2.8540 h1        1 IDN      0.082000
     35 H123       -0.0950    0.3110    3.4940 h1        1 IDN      0.082000
     36 H131       -1.7610    0.0760    0.4930 h1        1 IDN      0.105000
     37 H132       -1.9200   -0.5060    2.0050 h1        1 IDN      0.105000
     38 H15        -0.3680    2.8660    1.7510 DU        1 IDN      0.187000
     39 H19         2.1800   -5.7780   -2.9560 hn        1 IDN      0.259000
     40 H201       -2.2510    5.6610    3.0380 ha        1 IDN      0.089333
     41 H202       -0.7510    5.1030    2.7900 ha        1 IDN      0.089333
     42 H203       -1.6160    5.5280    1.5150 ha        1 IDN      0.089333
     43 H21        -6.4790    1.0590    2.7970 ha        1 IDN      0.129000
     44 H22        -6.5550    3.3830    3.2300 ha        1 IDN      0.129000
     45 H23        -4.6440    4.7840    3.1150 ha        1 IDN      0.132000
     46 H24        -4.3620    0.1370    2.2190 ha        1 IDN      0.130000
     47 H251        3.9580   -2.1040   -5.0380 hc        1 IDN      0.104500
     48 H252        2.3940   -2.1140   -5.2950 hc        1 IDN      0.104500
     49 H261        4.1940   -4.1100   -5.4570 hc        1 IDN      0.123000
     50 H262        3.0060   -3.8710   -6.3230 hc        1 IDN      0.123000
@<TRIPOS>BOND
     1    1    6 1   
     2    1   19 1   
     3    2    3 1   
     4    2   25 1   
     5    3   29 1   
     6    4    5 1   
     7    4    7 1   
     8    5   30 1   
     9    7    8 1   
    10    7   31 1   
    11    8   32 1   
    12    9   10 1   
    13    9   11 1   
    14   11   12 1   
    15   11   13 1   
    16   12   33 1   
    17   12   34 1   
    18   12   35 1   
    19   13   14 1   
    20   13   36 1   
    21   13   37 1   
    22   14   15 1   
    23   14   18 1   
    24   15   16 1   
    25   16   17 1   
    26   17   23 1   
    27   18   24 1   
    28   19   27 1   
    29   19   39 1   
    30   20   40 1   
    31   20   41 1   
    32   20   42 1   
    33   21   22 1   
    34   21   43 1   
    35   22   44 1   
    36   23   45 1   
    37   24   46 1   
    38   25   26 1   
    39   25   47 1   
    40   25   48 1   
    41   26   27 1   
    42   26   49 1   
    43   26   50 1   
    44   27   28 1   
@<TRIPOS>SUBSTRUCTURE
     1 IDN         1 TEMP              0 ****  ****    0 ROOT
