@<TRIPOS>MOLECULE
IDQ
   53    56     1     0     0
SMALL
bcc


@<TRIPOS>ATOM
      1 N4          0.1430   -0.1230   -0.2980 nz        1 IDQ     -0.845600
      2 C21         1.5770    0.2830   -0.1010 c3        1 IDQ      0.176100
      3 C18         1.9720    0.1480    1.3260 ca        1 IDQ     -0.201300
      4 C17         1.5950    1.1340    2.2470 ca        1 IDQ     -0.096000
      5 C16         1.9800    1.0260    3.5800 ca        1 IDQ     -0.110500
      6 C20         2.7470   -0.9380    1.7460 ca        1 IDQ     -0.096000
      7 C19         3.1330   -1.0420    3.0800 ca        1 IDQ     -0.110500
      8 C15         2.7480   -0.0650    4.0070 ca        1 IDQ     -0.054300
      9 C14         3.1990   -0.1940    5.4400 c3        1 IDQ      0.074600
     10 N2          2.2010    0.0850    6.4240 na        1 IDQ     -0.154300
     11 C9          1.3470   -0.9000    7.0110 cc        1 IDQ      0.387800
     12 C10         1.4850   -2.3640    6.7440 c3        1 IDQ     -0.090700
     13 C11         2.5420   -2.9860    7.6360 c3        1 IDQ     -0.084400
     14 C12         2.6630   -4.4720    7.3720 c3        1 IDQ     -0.079400
     15 C13         3.7160   -5.1000    8.2480 c3        1 IDQ     -0.096100
     16 N1          0.4470   -0.3470    7.8490 nd        1 IDQ     -0.532100
     17 C7          0.6940    1.0280    7.8120 ca        1 IDQ     -0.095900
     18 C6          0.0350    2.1090    8.5240 ca        1 IDQ      0.737200
     19 N3         -1.0750    1.8230    9.2980 nv        1 IDQ     -0.937500
     20 N           0.4680    3.3760    8.3790 nb        1 IDQ     -0.763000
     21 C           1.5130    3.6510    7.5260 ca        1 IDQ      0.465600
     22 C8          1.7800    1.3250    6.9240 ca        1 IDQ     -0.025200
     23 C1          2.2170    2.6710    6.7470 ca        1 IDQ     -0.178300
     24 C3          3.2660    3.0830    5.8970 ca        1 IDQ     -0.123000
     25 C5          3.6370    4.4060    5.8160 ca        1 IDQ     -0.144000
     26 C4          2.9630    5.3770    6.5850 ca        1 IDQ     -0.110000
     27 C2          1.9290    5.0190    7.4140 ca        1 IDQ     -0.177300
     28 H1          0.0220   -1.1090   -0.0450 hn        1 IDQ      0.458467
     29 H2         -0.4610    0.4410    0.3110 hn        1 IDQ      0.458467
     30 H4          2.2110   -0.3720   -0.7670 hx        1 IDQ      0.113200
     31 H5          1.6710    1.3550   -0.4440 hx        1 IDQ      0.113200
     32 H6          1.0100    2.0080    1.9220 ha        1 IDQ      0.142000
     33 H7          1.6830    1.8100    4.3020 ha        1 IDQ      0.171500
     34 H8          3.0670   -1.7080    1.0260 ha        1 IDQ      0.142000
     35 H9          3.7460   -1.9000    3.4040 ha        1 IDQ      0.171500
     36 H10         4.0820    0.4930    5.6000 h1        1 IDQ      0.090200
     37 H11         3.5680   -1.2500    5.6140 h1        1 IDQ      0.090200
     38 H12         1.7400   -2.5340    5.6630 hc        1 IDQ      0.062200
     39 H13         0.4950   -2.8610    6.9350 hc        1 IDQ      0.062200
     40 H14         3.5330   -2.4900    7.4640 hc        1 IDQ      0.054200
     41 H15         2.2690   -2.8160    8.7120 hc        1 IDQ      0.054200
     42 H16         1.6740   -4.9670    7.5580 hc        1 IDQ      0.037700
     43 H17         2.9200   -4.6430    6.2930 hc        1 IDQ      0.037700
     44 H18         4.7150   -4.6380    8.0610 hc        1 IDQ      0.040367
     45 H19         3.4630   -4.9620    9.3280 hc        1 IDQ      0.040367
     46 H20         3.7890   -6.1950    8.0410 hc        1 IDQ      0.040367
     47 H21        -1.4140    2.5270    9.9120 hn        1 IDQ      0.435800
     48 H22        -1.1880    0.8810    9.5880 hn        1 IDQ      0.435800
     49 H23         3.7990    2.3420    5.2850 ha        1 IDQ      0.114000
     50 H24         4.4630    4.7160    5.1590 ha        1 IDQ      0.135000
     51 H25         3.2770    6.4300    6.5140 ha        1 IDQ      0.143000
     52 H26         1.4030    5.7820    8.0120 ha        1 IDQ      0.159000
     53 H43        -0.1360    0.0130   -1.2730 hn        1 IDQ      0.458467
@<TRIPOS>BOND
     1    1    2 1   
     2    1   28 1   
     3    1   29 1   
     4    1   53 1   
     5    2    3 1   
     6    2   30 1   
     7    2   31 1   
     8    3    4 ar  
     9    3    6 ar  
    10    4    5 ar  
    11    4   32 1   
    12    5    8 ar  
    13    5   33 1   
    14    6    7 ar  
    15    6   34 1   
    16    7    8 ar  
    17    7   35 1   
    18    8    9 1   
    19    9   10 1   
    20    9   36 1   
    21    9   37 1   
    22   10   11 1   
    23   10   22 1   
    24   11   12 1   
    25   11   16 2   
    26   12   13 1   
    27   12   38 1   
    28   12   39 1   
    29   13   14 1   
    30   13   40 1   
    31   13   41 1   
    32   14   15 1   
    33   14   42 1   
    34   14   43 1   
    35   15   44 1   
    36   15   45 1   
    37   15   46 1   
    38   16   17 1   
    39   17   18 ar  
    40   17   22 ar  
    41   18   19 1   
    42   18   20 ar  
    43   19   47 1   
    44   19   48 1   
    45   20   21 ar  
    46   21   23 ar  
    47   21   27 ar  
    48   22   23 ar  
    49   23   24 ar  
    50   24   25 ar  
    51   24   49 1   
    52   25   26 ar  
    53   25   50 1   
    54   26   27 ar  
    55   26   51 1   
    56   27   52 1   
@<TRIPOS>SUBSTRUCTURE
     1 IDQ         1 TEMP              0 ****  ****    0 ROOT
