@<TRIPOS>MOLECULE
IDQ
   53    56     1     0     0
SMALL
bcc


@<TRIPOS>ATOM
      1 N4          0.1530   -0.1600   -0.3010 n4        1 IDQ     -0.845600
      2 C21         1.5850    0.2530   -0.1040 c3        1 IDQ      0.176100
      3 C18         1.9780    0.1260    1.3250 ca        1 IDQ     -0.201300
      4 C17         1.5960    1.1150    2.2410 ca        1 IDQ     -0.096000
      5 C16         1.9790    1.0150    3.5750 ca        1 IDQ     -0.110500
      6 C20         2.7570   -0.9550    1.7510 ca        1 IDQ     -0.096000
      7 C19         3.1410   -1.0510    3.0860 ca        1 IDQ     -0.110500
      8 C15         2.7510   -0.0710    4.0070 ca        1 IDQ     -0.054300
      9 C14         3.2010   -0.1910    5.4420 c3        1 IDQ      0.074600
     10 N2          2.2020    0.0910    6.4230 na        1 IDQ     -0.154300
     11 C9          1.3500   -0.8930    7.0170 cc        1 IDQ      0.387800
     12 C10         1.4920   -2.3570    6.7580 c3        1 IDQ     -0.090700
     13 C11         2.5500   -2.9710    7.6550 c3        1 IDQ     -0.084400
     14 C12         2.6750   -4.4590    7.4000 c3        1 IDQ     -0.079400
     15 C13         3.7290   -5.0790    8.2810 c3        1 IDQ     -0.096100
     16 N1          0.4490   -0.3370    7.8510 nd        1 IDQ     -0.532100
     17 C7          0.6920    1.0400    7.8060 ca        1 IDQ     -0.095900
     18 C6          0.0310    2.1230    8.5110 ca        1 IDQ      0.737200
     19 N3         -1.0780    1.8390    9.2870 nh        1 IDQ     -0.937500
     20 N           0.4610    3.3890    8.3590 nb        1 IDQ     -0.763000
     21 C           1.5050    3.6620    7.5040 ca        1 IDQ      0.465600
     22 C8          1.7780    1.3330    6.9160 ca        1 IDQ     -0.025200
     23 C1          2.2120    2.6790    6.7310 ca        1 IDQ     -0.178300
     24 C3          3.2600    3.0890    5.8780 ca        1 IDQ     -0.123000
     25 C5          3.6280    4.4120    5.7880 ca        1 IDQ     -0.144000
     26 C4          2.9510    5.3860    6.5510 ca        1 IDQ     -0.110000
     27 C2          1.9170    5.0300    7.3830 ca        1 IDQ     -0.177300
     28 H1          0.0350   -1.1460   -0.0440 hn        1 IDQ      0.458467
     29 H2         -0.4540    0.4040    0.3040 hn        1 IDQ      0.458467
     30 H4          1.6750    1.3240   -0.4510 hx        1 IDQ      0.113200
     31 H5          2.2220   -0.4030   -0.7650 hx        1 IDQ      0.113200
     32 H6          1.0080    1.9850    1.9100 ha        1 IDQ      0.142000
     33 H7          1.6780    1.8020    4.2920 ha        1 IDQ      0.171500
     34 H8          3.0800   -1.7270    1.0350 ha        1 IDQ      0.142000
     35 H9          3.7570   -1.9050    3.4140 ha        1 IDQ      0.171500
     36 H10         4.0830    0.4990    5.5990 h1        1 IDQ      0.090200
     37 H11         3.5720   -1.2460    5.6220 h1        1 IDQ      0.090200
     38 H12         1.7470   -2.5340    5.6790 hc        1 IDQ      0.062200
     39 H13         0.5030   -2.8560    6.9530 hc        1 IDQ      0.062200
     40 H14         2.2770   -2.7950    8.7290 hc        1 IDQ      0.054200
     41 H15         3.5400   -2.4740    7.4790 hc        1 IDQ      0.054200
     42 H16         1.6860   -4.9550    7.5890 hc        1 IDQ      0.037700
     43 H17         2.9320   -4.6360    6.3220 hc        1 IDQ      0.037700
     44 H18         3.8040   -6.1750    8.0800 hc        1 IDQ      0.040367
     45 H19         3.4760   -4.9340    9.3590 hc        1 IDQ      0.040367
     46 H20         4.7270   -4.6160    8.0900 hc        1 IDQ      0.040367
     47 H21        -1.1890    0.8980    9.5830 hn        1 IDQ      0.435800
     48 H22        -1.4190    2.5460    9.8960 hn        1 IDQ      0.435800
     49 H23         3.7940    2.3450    5.2710 ha        1 IDQ      0.114000
     50 H24         4.4530    4.7200    5.1300 ha        1 IDQ      0.135000
     51 H25         3.2630    6.4390    6.4750 ha        1 IDQ      0.143000
     52 H26         1.3910    5.7960    7.9760 ha        1 IDQ      0.159000
     53 H43        -0.1250   -0.0300   -1.2770 hn        1 IDQ      0.458467
@<TRIPOS>BOND
     1    1    2 1   
     2    1   28 1   
     3    1   29 1   
     4    1   53 1   
     5    2    3 1   
     6    2   30 1   
     7    2   31 1   
     8    3    4 ar  
     9    3    6 ar  
    10    4    5 ar  
    11    4   32 1   
    12    5    8 ar  
    13    5   33 1   
    14    6    7 ar  
    15    6   34 1   
    16    7    8 ar  
    17    7   35 1   
    18    8    9 1   
    19    9   10 1   
    20    9   36 1   
    21    9   37 1   
    22   10   11 1   
    23   10   22 1   
    24   11   12 1   
    25   11   16 2   
    26   12   13 1   
    27   12   38 1   
    28   12   39 1   
    29   13   14 1   
    30   13   40 1   
    31   13   41 1   
    32   14   15 1   
    33   14   42 1   
    34   14   43 1   
    35   15   44 1   
    36   15   45 1   
    37   15   46 1   
    38   16   17 1   
    39   17   18 ar  
    40   17   22 ar  
    41   18   19 1   
    42   18   20 ar  
    43   19   47 1   
    44   19   48 1   
    45   20   21 ar  
    46   21   23 ar  
    47   21   27 ar  
    48   22   23 ar  
    49   23   24 ar  
    50   24   25 ar  
    51   24   49 1   
    52   25   26 ar  
    53   25   50 1   
    54   26   27 ar  
    55   26   51 1   
    56   27   52 1   
@<TRIPOS>SUBSTRUCTURE
     1 IDQ         1 TEMP              0 ****  ****    0 ROOT
