@<TRIPOS>MOLECULE
IDR
   22    22     1     0     0
SMALL
bcc


@<TRIPOS>ATOM
      1 C1          1.1010   -0.7890    1.3210 c3        1 IDR      0.289900
      2 C2         -0.1540   -0.3620    2.1080 c3        1 IDR      0.103100
      3 C3         -0.8740    0.8220    1.4430 c3        1 IDR      0.105100
      4 C4         -0.9920    0.6110   -0.0820 c3        1 IDR      0.111100
      5 C5          0.3780    0.2880   -0.6800 c3        1 IDR     -0.036900
      6 C6          0.3420    0.0230   -2.2210 c         1 IDR      0.938600
      7 O1          2.1170    0.1700    1.5540 oh        1 IDR     -0.658800
      8 O2         -1.0150   -1.4720    2.2500 oh        1 IDR     -0.610800
      9 O3         -0.2220    2.0390    1.7440 oh        1 IDR     -0.606800
     10 O4         -1.9490   -0.4200   -0.2530 oh        1 IDR     -0.653800
     11 O5          0.9380   -0.8790   -0.0730 os        1 IDR     -0.414600
     12 O6A        -0.6360   -0.6190   -2.6920 o         1 IDR     -0.816300
     13 O6B         1.2880    0.5110   -2.8880 o         1 IDR     -0.816300
     14 H1          1.4400   -1.8160    1.6430 h2        1 IDR      0.066700
     15 H2          0.1490   -0.0840    3.1550 h1        1 IDR      0.078700
     16 H3         -1.9040    0.9260    1.8860 h1        1 IDR      0.082700
     17 H4         -1.3810    1.5520   -0.5600 h1        1 IDR      0.051700
     18 H5          1.0650    1.1590   -0.4910 h1        1 IDR      0.036700
     19 HO1         2.7380    0.1110    0.8150 ho        1 IDR      0.427000
     20 HO2        -1.3730   -1.6670    1.3690 ho        1 IDR      0.436000
     21 HO3         0.7000    1.9440    1.4640 ho        1 IDR      0.416000
     22 HO4        -1.8010   -0.8070   -1.1360 ho        1 IDR      0.468000
@<TRIPOS>BOND
     1    1    2 1   
     2    1    7 1   
     3    1   11 1   
     4    1   14 1   
     5    2    3 1   
     6    2    8 1   
     7    2   15 1   
     8    3    4 1   
     9    3    9 1   
    10    3   16 1   
    11    4    5 1   
    12    4   10 1   
    13    4   17 1   
    14    5    6 1   
    15    5   11 1   
    16    5   18 1   
    17    6   12 1   
    18    6   13 1   
    19    7   19 1   
    20    8   20 1   
    21    9   21 1   
    22   10   22 1   
@<TRIPOS>SUBSTRUCTURE
     1 IDR         1 TEMP              0 ****  ****    0 ROOT
