@<TRIPOS>MOLECULE
IDR
   22    22     1     0     0
SMALL
bcc


@<TRIPOS>ATOM
      1 C1         -0.9760   -0.2340   -1.2760 c3        1 IDR      0.297900
      2 C2          0.5130   -0.2340   -1.2760 c3        1 IDR      0.123100
      3 C3          1.0860   -0.2340    0.0710 c3        1 IDR      0.113100
      4 C4          0.5260    0.8500    0.9350 c3        1 IDR      0.107100
      5 C5         -1.0250    0.8490    0.9790 c3        1 IDR     -0.005900
      6 C6         -1.5450   -0.2840    1.7970 c         1 IDR      0.898600
      7 O1         -1.4250   -0.0620   -2.5860 oh        1 IDR     -0.637800
      8 O2          0.9830   -1.4300   -1.9870 oh        1 IDR     -0.591800
      9 O3          2.5340   -0.0510   -0.0330 oh        1 IDR     -0.607800
     10 O4          1.0190    0.6810    2.2550 oh        1 IDR     -0.642800
     11 O5         -1.5570    0.8420   -0.4250 os        1 IDR     -0.447600
     12 O6A        -0.8530   -0.7500    2.7400 o         1 IDR     -0.825300
     13 O6B        -2.6760   -0.7760    1.5450 o         1 IDR     -0.825300
     14 H1         -1.2900   -1.0980   -0.9470 h2        1 IDR      0.107700
     15 H2          0.8270    0.5590   -1.7520 h1        1 IDR      0.048700
     16 H3          0.9050   -1.0960    0.4900 h1        1 IDR      0.073700
     17 H4          0.8300    1.7130    0.5940 h1        1 IDR      0.052700
     18 H5         -1.3700    1.6150    1.4760 h1        1 IDR      0.072700
     19 HO1        -2.2700   -0.3250   -2.6460 ho        1 IDR      0.424000
     20 HO2         1.3910   -1.1870   -2.7370 ho        1 IDR      0.400000
     21 HO3         2.9460   -0.7760    0.2690 ho        1 IDR      0.408000
     22 HO4         1.4270    1.4250    2.5150 ho        1 IDR      0.458000
@<TRIPOS>BOND
     1    1    2 1   
     2    1    7 1   
     3    1   11 1   
     4    1   14 1   
     5    2    3 1   
     6    2    8 1   
     7    2   15 1   
     8    3    4 1   
     9    3    9 1   
    10    3   16 1   
    11    4    5 1   
    12    4   10 1   
    13    4   17 1   
    14    5    6 1   
    15    5   11 1   
    16    5   18 1   
    17    6   12 1   
    18    6   13 1   
    19    7   19 1   
    20    8   20 1   
    21    9   21 1   
    22   10   22 1   
@<TRIPOS>SUBSTRUCTURE
     1 IDR         1 TEMP              0 ****  ****    0 ROOT
