@<TRIPOS>MOLECULE
IDS
   25    25     1     0     0
SMALL
bcc


@<TRIPOS>ATOM
      1 C1          0.7530   -1.0810   -0.1730 c3        1 IDS      0.281900
      2 C2          0.6960    0.2380    0.6330 c3        1 IDS      0.170100
      3 C3          0.6680    1.4840   -0.2770 c3        1 IDS      0.094100
      4 C4         -0.1960    1.2650   -1.5380 c3        1 IDS      0.116100
      5 C5          0.2480   -0.0190   -2.2420 c3        1 IDS     -0.017900
      6 C6         -0.4370   -0.2510   -3.6160 c         1 IDS      0.935600
      7 O1          2.1110   -1.3000   -0.5380 oh        1 IDS     -0.667800
      8 O2         -0.4390    0.2300    1.4370 os        1 IDS     -0.597500
      9 O3          1.9910    1.8590   -0.6290 oh        1 IDS     -0.621800
     10 O4         -1.5590    1.2540   -1.1660 oh        1 IDS     -0.599800
     11 O5          0.0290   -1.1370   -1.3810 os        1 IDS     -0.408600
     12 O61        -1.0470   -1.3240   -3.8560 o         1 IDS     -0.840300
     13 O62        -0.2670    0.6750   -4.4640 o         1 IDS     -0.840300
     14 S          -0.3660   -0.2520    3.0990 s6        1 IDS      1.695300
     15 O1S        -1.6050    0.1700    3.5790 o         1 IDS     -0.756867
     16 O2S        -0.1840   -1.6330    3.0100 o         1 IDS     -0.756867
     17 O3S         0.7390    0.4540    3.5810 o         1 IDS     -0.756867
     18 H1          0.3570   -1.9340    0.4510 h2        1 IDS      0.092700
     19 H2          1.6280    0.2900    1.2730 h1        1 IDS      0.056700
     20 H3          0.2640    2.3560    0.3060 h1        1 IDS      0.079700
     21 H4         -0.0900    2.1280   -2.2500 h1        1 IDS      0.086700
     22 H5          1.3540    0.0610   -2.4530 h1        1 IDS      0.017700
     23 HO1         2.1030   -1.9470   -1.2540 ho        1 IDS      0.408000
     24 HO3         2.4170    1.0680   -0.9860 ho        1 IDS      0.406000
     25 HO4        -1.6810    0.4780   -0.5980 ho        1 IDS      0.425000
@<TRIPOS>BOND
     1    1    2 1   
     2    1    7 1   
     3    1   11 1   
     4    1   18 1   
     5    2    3 1   
     6    2    8 1   
     7    2   19 1   
     8    3    4 1   
     9    3    9 1   
    10    3   20 1   
    11    4    5 1   
    12    4   10 1   
    13    4   21 1   
    14    5    6 1   
    15    5   11 1   
    16    5   22 1   
    17    6   12 1   
    18    6   13 1   
    19    7   23 1   
    20    8   14 1   
    21    9   24 1   
    22   10   25 1   
    23   14   15 1   
    24   14   16 1   
    25   14   17 1   
@<TRIPOS>SUBSTRUCTURE
     1 IDS         1 TEMP              0 ****  ****    0 ROOT
