@<TRIPOS>MOLECULE
IDS
   25    24     1     0     0
SMALL
bcc


@<TRIPOS>ATOM
      1 C1         -1.2060   -0.0910   -0.8300 c3        1 IDS      0.324900
      2 C2          0.2830   -0.0860   -0.8070 c3        1 IDS      0.175100
      3 C3          0.8350   -0.1130    0.5490 c3        1 IDS      0.092100
      4 C4          0.2580    0.9500    1.4270 c3        1 IDS      0.146100
      5 C5         -1.2940    0.9440    1.4470 c3        1 IDS      0.004100
      6 C6         -1.8220   -0.2090    2.2320 c         1 IDS      0.896600
      7 O1         -1.6350    0.1080   -2.1420 oh        1 IDS     -0.599800
      8 O2          0.7680   -1.2650   -1.5350 os        1 IDS     -0.603600
      9 O3          2.2830    0.0760    0.4710 oh        1 IDS     -0.626800
     10 O4          0.7310    0.7550    2.7500 oh        1 IDS     -0.627800
     11 O5         -1.8030    0.9650    0.0350 os        1 IDS     -0.466600
     12 O61        -1.2620   -0.5470    3.3080 o         1 IDS     -0.844800
     13 O62        -2.8300   -0.8420    1.8210 o         1 IDS     -0.844800
     14 S           1.5020   -0.9900   -2.8220 s4        1 IDS      1.878600
     15 O1S         1.9990   -2.2680   -3.4540 o         1 IDS     -0.684400
     16 O2S         0.5640   -0.4810   -3.8900 o         1 IDS     -0.684400
     17 O3S         2.6350   -0.0220   -2.5810 os        1 IDS     -1.095000
     18 H1         -1.5230   -0.9640   -0.5240 h2        1 IDS      0.083700
     19 H2          0.6020    0.7170   -1.2600 h1        1 IDS      0.056700
     20 H3          0.6510   -0.9860    0.9470 h1        1 IDS      0.053700
     21 H4          0.5640    1.8220    1.1080 h1        1 IDS      0.049700
     22 H5         -1.6490    1.6990    1.9550 h1        1 IDS      0.049700
     23 HO1        -2.4880   -0.1340   -2.2150 ho        1 IDS      0.394000
     24 HO3         2.6890   -0.5260    0.9840 ho        1 IDS      0.433000
     25 HO4         1.1490    1.4890    3.0270 ho        1 IDS      0.440000
@<TRIPOS>BOND
     1    1    2 1   
     2    1    7 1   
     3    1   11 1   
     4    1   18 1   
     5    2    3 1   
     6    2    8 1   
     7    2   19 1   
     8    3    4 1   
     9    3    9 1   
    10    3   20 1   
    11    4    5 1   
    12    4   10 1   
    13    4   21 1   
    14    5    6 1   
    15    5   11 1   
    16    5   22 1   
    17    6   12 1   
    18    6   13 1   
    19    7   23 1   
    20    8   14 1   
    21    9   24 1   
    22   10   25 1   
    23   14   15 1   
    24   14   16 1   
@<TRIPOS>SUBSTRUCTURE
     1 IDS         1 TEMP              0 ****  ****    0 ROOT
