@<TRIPOS>MOLECULE
IDT
   20    20     1     0     0
SMALL
bcc


@<TRIPOS>ATOM
      1 C1          1.2720    1.1960   -0.5100 c3        1 IDT      0.299900
      2 C2          1.9120   -0.0420    0.1470 c3        1 IDT      0.093100
      3 C3          1.0960   -1.2970   -0.1980 c3        1 IDT      0.210300
      4 C4         -0.3730   -0.9760   -0.1680 c2        1 IDT     -0.069100
      5 C5         -0.8940    0.2730   -0.1570 ce        1 IDT     -0.048100
      6 C6         -2.3790    0.6330   -0.1000 c         1 IDT      0.936800
      7 O1          1.9000    2.3660   -0.0350 oh        1 IDT     -0.634800
      8 O2          3.2220   -0.2220   -0.3700 oh        1 IDT     -0.595800
      9 O3          1.4470   -2.2960    0.7530 oh        1 IDT     -0.609800
     10 O4         -1.1170   -2.1360   -0.1680 oh        1 IDT     -0.560100
     11 O5         -0.0840    1.3970   -0.1530 os        1 IDT     -0.326900
     12 O6A        -2.7140    1.8390   -0.0710 o         1 IDT     -0.808300
     13 O6B        -3.1850   -0.3460   -0.0830 o         1 IDT     -0.808300
     14 H1          1.3950    1.1710   -1.6280 h2        1 IDT      0.068700
     15 H2          1.9600    0.0900    1.2620 h1        1 IDT      0.061700
     16 H3          1.3880   -1.6760   -1.2190 h1        1 IDT      0.054700
     17 HO1         1.2960    2.8040    0.5820 ho        1 IDT      0.435000
     18 HO2         3.6810    0.6140   -0.2200 ho        1 IDT      0.403000
     19 HO3         0.6770   -2.8690    0.8610 ho        1 IDT      0.422000
     20 HO4        -2.0630   -1.8950   -0.0980 ho        1 IDT      0.478000
@<TRIPOS>BOND
     1    1    2 1   
     2    1    7 1   
     3    1   11 1   
     4    1   14 1   
     5    2    3 1   
     6    2    8 1   
     7    2   15 1   
     8    3    4 1   
     9    3    9 1   
    10    3   16 1   
    11    4    5 2   
    12    4   10 1   
    13    5    6 1   
    14    5   11 1   
    15    6   12 1   
    16    6   13 1   
    17    7   17 1   
    18    8   18 1   
    19    9   19 1   
    20   10   20 1   
@<TRIPOS>SUBSTRUCTURE
     1 IDT         1 TEMP              0 ****  ****    0 ROOT
