@<TRIPOS>MOLECULE
IDT
   20    19     1     0     0
SMALL
bcc


@<TRIPOS>ATOM
      1 C1         -0.8600   -0.6820   -1.1150 c3        1 IDT      0.116000
      2 C2          0.4030   -0.6820   -1.1150 c3        1 IDT     -0.036000
      3 C3          1.1030   -0.6820    0.3740 c3        1 IDT      0.096000
      4 C4          0.5440    0.3800    1.2440 c2        1 IDT     -0.118000
      5 C5         -1.1070    0.7610    0.9570 c1        1 IDT     -0.074000
      6 C6         -1.8120    1.7860    1.8250 c1        1 IDT      0.388000
      7 O1         -1.3210   -0.6310   -2.5180 oh        1 IDT     -0.366000
      8 O2          0.8760   -1.9190   -1.8610 oh        1 IDT     -0.319000
      9 O3          2.5340   -0.6000    0.2880 oh        1 IDT     -0.326000
     10 O4          1.3990    1.3410    1.8210 oh        1 IDT     -0.305000
     11 O5         -1.5400    0.5340   -0.3190 os        1 IDT     -0.209000
     12 O6A        -2.4480    1.4140    2.8470 o         1 IDT     -0.542000
     13 O6B        -1.8040    3.0010    1.4960 o         1 IDT     -0.542000
     14 H1         -1.1670   -1.5200   -0.7190 h2        1 IDT      0.107000
     15 H2          0.7110    0.1070   -1.6000 h1        1 IDT      0.092000
     16 H3          0.9950   -1.5550    0.7970 h1        1 IDT      0.113000
     17 HO1        -2.2030   -0.7330   -2.5430 ho        1 IDT      0.236000
     18 HO2         1.4350   -1.6790   -2.5080 ho        1 IDT      0.201000
     19 HO3         2.7660    0.1910   -0.0390 ho        1 IDT      0.215000
     20 HO4         1.4960    1.1690    2.6870 ho        1 IDT      0.274000
@<TRIPOS>BOND
     1    1    2 1   
     2    1    7 1   
     3    1   11 1   
     4    1   14 1   
     5    2    3 1   
     6    2    8 1   
     7    2   15 1   
     8    3    4 1   
     9    3    9 1   
    10    3   16 1   
    11    4    5 1   
    12    4   10 1   
    13    5   11 1   
    14    6   12 1   
    15    6   13 1   
    16    7   17 1   
    17    8   18 1   
    18    9   19 1   
    19   10   20 1   
@<TRIPOS>SUBSTRUCTURE
     1 IDT         1 TEMP              0 ****  ****    0 ROOT
