@<TRIPOS>MOLECULE
IDU
   25    25     1     0     0
SMALL
bcc


@<TRIPOS>ATOM
      1 O1          2.3810   -1.6030    1.2040 oh        1 IDU     -0.665800
      2 C1          0.1640    0.5140   -1.6370 c3        1 IDU      0.331900
      3 C2         -0.6240   -0.4790   -0.7490 c3        1 IDU      0.168100
      4 C3          0.2960   -1.3780    0.1020 c3        1 IDU      0.110100
      5 C4          1.5310   -0.6250    0.6190 c3        1 IDU      0.108100
      6 C5          2.2240    0.1160   -0.5320 c3        1 IDU      0.005100
      7 C6          3.5410    0.8230   -0.1170 c         1 IDU      0.928600
      8 O2         -1.4850    0.2430    0.0730 os        1 IDU     -0.608500
      9 O3          0.6620   -2.4840   -0.7230 oh        1 IDU     -0.631800
     10 O5          1.3180    1.0930   -1.0370 os        1 IDU     -0.415600
     11 O61         4.1990    1.4410   -0.9950 o         1 IDU     -0.845800
     12 O62         3.9420    0.6700    1.0780 o         1 IDU     -0.845800
     13 S          -3.0840   -0.2940    0.4610 s6        1 IDU      1.697300
     14 O1S        -2.8830   -1.1640    1.5320 o         1 IDU     -0.757200
     15 O2S        -3.7070    0.9150    0.7730 o         1 IDU     -0.757200
     16 O3S        -3.5140   -0.9040   -0.7210 o         1 IDU     -0.757200
     17 HO1         3.1850   -1.1300    1.4780 ho        1 IDU      0.450000
     18 H2         -1.2240   -1.1460   -1.4380 h1        1 IDU      0.055700
     19 H3         -0.2930   -1.7740    0.9780 h1        1 IDU      0.064700
     20 H4          1.2140    0.1190    1.4000 h1        1 IDU      0.068700
     21 H5          2.4760   -0.6220   -1.3450 h1        1 IDU      0.022700
     22 HO3         1.4890   -2.8310   -0.3660 ho        1 IDU      0.408000
     23 O4         -0.5920    1.6520   -1.9540 oh        1 IDU     -0.611800
     24 H10        -0.9240    2.0080   -1.1150 ho        1 IDU      0.432000
     25 H1          0.4420    0.0260   -2.6130 h2        1 IDU      0.044700
@<TRIPOS>BOND
     1    1    5 1   
     2    1   17 1   
     3    2    3 1   
     4    2   10 1   
     5    2   23 1   
     6    2   25 1   
     7    3    4 1   
     8    3    8 1   
     9    3   18 1   
    10    4    5 1   
    11    4    9 1   
    12    4   19 1   
    13    5    6 1   
    14    5   20 1   
    15    6    7 1   
    16    6   10 1   
    17    6   21 1   
    18    7   11 1   
    19    7   12 1   
    20    8   13 1   
    21    9   22 1   
    22   13   14 1   
    23   13   15 1   
    24   13   16 1   
    25   23   24 1   
@<TRIPOS>SUBSTRUCTURE
     1 IDU         1 TEMP              0 ****  ****    0 ROOT
