@<TRIPOS>MOLECULE
IDX
   25    25     1     0     0
SMALL
bcc


@<TRIPOS>ATOM
      1 C1         -0.1300    0.6390    0.8860 c3        1 IDX      0.288900
      2 C2          0.5370   -0.2100   -0.2200 c3        1 IDX      0.187100
      3 C3         -0.3440   -1.4070   -0.6160 c3        1 IDX      0.135100
      4 C4         -1.8000   -0.9480   -0.8560 c3        1 IDX      0.120100
      5 C5         -2.3160   -0.1460    0.3420 c3        1 IDX     -0.013900
      6 C6         -3.7610    0.3930    0.1530 c         1 IDX      0.929600
      7 O2          1.7780   -0.6740    0.1980 os        1 IDX     -0.598500
      8 O3         -0.3400   -2.4470    0.3470 oh        1 IDX     -0.626800
      9 O5         -1.4740    0.9790    0.6090 os        1 IDX     -0.434600
     10 O61        -4.5780    0.1750    1.0910 o         1 IDX     -0.842800
     11 O62        -4.0650    0.9830   -0.9230 o         1 IDX     -0.842800
     12 S           3.2320    0.2260   -0.0500 s6        1 IDX      1.697300
     13 O1S         3.4350    0.1290   -1.4280 o         1 IDX     -0.759200
     14 O2S         2.8880    1.5020    0.4020 o         1 IDX     -0.759200
     15 O3S         4.1450   -0.4750    0.7390 o         1 IDX     -0.759200
     16 O9         -0.1540   -0.0780    2.1070 oh        1 IDX     -0.634800
     17 H1          0.4150    1.6190    1.0090 h2        1 IDX      0.085700
     18 H2          0.6400    0.4600   -1.1230 h1        1 IDX      0.055700
     19 H3          0.0620   -1.8640   -1.5620 h1        1 IDX      0.055700
     20 O10        -1.8120   -0.2440   -2.0860 oh        1 IDX     -0.644800
     21 H4         -2.4510   -1.8600   -0.9770 h1        1 IDX      0.033700
     22 H5         -2.2990   -0.8280    1.2390 h1        1 IDX      0.045700
     23 HO3         0.0470   -2.0830    1.1560 ho        1 IDX      0.431000
     24 H9         -0.7860    0.3750    2.6790 ho        1 IDX      0.400000
     25 H10        -2.4220    0.5060   -1.9830 ho        1 IDX      0.451000
@<TRIPOS>BOND
     1    1    2 1   
     2    1    9 1   
     3    1   16 1   
     4    1   17 1   
     5    2    3 1   
     6    2    7 1   
     7    2   18 1   
     8    3    4 1   
     9    3    8 1   
    10    3   19 1   
    11    4    5 1   
    12    4   20 1   
    13    4   21 1   
    14    5    6 1   
    15    5    9 1   
    16    5   22 1   
    17    6   10 1   
    18    6   11 1   
    19    7   12 1   
    20    8   23 1   
    21   12   13 1   
    22   12   14 1   
    23   12   15 1   
    24   16   24 1   
    25   20   25 1   
@<TRIPOS>SUBSTRUCTURE
     1 IDX         1 TEMP              0 ****  ****    0 ROOT
