@<TRIPOS>MOLECULE
IDX
   25    24     1     0     0
SMALL
bcc


@<TRIPOS>ATOM
      1 C1         -1.2050   -0.3720   -0.7520 c3        1 IDX      0.315900
      2 C2          0.1770   -0.4420   -0.7670 c3        1 IDX      0.138100
      3 C3          0.7810   -0.5030    0.4730 c3        1 IDX      0.109100
      4 C4          0.3470    0.5660    1.4170 c3        1 IDX      0.109100
      5 C5         -1.2760    0.6490    1.6800 c3        1 IDX      0.009100
      6 C6         -1.6820   -0.3490    2.3470 c         1 IDX      0.889600
      7 O2          0.7240    0.8390   -1.5140 os        1 IDX     -0.621600
      8 O3          2.2840   -0.3900    0.2800 oh        1 IDX     -0.615800
      9 O5         -1.7520    0.6890    0.1100 os        1 IDX     -0.442600
     10 O61        -2.7810   -0.8910    2.0610 o         1 IDX     -0.850300
     11 O62        -1.0150   -0.7600    3.3330 o         1 IDX     -0.850300
     12 S           1.3600    0.5980   -2.8610 s4        1 IDX      1.878600
     13 O1S         2.3310    1.6990   -3.2130 o         1 IDX     -0.685900
     14 O2S         2.0300   -0.7540   -2.8870 os        1 IDX     -1.087000
     15 O3S         0.3500    0.7310   -3.9760 o         1 IDX     -0.685900
     16 O9         -1.6720   -0.1390   -2.1260 oh        1 IDX     -0.616800
     17 H1         -1.5560   -1.2320   -0.4460 h2        1 IDX      0.106700
     18 H2          0.4400   -1.2350   -1.2770 h1        1 IDX      0.053700
     19 H3          0.5820   -1.3720    0.8740 h1        1 IDX      0.078700
     20 O10         0.9750    0.3530    2.6360 oh        1 IDX     -0.632800
     21 H4          0.6450    1.4270    1.0630 h1        1 IDX      0.067700
     22 H5         -1.6290    1.3990    2.1980 h1        1 IDX      0.054700
     23 HO3         2.6850   -1.0880    0.6560 ho        1 IDX      0.414000
     24 H9         -2.4560   -0.5420   -2.2450 ho        1 IDX      0.430000
     25 H10         1.3130    1.1200    2.9330 ho        1 IDX      0.435000
@<TRIPOS>BOND
     1    1    2 1   
     2    1    9 1   
     3    1   16 1   
     4    1   17 1   
     5    2    3 1   
     6    2    7 1   
     7    2   18 1   
     8    3    4 1   
     9    3    8 1   
    10    3   19 1   
    11    4    5 1   
    12    4   20 1   
    13    4   21 1   
    14    5    6 1   
    15    5    9 1   
    16    5   22 1   
    17    6   10 1   
    18    6   11 1   
    19    7   12 1   
    20    8   23 1   
    21   12   13 1   
    22   12   15 1   
    23   16   24 1   
    24   20   25 1   
@<TRIPOS>SUBSTRUCTURE
     1 IDX         1 TEMP              0 ****  ****    0 ROOT
