@<TRIPOS>MOLECULE
IDY
   28    28     1     0     0
SMALL
bcc


@<TRIPOS>ATOM
      1 S           3.2350   -0.2810    0.2330 s6        1 IDY      1.694300
      2 C1         -0.1770   -0.9020    0.5840 c3        1 IDY      0.282900
      3 O1         -0.5480   -2.2560    0.3020 os        1 IDY     -0.467600
      4 C2          0.6380   -0.4190   -0.6390 c3        1 IDY      0.187100
      5 O2          1.6930    0.3720   -0.1940 os        1 IDY     -0.595500
      6 C3         -0.1740    0.3740   -1.6860 c3        1 IDY      0.114100
      7 O3         -0.3990   -0.4510   -2.8270 oh        1 IDY     -0.624800
      8 C4         -1.5300    0.9420   -1.2180 c3        1 IDY      0.120100
      9 O4         -1.3200    2.2410   -0.7000 oh        1 IDY     -0.622800
     10 C5         -2.2220   -0.0140   -0.2460 c3        1 IDY     -0.018900
     11 O5         -1.3790   -0.2370    0.8830 os        1 IDY     -0.408600
     12 C6         -3.5760    0.5460    0.2760 c         1 IDY      0.929600
     13 C7         -1.1060   -2.9300    1.4120 c3        1 IDY      0.130700
     14 O61        -3.5900    1.6580    0.8720 o         1 IDY     -0.839800
     15 O62        -4.6050   -0.1470    0.0360 o         1 IDY     -0.839800
     16 OS1         4.0450    0.8540    0.2250 o         1 IDY     -0.758867
     17 OS2         2.9940   -0.8440    1.4880 o         1 IDY     -0.758867
     18 OS3         3.4880   -1.2040   -0.7860 o         1 IDY     -0.758867
     19 H2          1.0520   -1.3420   -1.1540 h1        1 IDY      0.056700
     20 H3          0.4660    1.2200   -2.0650 h1        1 IDY      0.094700
     21 HO3        -0.8980   -1.2160   -2.5170 ho        1 IDY      0.394000
     22 H4         -2.1850    1.0650   -2.1310 h1        1 IDY      0.036700
     23 HO4        -1.6840    2.2560    0.2010 ho        1 IDY      0.449000
     24 H5         -2.4070   -0.9940   -0.7680 h1        1 IDY      0.038700
     25 H7         -0.3440   -3.0380    2.2240 h1        1 IDY      0.022033
     26 H7A        -2.0010   -2.3810    1.7970 h1        1 IDY      0.022033
     27 H7B        -1.4000   -3.9340    1.0180 h1        1 IDY      0.022033
     28 H1          0.4440   -0.8310    1.5240 h2        1 IDY      0.100700
@<TRIPOS>BOND
     1    1    5 1   
     2    1   16 1   
     3    1   17 1   
     4    1   18 1   
     5    2    3 1   
     6    2    4 1   
     7    2   11 1   
     8    2   28 1   
     9    3   13 1   
    10    4    5 1   
    11    4    6 1   
    12    4   19 1   
    13    6    7 1   
    14    6    8 1   
    15    6   20 1   
    16    7   21 1   
    17    8    9 1   
    18    8   10 1   
    19    8   22 1   
    20    9   23 1   
    21   10   11 1   
    22   10   12 1   
    23   10   24 1   
    24   12   14 1   
    25   12   15 1   
    26   13   25 1   
    27   13   26 1   
    28   13   27 1   
@<TRIPOS>SUBSTRUCTURE
     1 IDY         1 TEMP              0 ****  ****    0 ROOT
