@<TRIPOS>MOLECULE
IDY
   28    26     1     0     0
SMALL
bcc


@<TRIPOS>ATOM
      1 S           0.6040    0.5200   -3.2490 ss        1 IDY      2.877000
      2 C1         -0.2410    1.0050    0.1830 c3        1 IDY      0.135000
      3 O1          0.0920    2.2800   -0.2400 os        1 IDY     -0.265000
      4 C2          0.3520    0.0180   -0.7610 c3        1 IDY      0.064000
      5 O2         -0.3090    0.1600   -2.0720 o         1 IDY     -0.749000
      6 C3          0.2060   -1.3670   -0.3090 c3        1 IDY     -0.018000
      7 O3          0.9700   -2.2340   -1.2010 oh        1 IDY     -0.354000
      8 C4          0.6910   -1.5720    1.0950 c3        1 IDY      0.035000
      9 O4          0.3740   -2.8890    1.4980 oh        1 IDY     -0.355000
     10 C5          0.0610   -0.5760    2.1070 c3        1 IDY     -0.059000
     11 O5          0.2340    0.8240    1.5900 os        1 IDY     -0.307000
     12 C6         -1.3740   -0.9010    2.4170 c2        1 IDY      0.315000
     13 C7         -0.7290    3.2830    0.2860 c3        1 IDY     -0.058000
     14 O61        -2.1320   -0.0150    2.8800 o         1 IDY     -0.580500
     15 O62        -1.7950   -2.0780    2.2760 o         1 IDY     -0.580500
     16 OS1         1.1720   -0.7230   -3.9030 o         1 IDY     -1.081000
     17 OS2        -0.1830    1.1190   -4.3910 o         1 IDY     -1.081000
     18 OS3         1.7060    1.4520   -2.7920 os        1 IDY     -1.083000
     19 H1         -1.2150    0.9120    0.1650 h2        1 IDY      0.131000
     20 H2          1.3030    0.2150   -0.8650 h1        1 IDY      0.097000
     21 H3         -0.7350   -1.6170   -0.3560 h1        1 IDY      0.093000
     22 HO3         0.4650   -2.9190   -1.4520 ho        1 IDY      0.232000
     23 H4          1.6610   -1.4630    1.1110 h1        1 IDY      0.090000
     24 HO4         1.1170   -3.3070    1.7630 ho        1 IDY      0.238000
     25 H5          0.4710   -0.6730    2.9920 h1        1 IDY      0.091000
     26 H7         -0.4390    3.4980    1.2000 h1        1 IDY      0.058333
     27 H7A        -0.6660    4.0810   -0.2730 h1        1 IDY      0.058333
     28 H7B        -1.6610    2.9670    0.3030 h1        1 IDY      0.058333
@<TRIPOS>BOND
     1    1   16 1   
     2    1   17 1   
     3    2    3 1   
     4    2    4 1   
     5    2   11 1   
     6    2   19 1   
     7    3   13 1   
     8    4    5 1   
     9    4    6 1   
    10    4   20 1   
    11    6    7 1   
    12    6    8 1   
    13    6   21 1   
    14    7   22 1   
    15    8    9 1   
    16    8   10 1   
    17    8   23 1   
    18    9   24 1   
    19   10   11 1   
    20   10   12 1   
    21   10   25 1   
    22   12   14 1   
    23   12   15 1   
    24   13   26 1   
    25   13   27 1   
    26   13   28 1   
@<TRIPOS>SUBSTRUCTURE
     1 IDY         1 TEMP              0 ****  ****    0 ROOT
