@<TRIPOS>MOLECULE
IDZ
   28    31     1     0     0
SMALL
bcc


@<TRIPOS>ATOM
      1 C1         -4.5030   -0.0670    0.0000 ca        1 IDZ     -0.146000
      2 C2         -4.6080    1.3150    0.0000 ca        1 IDZ     -0.094000
      3 C3         -3.4720    2.1470    0.0010 ca        1 IDZ     -0.162000
      4 C4         -2.1860    1.6260    0.0000 ca        1 IDZ     -0.046000
      5 C5         -2.0370    0.2390    0.0000 ca        1 IDZ     -0.173900
      6 C6         -0.9250   -0.7060    0.0000 cc        1 IDZ      0.315600
      7 C7          0.4880   -0.3650    0.0000 cc        1 IDZ      0.416500
      8 N8          1.4950   -1.3610    0.0000 na        1 IDZ     -0.266300
      9 C9          2.7160   -0.6880    0.0000 ca        1 IDZ     -0.070200
     10 C10         4.0450   -1.1300    0.0000 ca        1 IDZ     -0.135000
     11 C11         5.0380   -0.1640    0.0000 ca        1 IDZ     -0.112000
     12 C12         4.7360    1.2110    0.0000 ca        1 IDZ     -0.154000
     13 C13         3.4300    1.6730    0.0000 ca        1 IDZ     -0.070000
     14 C14         2.3900    0.7300    0.0000 ca        1 IDZ      0.066400
     15 N16        -2.7320   -1.9290    0.0000 na        1 IDZ     -0.009100
     16 C17        -3.2090   -0.6080    0.0000 ca        1 IDZ     -0.056200
     17 NAL         0.9940    0.8920    0.0000 nd        1 IDZ     -0.561100
     18 NAI        -1.4020   -1.9830   -0.0000 nd        1 IDZ     -0.512100
     19 H1         -5.3910   -0.7110    0.0000 ha        1 IDZ      0.139000
     20 H2         -5.6070    1.7790    0.0010 ha        1 IDZ      0.134000
     21 H3         -3.6150    3.2390    0.0010 ha        1 IDZ      0.137000
     22 H4         -1.3040    2.2840    0.0000 ha        1 IDZ      0.167000
     23 H8          1.3550   -2.3360    0.0000 hn        1 IDZ      0.316700
     24 H10         4.2890   -2.2010    0.0000 ha        1 IDZ      0.136000
     25 H11         6.0940   -0.4750    0.0000 ha        1 IDZ      0.132000
     26 H12         5.5650    1.9350    0.0000 ha        1 IDZ      0.132000
     27 H13         3.2020    2.7490    0.0000 ha        1 IDZ      0.146000
     28 H16        -3.2690   -2.7630   -0.0010 hn        1 IDZ      0.328700
@<TRIPOS>BOND
     1    1    2 ar  
     2    1   16 ar  
     3    1   19 1   
     4    2    3 ar  
     5    2   20 1   
     6    3    4 ar  
     7    3   21 1   
     8    4    5 ar  
     9    4   22 1   
    10    5    6 1   
    11    5   16 ar  
    12    6    7 1   
    13    6   18 2   
    14    7    8 1   
    15    7   17 2   
    16    8    9 1   
    17    8   23 1   
    18    9   10 ar  
    19    9   14 ar  
    20   10   11 ar  
    21   10   24 1   
    22   11   12 ar  
    23   11   25 1   
    24   12   13 ar  
    25   12   26 1   
    26   13   14 ar  
    27   13   27 1   
    28   14   17 1   
    29   15   16 1   
    30   15   18 1   
    31   15   28 1   
@<TRIPOS>SUBSTRUCTURE
     1 IDZ         1 TEMP              0 ****  ****    0 ROOT
