@<TRIPOS>MOLECULE
IDZ
   28    21     1     0     0
SMALL
bcc


@<TRIPOS>ATOM
      1 C1          0.8850   -0.3080   -4.3750 c1        1 IDZ     -0.119000
      2 C2          2.2680   -0.3460   -4.3270 c1        1 IDZ     -0.119000
      3 C3          2.9170   -0.4060   -3.1050 c1        1 IDZ     -0.119000
      4 C4          2.1820   -0.4270   -1.9310 c1        1 IDZ     -0.119000
      5 C5          0.7760   -0.3880   -1.9800 c1        1 IDZ     -0.090000
      6 C6         -0.1870   -0.3900   -0.9860 c1        1 IDZ     -0.056000
      7 C7         -0.4230   -0.3190    0.3780 c2        1 IDZ      0.090000
      8 N8         -0.4490   -1.1210    1.4750 n2        1 IDZ     -0.223000
      9 C9         -0.7960   -0.3600    2.5430 c1        1 IDZ     -0.025000
     10 C10        -0.9590   -0.6670    3.9070 c1        1 IDZ     -0.135000
     11 C11        -1.3110    0.3290    4.8040 c1        1 IDZ     -0.119000
     12 C12        -1.5020    1.6270    4.3590 c1        1 IDZ     -0.119000
     13 C13        -1.3420    1.9300    3.0160 c1        1 IDZ     -0.070000
     14 C14        -0.9840    0.9180    2.1040 c1        1 IDZ     -0.073000
     15 N16        -1.2100   -0.2950   -2.9420 n2        1 IDZ     -0.184000
     16 C17         0.1380   -0.3290   -3.1810 c1        1 IDZ     -0.011000
     17 NAL        -0.7530    0.9400    0.7680 n1        1 IDZ     -0.134000
     18 NAI        -1.4020   -0.3330   -1.5800 n2        1 IDZ     -0.045000
     19 H1          0.4270   -0.2650   -5.2360 ha        1 IDZ      0.140167
     20 H2          2.7860   -0.3310   -5.1540 ha        1 IDZ      0.140167
     21 H3          3.8920   -0.4330   -3.0710 ha        1 IDZ      0.140167
     22 H4          2.6400   -0.4690   -1.0700 ha        1 IDZ      0.140167
     23 H8         -0.2540   -2.0110    1.4930 DU        1 IDZ      0.273000
     24 H10        -0.8240   -1.5810    4.2210 ha        1 IDZ      0.136000
     25 H11        -1.4240    0.1160    5.7500 ha        1 IDZ      0.140167
     26 H12        -1.7500    2.3280    4.9910 ha        1 IDZ      0.140167
     27 H13        -1.4770    2.8440    2.7030 ha        1 IDZ      0.146000
     28 H16        -1.8650   -0.2540   -3.5750 DU        1 IDZ      0.273000
@<TRIPOS>BOND
     1    1    2 1   
     2    1   19 1   
     3    2   20 1   
     4    3    4 1   
     5    3   21 1   
     6    4   22 1   
     7    5   16 1   
     8    6    7 1   
     9    6   18 1   
    10    7    8 1   
    11    7   17 1   
    12    8    9 1   
    13    9   10 1   
    14   10   24 1   
    15   11   12 1   
    16   11   25 1   
    17   12   26 1   
    18   13   14 1   
    19   13   27 1   
    20   15   16 1   
    21   15   18 1   
@<TRIPOS>SUBSTRUCTURE
     1 IDZ         1 TEMP              0 ****  ****    0 ROOT
