@<TRIPOS>MOLECULE
IE2
   38    41     1     0     0
SMALL
bcc


@<TRIPOS>ATOM
      1 CAA        -3.0570    4.5290   -0.3150 c3        1 IE2     -0.153400
      2 NAB         5.4940   -0.5310    1.3780 n3        1 IE2     -1.026700
      3 OAC         4.7480    1.7080    0.6920 o         1 IE2     -0.656300
      4 OAD         5.5160    0.1470   -0.9850 o         1 IE2     -0.656300
      5 CAE        -1.4830    2.6440   -0.8230 ca        1 IE2     -0.257300
      6 CAF         0.9320   -0.2100    0.7520 ca        1 IE2     -0.154500
      7 CAG         1.6960   -1.7680   -0.9590 ca        1 IE2     -0.154500
      8 CAH         2.2290    0.2750    0.8680 ca        1 IE2     -0.012000
      9 CAI         2.9840   -1.2620   -0.8190 ca        1 IE2     -0.012000
     10 CAJ        -1.1810    1.2880   -0.8130 ca        1 IE2     -0.065000
     11 CAK        -2.2190   -3.2920   -0.1600 cc        1 IE2      0.330200
     12 CAL        -4.3270   -1.7380   -0.0710 c3        1 IE2      0.042000
     13 NAM        -0.8840   -3.1020   -0.2390 nd        1 IE2     -0.492800
     14 NAN        -3.6860    2.1920    0.0760 nb        1 IE2     -0.659000
     15 SAO        -4.6800   -0.1430    0.6120 ss        1 IE2     -0.217400
     16 CAP        -2.7460    3.0670   -0.3450 ca        1 IE2      0.441600
     17 CAQ         0.6520   -1.2390   -0.1720 ca        1 IE2      0.079800
     18 CAR         3.2730   -0.2420    0.0930 ca        1 IE2     -0.383500
     19 CAS        -2.9030   -2.0190   -0.1500 cc        1 IE2     -0.255600
     20 CAT        -2.1220    0.3700   -0.3260 ca        1 IE2     -0.164300
     21 CAU        -3.3970    0.8690    0.0730 ca        1 IE2      0.520600
     22 CAV        -1.8820   -1.0490   -0.2430 cd        1 IE2     -0.014300
     23 NAW        -0.6650   -1.7680   -0.2940 na        1 IE2      0.148300
     24 SAX         4.8440    0.3780    0.2340 sy        1 IE2      1.528200
     25 HAA        -4.0380    4.7390   -0.8090 hc        1 IE2      0.058367
     26 HAAA       -3.1150    4.8840    0.7440 hc        1 IE2      0.058367
     27 HAAB       -2.2580    5.1030   -0.8440 hc        1 IE2      0.058367
     28 HNAB        5.4680   -0.3030    2.3400 hn        1 IE2      0.449800
     29 HNAA        5.9850   -1.3710    1.1990 hn        1 IE2      0.449800
     30 HAE        -0.7580    3.3790   -1.1980 ha        1 IE2      0.151000
     31 HAF         0.1280    0.2140    1.3760 ha        1 IE2      0.163000
     32 HAG         1.5010   -2.5790   -1.6790 ha        1 IE2      0.163000
     33 HAH         2.4380    1.0950    1.5800 ha        1 IE2      0.160000
     34 HAI         3.7940   -1.6620   -1.4560 ha        1 IE2      0.160000
     35 HAJ        -0.2060    0.9390   -1.1890 ha        1 IE2      0.148000
     36 HAK        -2.6630   -4.2880   -0.1160 h4        1 IE2      0.052100
     37 HAL        -4.8480   -2.4630    0.6100 h1        1 IE2      0.085700
     38 HALA       -4.7990   -1.8270   -1.0840 h1        1 IE2      0.085700
@<TRIPOS>BOND
     1    1   16 1   
     2    1   25 1   
     3    1   26 1   
     4    1   27 1   
     5    2   24 1   
     6    2   28 1   
     7    2   29 1   
     8    3   24 2   
     9    4   24 2   
    10    5   10 ar  
    11    5   16 ar  
    12    5   30 1   
    13    6    8 ar  
    14    6   17 ar  
    15    6   31 1   
    16    7    9 ar  
    17    7   17 ar  
    18    7   32 1   
    19    8   18 ar  
    20    8   33 1   
    21    9   18 ar  
    22    9   34 1   
    23   10   20 ar  
    24   10   35 1   
    25   11   13 2   
    26   11   19 1   
    27   11   36 1   
    28   12   15 1   
    29   12   19 1   
    30   12   37 1   
    31   12   38 1   
    32   13   23 1   
    33   14   16 ar  
    34   14   21 ar  
    35   15   21 1   
    36   17   23 1   
    37   18   24 1   
    38   19   22 2   
    39   20   21 ar  
    40   20   22 1   
    41   22   23 1   
@<TRIPOS>SUBSTRUCTURE
     1 IE2         1 TEMP              0 ****  ****    0 ROOT
