@<TRIPOS>MOLECULE
IE2
   39    42     1     0     0
SMALL
bcc


@<TRIPOS>ATOM
      1 CAA        -0.1910   -0.1190   -0.2320 c3        1 IE2     -0.161400
      2 NAB         6.7550   -1.2040    5.3090 n4        1 IE2     -0.782500
      3 OAC         8.7800   -2.5410    4.5190 o         1 IE2     -0.573300
      4 OAD         6.6170   -3.5930    4.4140 o         1 IE2     -0.573300
      5 CAE         2.2100    0.3140    0.3560 ca        1 IE2     -0.266300
      6 CAF         5.7500   -1.4760    0.7720 ca        1 IE2     -0.183000
      7 CAG         7.9110   -0.3470    0.9210 ca        1 IE2     -0.183000
      8 CAH         5.9840   -2.0550    1.9990 ca        1 IE2      0.033500
      9 CAI         8.1180   -0.9370    2.1470 ca        1 IE2      0.033500
     10 CAJ         3.5470    0.3710   -0.0060 ca        1 IE2     -0.068000
     11 CAK         7.1060    0.4050   -3.1250 cc        1 IE2      0.386200
     12 CAL         4.7220    0.4770   -4.2370 c3        1 IE2      0.014000
     13 NAM         7.5830    0.2010   -1.8920 nd        1 IE2     -0.493800
     14 NAN         1.5830   -0.2310   -1.9200 nb        1 IE2     -0.647000
     15 SAO         3.1870   -0.3590   -3.9580 ss        1 IE2     -0.155400
     16 CAP         1.2470   -0.0260   -0.6300 ca        1 IE2      0.466600
     17 CAQ         6.7080   -0.5960    0.1950 ca        1 IE2      0.199800
     18 CAR         7.1670   -1.8070    2.7400 ca        1 IE2     -0.618500
     19 CAS         5.6480    0.3320   -3.1250 cc        1 IE2     -0.223600
     20 CAT         3.9220    0.0880   -1.3290 ca        1 IE2     -0.198300
     21 CAU         2.8870   -0.1470   -2.2820 ca        1 IE2      0.524600
     22 CAV         5.2850    0.0930   -1.7940 cd        1 IE2      0.003700
     23 NAW         6.5100   -0.0040   -1.0550 na        1 IE2      0.120300
     24 SAX         7.4680   -2.5550    4.0970 sy        1 IE2      1.508200
     25 HAA        -0.6670   -1.0380   -0.6560 hc        1 IE2      0.068033
     26 HAAA       -0.2830   -0.1440    0.8800 hc        1 IE2      0.068033
     27 HAAB       -0.7480    0.7710   -0.6210 hc        1 IE2      0.068033
     28 HNAB        6.3940   -0.3970    4.8140 hn        1 IE2      0.449467
     29 HNAA        7.4830   -0.8870    5.9450 hn        1 IE2      0.449467
     30 HAE         1.8890    0.5410    1.3810 ha        1 IE2      0.150000
     31 HAF         4.8270   -1.7300    0.2180 ha        1 IE2      0.193000
     32 HAG         8.6920    0.3120    0.4980 ha        1 IE2      0.193000
     33 HAH         5.2380   -2.7650    2.4090 ha        1 IE2      0.169000
     34 HAI         9.0680   -0.7430    2.6820 ha        1 IE2      0.169000
     35 HAJ         4.3100    0.6510    0.7360 ha        1 IE2      0.129000
     36 HAK         7.7560    0.6050   -3.9830 h4        1 IE2      0.074100
     37 HAL         5.1340    0.0170   -5.1760 h1        1 IE2      0.103700
     38 HALA        4.5370    1.5630   -4.4520 h1        1 IE2      0.103700
     39 HAB3        6.0020   -1.5970    5.8670 hn        1 IE2      0.449467
@<TRIPOS>BOND
     1    1   16 1   
     2    1   25 1   
     3    1   26 1   
     4    1   27 1   
     5    2   24 1   
     6    2   28 1   
     7    2   29 1   
     8    2   39 1   
     9    3   24 2   
    10    4   24 2   
    11    5   10 ar  
    12    5   16 ar  
    13    5   30 1   
    14    6    8 ar  
    15    6   17 ar  
    16    6   31 1   
    17    7    9 ar  
    18    7   17 ar  
    19    7   32 1   
    20    8   18 ar  
    21    8   33 1   
    22    9   18 ar  
    23    9   34 1   
    24   10   20 ar  
    25   10   35 1   
    26   11   13 2   
    27   11   19 1   
    28   11   36 1   
    29   12   15 1   
    30   12   19 1   
    31   12   37 1   
    32   12   38 1   
    33   13   23 1   
    34   14   16 ar  
    35   14   21 ar  
    36   15   21 1   
    37   17   23 1   
    38   18   24 1   
    39   19   22 2   
    40   20   21 ar  
    41   20   22 1   
    42   22   23 1   
@<TRIPOS>SUBSTRUCTURE
     1 IE2         1 TEMP              0 ****  ****    0 ROOT
