@<TRIPOS>MOLECULE
IE2
   39    42     1     0     0
SMALL
bcc


@<TRIPOS>ATOM
      1 CAA        -0.2880    0.4590   -0.4150 c3        1 IE2     -0.161400
      2 NAB         7.6600   -3.8170    4.1980 nz        1 IE2     -0.783500
      3 OAC         5.6780   -2.4820    5.0970 o         1 IE2     -0.573800
      4 OAD         7.8690   -1.4960    5.2370 o         1 IE2     -0.573800
      5 CAE         2.1290    0.6820    0.2150 ca        1 IE2     -0.262300
      6 CAF         5.4450   -1.4130    0.9340 ca        1 IE2     -0.182000
      7 CAG         7.6830   -0.4410    1.0670 ca        1 IE2     -0.182000
      8 CAH         5.5770   -1.8590    2.2300 ca        1 IE2      0.032500
      9 CAI         7.7850   -0.8910    2.3630 ca        1 IE2      0.032500
     10 CAJ         3.4730    0.5610   -0.1010 ca        1 IE2     -0.067000
     11 CAK         7.0920   -0.0940   -3.0810 cc        1 IE2      0.385200
     12 CAL         4.7600    0.1380   -4.2800 c3        1 IE2      0.016000
     13 NAM         7.5120   -0.2300   -1.8160 nd        1 IE2     -0.498800
     14 NAN         1.5050   -0.0100   -2.0210 nb        1 IE2     -0.649000
     15 SAO         3.1390   -0.5050   -3.9790 ss        1 IE2     -0.163400
     16 CAP         1.1600    0.3540   -0.7690 ca        1 IE2      0.466600
     17 CAQ         6.4970   -0.6840    0.3120 ca        1 IE2      0.199800
     18 CAR         6.7460   -1.6210    2.9950 ca        1 IE2     -0.616500
     19 CAS         5.6380   -0.0020   -3.1280 cc        1 IE2     -0.227600
     20 CAT         3.8490    0.1140   -1.3780 ca        1 IE2     -0.202300
     21 CAU         2.8190   -0.1010   -2.3420 ca        1 IE2      0.524600
     22 CAV         5.2150   -0.0700   -1.7930 cd        1 IE2      0.007700
     23 NAW         6.4010   -0.2320   -1.0060 na        1 IE2      0.119300
     24 SAX         6.8550   -2.0750    4.5050 sy        1 IE2      1.507200
     25 HAA        -0.8820   -0.3760   -0.8650 hc        1 IE2      0.068033
     26 HAAA       -0.4150    0.4350    0.6950 hc        1 IE2      0.068033
     27 HAAB       -0.6970    1.4260   -0.8040 hc        1 IE2      0.068033
     28 HNAB        7.8090   -4.0020    3.2120 hn        1 IE2      0.451467
     29 HNAA        8.5590   -3.8760    4.6700 hn        1 IE2      0.451467
     30 HAE         1.8080    1.0380    1.2040 ha        1 IE2      0.156000
     31 HAF         4.5200   -1.6390    0.3710 ha        1 IE2      0.193000
     32 HAG         8.5240    0.1190    0.6180 ha        1 IE2      0.193000
     33 HAH         4.7400   -2.4180    2.6930 ha        1 IE2      0.168500
     34 HAI         8.7000   -0.6590    2.9420 ha        1 IE2      0.168500
     35 HAJ         4.2420    0.8310    0.6390 ha        1 IE2      0.135000
     36 HAK         7.7840   -0.0510   -3.9280 h4        1 IE2      0.072100
     37 HAL         4.6990    1.2150   -4.5930 h1        1 IE2      0.102700
     38 HALA        5.1440   -0.4440   -5.1600 h1        1 IE2      0.102700
     39 HAB3        7.0630   -4.5510    4.5710 hn        1 IE2      0.451467
@<TRIPOS>BOND
     1    1   16 1   
     2    1   25 1   
     3    1   26 1   
     4    1   27 1   
     5    2   24 1   
     6    2   28 1   
     7    2   29 1   
     8    2   39 1   
     9    3   24 2   
    10    4   24 2   
    11    5   10 ar  
    12    5   16 ar  
    13    5   30 1   
    14    6    8 ar  
    15    6   17 ar  
    16    6   31 1   
    17    7    9 ar  
    18    7   17 ar  
    19    7   32 1   
    20    8   18 ar  
    21    8   33 1   
    22    9   18 ar  
    23    9   34 1   
    24   10   20 ar  
    25   10   35 1   
    26   11   13 2   
    27   11   19 1   
    28   11   36 1   
    29   12   15 1   
    30   12   19 1   
    31   12   37 1   
    32   12   38 1   
    33   13   23 1   
    34   14   16 ar  
    35   14   21 ar  
    36   15   21 1   
    37   17   23 1   
    38   18   24 1   
    39   19   22 2   
    40   20   21 ar  
    41   20   22 1   
    42   22   23 1   
@<TRIPOS>SUBSTRUCTURE
     1 IE2         1 TEMP              0 ****  ****    0 ROOT
