@<TRIPOS>MOLECULE
IE2
   39    42     1     0     0
SMALL
bcc


@<TRIPOS>ATOM
      1 CAA        -0.2310   -0.0110   -0.3190 c3        1 IE2     -0.161400
      2 NAB         8.1310   -3.8690    3.9160 n4        1 IE2     -0.783500
      3 OAC         6.0500   -2.7870    4.9230 o         1 IE2     -0.573800
      4 OAD         8.1450   -1.6190    5.1190 o         1 IE2     -0.573800
      5 CAE         2.1650    0.3830    0.3080 ca        1 IE2     -0.262300
      6 CAF         5.6650   -1.4500    0.8510 ca        1 IE2     -0.182000
      7 CAG         7.8090   -0.2910    1.0370 ca        1 IE2     -0.182000
      8 CAH         5.8540   -1.9730    2.1100 ca        1 IE2      0.032500
      9 CAI         7.9680   -0.8210    2.2970 ca        1 IE2      0.032500
     10 CAJ         3.5100    0.4080   -0.0260 ca        1 IE2     -0.067000
     11 CAK         7.1330    0.2960   -3.0700 cc        1 IE2      0.385200
     12 CAL         4.7740    0.4010   -4.2330 c3        1 IE2      0.016000
     13 NAM         7.5800    0.1090   -1.8220 nd        1 IE2     -0.498800
     14 NAN         1.5750   -0.2010   -1.9680 nb        1 IE2     -0.648000
     15 SAO         3.2200   -0.4060   -3.9680 ss        1 IE2     -0.163400
     16 CAP         1.2160    0.0400   -0.6900 ca        1 IE2      0.466600
     17 CAQ         6.6390   -0.5860    0.2750 ca        1 IE2      0.199800
     18 CAR         7.0070   -1.6850    2.8820 ca        1 IE2     -0.616500
     19 CAS         5.6760    0.2590   -3.1000 cc        1 IE2     -0.227600
     20 CAT         3.9070    0.0880   -1.3340 ca        1 IE2     -0.202300
     21 CAU         2.8880   -0.1490   -2.3040 ca        1 IE2      0.524600
     22 CAV         5.2790    0.0580   -1.7710 cd        1 IE2      0.007700
     23 NAW         6.4850   -0.0520   -1.0070 na        1 IE2      0.119300
     24 SAX         7.1780   -2.2340    4.3540 sy        1 IE2      1.507200
     25 HAA        -0.7260    0.9460   -0.6230 hc        1 IE2      0.068367
     26 HAAA       -0.3400   -0.1380    0.7850 hc        1 IE2      0.068367
     27 HAAB       -0.7570   -0.8530   -0.8340 hc        1 IE2      0.068367
     28 HNAB        9.0380   -3.8810    4.3770 hn        1 IE2      0.451467
     29 HNAA        8.2830   -3.9700    2.9180 hn        1 IE2      0.451467
     30 HAE         1.8270    0.6380    1.3220 ha        1 IE2      0.156000
     31 HAF         4.7570   -1.7170    0.2790 ha        1 IE2      0.193000
     32 HAG         8.5890    0.3730    0.6230 ha        1 IE2      0.193000
     33 HAH         5.0770   -2.6370    2.5370 ha        1 IE2      0.168500
     34 HAI         8.8670   -0.5490    2.8840 ha        1 IE2      0.168500
     35 HAJ         4.2620    0.6920    0.7270 ha        1 IE2      0.135000
     36 HAK         7.8060    0.4620   -3.9170 h4        1 IE2      0.072100
     37 HAL         5.1960   -0.0800   -5.1560 h1        1 IE2      0.102700
     38 HALA        4.6110    1.4870   -4.4670 h1        1 IE2      0.102700
     39 HAB3        7.6070   -4.6790    4.2390 hn        1 IE2      0.451467
@<TRIPOS>BOND
     1    1   16 1   
     2    1   25 1   
     3    1   26 1   
     4    1   27 1   
     5    2   24 1   
     6    2   28 1   
     7    2   29 1   
     8    2   39 1   
     9    3   24 2   
    10    4   24 2   
    11    5   10 ar  
    12    5   16 ar  
    13    5   30 1   
    14    6    8 ar  
    15    6   17 ar  
    16    6   31 1   
    17    7    9 ar  
    18    7   17 ar  
    19    7   32 1   
    20    8   18 ar  
    21    8   33 1   
    22    9   18 ar  
    23    9   34 1   
    24   10   20 ar  
    25   10   35 1   
    26   11   13 2   
    27   11   19 1   
    28   11   36 1   
    29   12   15 1   
    30   12   19 1   
    31   12   37 1   
    32   12   38 1   
    33   13   23 1   
    34   14   16 ar  
    35   14   21 ar  
    36   15   21 1   
    37   17   23 1   
    38   18   24 1   
    39   19   22 2   
    40   20   21 ar  
    41   20   22 1   
    42   22   23 1   
@<TRIPOS>SUBSTRUCTURE
     1 IE2         1 TEMP              0 ****  ****    0 ROOT
