@<TRIPOS>MOLECULE
IE4
   37    38     1     0     0
SMALL
bcc


@<TRIPOS>ATOM
      1 C20        -0.3640    1.0450    1.6700 cc        1 IE4     -0.153000
      2 C21         0.9450    0.7670    1.2330 cc        1 IE4     -0.014000
      3 C11         5.4240   -0.8440    1.0990 cc        1 IE4     -0.172000
      4 C10         6.1820   -0.4990    0.0270 cc        1 IE4     -0.006000
      5 C19        -0.8330    0.5490    2.8850 cd        1 IE4     -0.033300
      6 C15         3.2770   -1.2750    3.2320 cc        1 IE4      0.195600
      7 C22         1.7520   -0.0110    2.0380 cd        1 IE4     -0.094800
      8 C14         3.1150   -0.5120    1.9830 cd        1 IE4     -0.192400
      9 C12         4.0690   -0.3300    1.0200 cd        1 IE4      0.152100
     10 C17         1.2230   -0.5150    3.3130 cd        1 IE4      0.052700
     11 C09         5.4820    0.3060   -0.9780 cd        1 IE4     -0.775600
     12 C04         6.0270   -0.0740   -5.6550 c3        1 IE4      0.139800
     13 C03         6.7620   -0.4690   -6.9620 c3        1 IE4      0.045800
     14 N18        -0.0510   -0.2240    3.7030 na        1 IE4     -0.064100
     15 N16         2.1920   -1.2860    4.0070 nc        1 IE4     -0.276600
     16 N05         6.3830   -0.8540   -4.5040 n3        1 IE4     -0.954800
     17 N02         6.4290    0.4330   -8.0970 n4        1 IE4     -0.830600
     18 O07         5.5250    1.5680   -3.1020 o         1 IE4     -0.470400
     19 O08         7.5070    0.5640   -2.3480 o         1 IE4     -0.470400
     20 S13         3.8840    0.5120   -0.4110 ss        1 IE4      0.104200
     21 S06         6.1750    0.8050   -2.1730 s4        1 IE4      1.714300
     22 H20        -1.0380    1.6640    1.0540 ha        1 IE4      0.191000
     23 H21         1.3030    1.1690    0.2710 ha        1 IE4      0.163000
     24 H19        -1.8610    0.7580    3.2480 h4        1 IE4      0.208000
     25 H11         5.7740   -1.4370    1.9510 ha        1 IE4      0.189000
     26 H10         7.2390   -0.7710   -0.1090 ha        1 IE4      0.188000
     27 H18        -0.4050   -0.5710    4.5800 hn        1 IE4      0.351700
     28 H15         4.1940   -1.8020    3.5320 h4        1 IE4      0.202000
     29 H041        4.9150   -0.1660   -5.8190 h1        1 IE4      0.089200
     30 H042        6.2550    1.0080   -5.4140 h1        1 IE4      0.089200
     31 H031        6.4810   -1.5200   -7.2630 hx        1 IE4      0.117700
     32 H032        7.8800   -0.4260   -6.8070 hx        1 IE4      0.117700
     33 H05         6.0290   -1.7900   -4.5600 hn        1 IE4      0.393300
     34 H021        6.6900    1.4000   -7.8720 hn        1 IE4      0.469467
     35 H022        6.9400    0.1390   -8.9390 hn        1 IE4      0.469467
     36 H052        7.3770   -0.8740   -4.3550 hn        1 IE4      0.393300
     37 H023        5.4220    0.4050   -8.2930 hn        1 IE4      0.469467
@<TRIPOS>BOND
     1    1    2 1   
     2    1    5 2   
     3    1   22 1   
     4    2    7 2   
     5    2   23 1   
     6    3    4 1   
     7    3    9 2   
     8    3   25 1   
     9    4   11 2   
    10    4   26 1   
    11    5   14 1   
    12    5   24 1   
    13    6    8 2   
    14    6   15 1   
    15    6   28 1   
    16    7    8 1   
    17    7   10 1   
    18    8    9 1   
    19    9   20 1   
    20   10   14 1   
    21   10   15 2   
    22   11   20 1   
    23   11   21 1   
    24   12   13 1   
    25   12   16 1   
    26   12   29 1   
    27   12   30 1   
    28   13   17 1   
    29   13   31 1   
    30   13   32 1   
    31   14   27 1   
    32   16   33 1   
    33   16   36 1   
    34   17   34 1   
    35   17   35 1   
    36   17   37 1   
    37   18   21 1   
    38   19   21 1   
@<TRIPOS>SUBSTRUCTURE
     1 IE4         1 TEMP              0 ****  ****    0 ROOT
