@<TRIPOS>MOLECULE
IE4
   37    38     1     0     0
SMALL
bcc


@<TRIPOS>ATOM
      1 C20        -0.3650    1.0200    1.6770 cc        1 IE4     -0.153000
      2 C21         0.9450    0.7510    1.2370 cc        1 IE4     -0.014000
      3 C11         5.4380   -0.8180    1.0980 cc        1 IE4     -0.172000
      4 C10         6.1900   -0.4720    0.0220 cc        1 IE4     -0.006000
      5 C19        -0.8260    0.5250    2.8960 cd        1 IE4     -0.033300
      6 C15         3.3020   -1.2590    3.2390 cc        1 IE4      0.195600
      7 C22         1.7620   -0.0150    2.0440 cd        1 IE4     -0.094800
      8 C14         3.1290   -0.5040    1.9880 cd        1 IE4     -0.192400
      9 C12         4.0790   -0.3180    1.0200 cd        1 IE4      0.152100
     10 C17         1.2410   -0.5170    3.3240 cd        1 IE4      0.052700
     11 C09         5.4800    0.3210   -0.9840 cd        1 IE4     -0.775600
     12 C04         6.0150   -0.0770   -5.6590 c3        1 IE4      0.139800
     13 C03         6.7480   -0.4760   -6.9660 c3        1 IE4      0.045800
     14 N18        -0.0340   -0.2370    3.7150 na        1 IE4     -0.064100
     15 N16         2.2180   -1.2760    4.0180 nc        1 IE4     -0.276600
     16 N05         6.3790   -0.8490   -4.5050 n3        1 IE4     -0.954800
     17 N02         6.4080    0.4180   -8.1050 n4        1 IE4     -0.830600
     18 O07         5.5050    1.5730   -3.1140 o         1 IE4     -0.470400
     19 O08         7.4990    0.5910   -2.3620 o         1 IE4     -0.470400
     20 S13         3.8820    0.5160   -0.4130 ss        1 IE4      0.104200
     21 S06         6.1650    0.8210   -2.1840 s4        1 IE4      1.714300
     22 H20        -1.0460    1.6290    1.0600 ha        1 IE4      0.191000
     23 H21         1.2970    1.1530    0.2720 ha        1 IE4      0.163000
     24 H19        -1.8550    0.7270    3.2610 h4        1 IE4      0.208000
     25 H11         5.7970   -1.4050    1.9520 ha        1 IE4      0.189000
     26 H10         7.2490   -0.7350   -0.1150 ha        1 IE4      0.188000
     27 H18        -0.3830   -0.5830    4.5950 hn        1 IE4      0.351700
     28 H15         4.2240   -1.7760    3.5390 h4        1 IE4      0.202000
     29 H041        4.9030   -0.1750   -5.8180 h1        1 IE4      0.089200
     30 H042        6.2390    1.0070   -5.4240 h1        1 IE4      0.089200
     31 H031        6.4700   -1.5300   -7.2600 hx        1 IE4      0.117700
     32 H032        7.8660   -0.4280   -6.8150 hx        1 IE4      0.117700
     33 H05         7.3730   -0.8640   -4.3590 hn        1 IE4      0.393300
     34 H021        6.9170    0.1220   -8.9470 hn        1 IE4      0.469467
     35 H022        6.6660    1.3880   -7.8850 hn        1 IE4      0.469467
     36 H052        6.0290   -1.7870   -4.5540 hn        1 IE4      0.393300
     37 H023        5.4000    0.3850   -8.2970 hn        1 IE4      0.469467
@<TRIPOS>BOND
     1    1    2 1   
     2    1    5 2   
     3    1   22 1   
     4    2    7 2   
     5    2   23 1   
     6    3    4 1   
     7    3    9 2   
     8    3   25 1   
     9    4   11 2   
    10    4   26 1   
    11    5   14 1   
    12    5   24 1   
    13    6    8 2   
    14    6   15 1   
    15    6   28 1   
    16    7    8 1   
    17    7   10 1   
    18    8    9 1   
    19    9   20 1   
    20   10   14 1   
    21   10   15 2   
    22   11   20 1   
    23   11   21 1   
    24   12   13 1   
    25   12   16 1   
    26   12   29 1   
    27   12   30 1   
    28   13   17 1   
    29   13   31 1   
    30   13   32 1   
    31   14   27 1   
    32   16   33 1   
    33   16   36 1   
    34   17   34 1   
    35   17   35 1   
    36   17   37 1   
    37   18   21 1   
    38   19   21 1   
@<TRIPOS>SUBSTRUCTURE
     1 IE4         1 TEMP              0 ****  ****    0 ROOT
