@<TRIPOS>MOLECULE
IE4
   35    27     1     0     0
SMALL
bcc


@<TRIPOS>ATOM
      1 C20        -0.7320    3.4800    4.5760 c1        1 IE4     -0.116500
      2 C21        -0.6300    2.6870    3.4640 c1        1 IE4     -0.018000
      3 C11         0.4560    1.6100   -0.5170 c1        1 IE4     -0.111500
      4 C10         0.9470    0.2370   -1.1810 c1        1 IE4     -0.111500
      5 C19        -1.6360    4.5390    4.5950 c1        1 IE4     -0.116500
      6 C15        -2.4890    2.9900    0.3970 c1        1 IE4     -0.020000
      7 C22        -1.4290    2.9390    2.3560 c1        1 IE4     -0.100000
      8 C14        -1.5300    2.3220    1.1340 c1        1 IE4     -0.172000
      9 C12        -0.7650    1.3470    0.2280 c1        1 IE4     -0.732500
     10 C17        -2.3210    3.9850    2.3770 c1        1 IE4      0.032000
     11 C09         0.0110   -0.8050   -0.8160 c1        1 IE4     -0.732500
     12 C04         1.4720   -4.3310   -2.2510 c3        1 IE4     -0.018000
     13 C03         2.4980   -4.0210   -3.3300 c3        1 IE4     -0.104000
     14 N18        -2.4220    4.7890    3.5060 n2        1 IE4     -0.115000
     15 N16        -2.9740    4.0130    1.1620 n1        1 IE4     -0.205000
     16 N05         1.3350   -3.2250   -1.3990 n3        1 IE4     -0.882000
     17 N02         2.5790   -5.1330   -4.2430 n3        1 IE4     -0.347000
     18 O07        -1.0200   -2.7930   -2.2830 o         1 IE4     -0.549400
     19 O08        -0.8610   -3.2300   -0.1050 o         1 IE4     -0.549400
     20 S13        -1.0980   -0.1630    0.0780 ss        1 IE4      0.737000
     21 S06        -0.1480   -2.5560   -1.1570 s4        1 IE4      2.111800
     22 H20        -0.1700    3.3030    5.3570 ha        1 IE4      0.163000
     23 H21         0.0060    1.9420    3.4510 ha        1 IE4      0.153000
     24 H19        -1.7090    5.1080    5.3950 ha        1 IE4      0.163000
     25 H11         0.9050    2.4870   -0.6000 DU        1 IE4      0.165333
     26 H10         1.7490    0.1220   -1.7410 DU        1 IE4      0.165333
     27 H18        -3.0140    5.4820    3.5210 hn        1 IE4      0.266000
     28 H15        -2.7350    2.8000   -0.5350 DU        1 IE4      0.165333
     29 H041        1.7670   -5.1030   -1.7360 h1        1 IE4      0.104500
     30 H042        0.6180   -4.5270   -2.6650 h1        1 IE4      0.104500
     31 H031        3.3790   -3.8730   -2.9130 h1        1 IE4      0.068000
     32 H032        2.2240   -3.2070   -3.8240 h1        1 IE4      0.068000
     33 H05         2.0500   -2.9410   -0.9030 hn        1 IE4      0.238000
     34 H021        2.2370   -4.8880   -5.0540 hn        1 IE4      0.147500
     35 H022        3.4510   -5.3840   -4.3430 hn        1 IE4      0.147500
@<TRIPOS>BOND
     1    1    5 1   
     2    1   22 1   
     3    2    7 1   
     4    2   23 1   
     5    3    4 1   
     6    3    9 1   
     7    4   11 1   
     8    5   24 1   
     9    6    8 1   
    10    6   15 1   
    11    9   20 1   
    12   10   14 1   
    13   11   20 1   
    14   12   13 1   
    15   12   16 1   
    16   12   29 1   
    17   12   30 1   
    18   13   17 1   
    19   13   31 1   
    20   13   32 1   
    21   14   27 1   
    22   16   21 1   
    23   16   33 1   
    24   17   34 1   
    25   17   35 1   
    26   18   21 1   
    27   19   21 1   
@<TRIPOS>SUBSTRUCTURE
     1 IE4         1 TEMP              0 ****  ****    0 ROOT
