@<TRIPOS>MOLECULE
IE4
   35    37     1     0     0
SMALL
bcc


@<TRIPOS>ATOM
      1 C20         4.3420   -1.9750    1.1850 cc        1 IE4     -0.206000
      2 C21         3.1940   -1.2270    0.8440 cc        1 IE4     -0.018000
      3 C11         0.2900    2.0340   -0.9020 cc        1 IE4     -0.211000
      4 C10        -1.0630    1.8740   -0.5520 cc        1 IE4     -0.011000
      5 C19         5.5880   -1.6380    0.6740 cd        1 IE4     -0.051300
      6 C15         3.3160    1.6610   -1.3830 cc        1 IE4      0.120600
      7 C22         3.3330   -0.1580   -0.0060 cd        1 IE4     -0.111800
      8 C14         2.4730    0.8400   -0.5920 cd        1 IE4     -0.147400
      9 C12         1.0730    0.9790   -0.4130 cd        1 IE4      0.022100
     10 C17         4.6890    0.1850   -0.5400 cd        1 IE4      0.007700
     11 C09        -1.2970    0.7050    0.1890 cd        1 IE4     -0.512600
     12 C04        -3.4040   -1.9990   -0.5140 c3        1 IE4      0.226800
     13 C03        -4.8000   -2.6400   -0.7100 c3        1 IE4      0.143800
     14 N18         5.7720   -0.5800   -0.1740 na        1 IE4     -0.116100
     15 N16         4.6430    1.2820   -1.3650 nc        1 IE4     -0.345600
     16 N05        -3.4440   -0.5710   -0.4570 n3        1 IE4     -0.916100
     17 N02        -4.7170   -4.0740   -0.8420 n3        1 IE4     -0.915800
     18 O07        -2.7120   -0.4280    1.9150 o         1 IE4     -0.661800
     19 O08        -3.5750    1.5290    0.8080 o         1 IE4     -0.661800
     20 S13         0.1290   -0.1070    0.4190 ss        1 IE4      0.194200
     21 S06        -2.8180    0.3380    0.7320 sy        1 IE4      1.560200
     22 H20         4.2560   -2.8350    1.8640 ha        1 IE4      0.160000
     23 H21         2.2130   -1.5060    1.2630 ha        1 IE4      0.153000
     24 H19         6.4960   -2.2130    0.9310 h4        1 IE4      0.166000
     25 H11         0.6800    2.8780   -1.4740 ha        1 IE4      0.159000
     26 H10        -1.8500    2.5930   -0.8080 ha        1 IE4      0.171000
     27 H18         6.6810   -0.3570   -0.5240 hn        1 IE4      0.315700
     28 H15         3.0080    2.5270   -1.9780 h4        1 IE4      0.173000
     29 H041       -2.9610   -2.3910    0.4480 h1        1 IE4      0.054200
     30 H042       -2.7350   -2.3220   -1.3650 h1        1 IE4      0.054200
     31 H031       -5.4330   -2.4140    0.1950 h1        1 IE4      0.031700
     32 H032       -5.2990   -2.1520   -1.5990 h1        1 IE4      0.031700
     33 H05        -3.9040   -0.1520   -1.2290 hn        1 IE4      0.441800
     34 H021       -5.6320   -4.4690   -0.9170 hn        1 IE4      0.351300
     35 H022       -4.1760   -4.3330   -1.6420 hn        1 IE4      0.351300
@<TRIPOS>BOND
     1    1    2 1   
     2    1    5 2   
     3    1   22 1   
     4    2    7 2   
     5    2   23 1   
     6    3    4 1   
     7    3    9 2   
     8    3   25 1   
     9    4   11 2   
    10    4   26 1   
    11    5   14 1   
    12    5   24 1   
    13    6    8 2   
    14    6   15 1   
    15    6   28 1   
    16    7    8 1   
    17    7   10 1   
    18    8    9 1   
    19    9   20 1   
    20   10   14 1   
    21   10   15 2   
    22   11   20 1   
    23   11   21 1   
    24   12   13 1   
    25   12   16 1   
    26   12   29 1   
    27   12   30 1   
    28   13   17 1   
    29   13   31 1   
    30   13   32 1   
    31   14   27 1   
    32   16   21 1   
    33   16   33 1   
    34   17   34 1   
    35   17   35 1   
    36   18   21 2   
    37   19   21 2   
@<TRIPOS>SUBSTRUCTURE
     1 IE4         1 TEMP              0 ****  ****    0 ROOT
