@<TRIPOS>MOLECULE
IE4
   37    38     1     0     0
SMALL
bcc


@<TRIPOS>ATOM
      1 C20        -0.3450    1.0220    1.7070 cc        1 IE4     -0.153000
      2 C21         0.9630    0.7570    1.2580 cc        1 IE4     -0.014000
      3 C11         5.4640   -0.7880    1.0940 cc        1 IE4     -0.172000
      4 C10         6.2050   -0.4470    0.0090 cc        1 IE4     -0.006000
      5 C19        -0.7920    0.5370    2.9340 cd        1 IE4     -0.033300
      6 C15         3.3490   -1.2210    3.2580 cc        1 IE4      0.195600
      7 C22         1.7920    0.0040    2.0640 cd        1 IE4     -0.094800
      8 C14         3.1610   -0.4780    2.0010 cd        1 IE4     -0.192400
      9 C12         4.1010   -0.2960    1.0240 cd        1 IE4      0.152100
     10 C17         1.2850   -0.4900    3.3530 cd        1 IE4      0.052700
     11 C09         5.4810    0.3320   -0.9990 cd        1 IE4     -0.775600
     12 C04         5.9780   -0.1070   -5.6770 c3        1 IE4      0.139800
     13 C03         6.7030   -0.5110   -6.9860 c3        1 IE4      0.045800
     14 N18         0.0110   -0.2130    3.7530 na        1 IE4     -0.064100
     15 N16         2.2730   -1.2360    4.0460 nc        1 IE4     -0.276600
     16 N05         6.3580   -0.8650   -4.5190 n8        1 IE4     -0.954800
     17 N02         6.3450    0.3690   -8.1300 nz        1 IE4     -0.830600
     18 O07         5.4800    1.5640   -3.1410 o         1 IE4     -0.470400
     19 O08         7.4860    0.6010   -2.3970 o         1 IE4     -0.470400
     20 S13         3.8870    0.5230   -0.4160 ss        1 IE4      0.104200
     21 S06         6.1520    0.8240   -2.2100 s4        1 IE4      1.714300
     22 H20        -1.0340    1.6220    1.0900 ha        1 IE4      0.191000
     23 H21         1.3040    1.1510    0.2860 ha        1 IE4      0.163000
     24 H19        -1.8190    0.7360    3.3060 h4        1 IE4      0.208000
     25 H11         5.8330   -1.3640    1.9500 ha        1 IE4      0.189000
     26 H10         7.2640   -0.7050   -0.1360 ha        1 IE4      0.188000
     27 H18        -0.3280   -0.5520    4.6390 hn        1 IE4      0.351700
     28 H15         4.2770   -1.7290    3.5550 h4        1 IE4      0.202000
     29 H041        4.8650   -0.2180   -5.8250 h1        1 IE4      0.089200
     30 H042        6.1930    0.9810   -5.4540 h1        1 IE4      0.089200
     31 H031        6.4340   -1.5710   -7.2680 hx        1 IE4      0.117700
     32 H032        7.8220   -0.4510   -6.8450 hx        1 IE4      0.117700
     33 H05         6.0170   -1.8070   -4.5560 hn        1 IE4      0.393300
     34 H021        6.5950    1.3430   -7.9210 hn        1 IE4      0.469467
     35 H022        6.8500    0.0700   -8.9730 hn        1 IE4      0.469467
     36 H052        7.3540   -0.8690   -4.3800 hn        1 IE4      0.393300
     37 H023        5.3360    0.3240   -8.3140 hn        1 IE4      0.469467
@<TRIPOS>BOND
     1    1    2 1   
     2    1    5 2   
     3    1   22 1   
     4    2    7 2   
     5    2   23 1   
     6    3    4 1   
     7    3    9 2   
     8    3   25 1   
     9    4   11 2   
    10    4   26 1   
    11    5   14 1   
    12    5   24 1   
    13    6    8 2   
    14    6   15 1   
    15    6   28 1   
    16    7    8 1   
    17    7   10 1   
    18    8    9 1   
    19    9   20 1   
    20   10   14 1   
    21   10   15 2   
    22   11   20 1   
    23   11   21 1   
    24   12   13 1   
    25   12   16 1   
    26   12   29 1   
    27   12   30 1   
    28   13   17 1   
    29   13   31 1   
    30   13   32 1   
    31   14   27 1   
    32   16   33 1   
    33   16   36 1   
    34   17   34 1   
    35   17   35 1   
    36   17   37 1   
    37   18   21 1   
    38   19   21 1   
@<TRIPOS>SUBSTRUCTURE
     1 IE4         1 TEMP              0 ****  ****    0 ROOT
