@<TRIPOS>MOLECULE
IE6
   40    41     1     0     0
SMALL
bcc


@<TRIPOS>ATOM
      1 C12        -1.0910    0.3610   -0.4000 cc        1 IE6     -0.155000
      2 C13         0.1950    0.7710   -0.1870 cc        1 IE6     -0.004000
      3 C06        -3.8540   -0.8240   -0.2460 ca        1 IE6     -0.156300
      4 C03        -2.6610   -2.1280    3.1260 cc        1 IE6     -0.259200
      5 C07        -5.1270   -1.4130   -0.1220 ca        1 IE6      0.389200
      6 C04        -3.2830   -1.7330    1.9080 ca        1 IE6     -0.144100
      7 C05        -2.9000   -0.9770    0.7810 ca        1 IE6     -0.061000
      8 C11        -1.6000   -0.4050    0.7060 cd        1 IE6      0.085900
      9 C02        -3.5990   -2.9040    3.8470 cd        1 IE6      0.064700
     10 C09        -4.6370   -2.3000    1.9200 ca        1 IE6      0.415800
     11 C14         0.7440    0.3420    1.0990 cd        1 IE6     -0.818600
     12 C01        -3.3990   -3.5330    5.1670 c3        1 IE6     -0.076900
     13 C20         4.9870    3.8660    3.4060 c3        1 IE6      0.163800
     14 C21         6.5370    3.9200    3.5260 c3        1 IE6      0.033800
     15 N08        -5.5450   -2.1450    0.9270 nb        1 IE6     -0.571000
     16 N10        -4.7830   -3.0070    3.1290 na        1 IE6     -0.255100
     17 N19         4.4710    2.6870    2.7910 n3        1 IE6     -0.935800
     18 N22         7.0190    5.1750    4.1630 n4        1 IE6     -0.829600
     19 O17         2.6460    0.2900    2.6720 o         1 IE6     -0.445400
     20 O18         2.9260    1.3940    0.6340 o         1 IE6     -0.445400
     21 S15        -0.4740   -0.5430    1.8800 ss        1 IE6      0.361200
     22 S16         2.1310    0.6870    1.4800 s4        1 IE6      1.721300
     23 H12        -1.6760    0.5790   -1.3020 ha        1 IE6      0.204000
     24 H13         0.7920    1.3650   -0.8940 ha        1 IE6      0.196000
     25 H06        -3.6200   -0.2460   -1.1520 ha        1 IE6      0.158000
     26 H07        -5.8780   -1.2930   -0.9290 h4        1 IE6      0.060100
     27 H03        -1.6560   -1.9010    3.4740 ha        1 IE6      0.152000
     28 H011       -2.3730   -3.2970    5.5440 hc        1 IE6      0.081700
     29 H012       -3.5070   -4.6460    5.0970 hc        1 IE6      0.081700
     30 H013       -4.1490   -3.1530    5.9080 hc        1 IE6      0.081700
     31 H10        -5.6000   -3.4980    3.4060 hn        1 IE6      0.339700
     32 H201        4.5450    3.9460    4.4410 h1        1 IE6      0.078200
     33 H202        4.6440    4.7550    2.8010 h1        1 IE6      0.078200
     34 H211        7.0050    3.8530    2.5010 hx        1 IE6      0.114200
     35 H212        6.9060    3.0540    4.1480 hx        1 IE6      0.114200
     36 H19         4.6580    1.8550    3.3170 hn        1 IE6      0.390300
     37 H221        6.7230    5.9890    3.6130 hn        1 IE6      0.467467
     38 H222        8.0440    5.1680    4.2220 hn        1 IE6      0.467467
     39 H192        4.7590    2.5830    1.8380 hn        1 IE6      0.390300
     40 H223        6.6330    5.2630    5.1100 hn        1 IE6      0.467467
@<TRIPOS>BOND
     1    1    2 1   
     2    1    8 2   
     3    1   23 1   
     4    2   11 2   
     5    2   24 1   
     6    3    5 ar  
     7    3    7 ar  
     8    3   25 1   
     9    4    6 1   
    10    4    9 2   
    11    4   27 1   
    12    5   15 ar  
    13    5   26 1   
    14    6    7 ar  
    15    6   10 ar  
    16    7    8 1   
    17    8   21 1   
    18    9   12 1   
    19    9   16 1   
    20   10   15 ar  
    21   10   16 1   
    22   11   21 1   
    23   11   22 1   
    24   12   28 1   
    25   12   29 1   
    26   12   30 1   
    27   13   14 1   
    28   13   17 1   
    29   13   32 1   
    30   13   33 1   
    31   14   18 1   
    32   14   34 1   
    33   14   35 1   
    34   16   31 1   
    35   17   36 1   
    36   17   39 1   
    37   18   37 1   
    38   18   38 1   
    39   18   40 1   
    40   19   22 1   
    41   20   22 1   
@<TRIPOS>SUBSTRUCTURE
     1 IE6         1 TEMP              0 ****  ****    0 ROOT
