@<TRIPOS>MOLECULE
IE6
   40    41     1     0     0
SMALL
bcc


@<TRIPOS>ATOM
      1 C12        -1.1540    0.4090   -0.3660 cc        1 IE6     -0.155000
      2 C13         0.1430    0.7990   -0.1780 cc        1 IE6     -0.004000
      3 C06        -3.9300   -0.7360   -0.1620 ca        1 IE6     -0.156300
      4 C03        -2.6830   -2.0900    3.1710 cc        1 IE6     -0.259200
      5 C07        -5.2080   -1.3080   -0.0160 ca        1 IE6      0.389200
      6 C04        -3.3250   -1.6740    1.9700 ca        1 IE6     -0.144100
      7 C05        -2.9560   -0.9130    0.8420 ca        1 IE6     -0.061000
      8 C11        -1.6490   -0.3600    0.7430 cd        1 IE6      0.085900
      9 C02        -3.6160   -2.8580    3.9050 cd        1 IE6      0.064700
     10 C09        -4.6870   -2.2210    2.0070 ca        1 IE6      0.415800
     11 C14         0.7130    0.3490    1.0920 cd        1 IE6     -0.818600
     12 C01        -3.3970   -3.5020    5.2150 c3        1 IE6     -0.076900
     13 C20         5.0630    3.7860    3.3330 c3        1 IE6      0.163800
     14 C21         6.6160    3.8150    3.4170 c3        1 IE6      0.033800
     15 N08        -5.6140   -2.0440    1.0360 nb        1 IE6     -0.571000
     16 N10        -4.8170   -2.9380    3.2130 na        1 IE6     -0.255100
     17 N19         4.5140    2.6210    2.7200 n8        1 IE6     -0.935800
     18 N22         7.1320    5.0560    4.0550 nz        1 IE6     -0.829600
     19 O17         2.6480    0.2540    2.6210 o         1 IE6     -0.445400
     20 O18         2.9000    1.3730    0.5870 o         1 IE6     -0.445400
     21 S15        -0.5000   -0.5250    1.8910 ss        1 IE6      0.361200
     22 S16         2.1140    0.6710    1.4440 s4        1 IE6      1.721300
     23 H12        -1.7560    0.6440   -1.2540 ha        1 IE6      0.204000
     24 H13         0.7330    1.3900   -0.8930 ha        1 IE6      0.196000
     25 H06        -3.7080   -0.1530   -1.0680 ha        1 IE6      0.158000
     26 H07        -5.9750   -1.1700   -0.8050 h4        1 IE6      0.060100
     27 H03        -1.6670   -1.8800    3.4980 ha        1 IE6      0.152000
     28 H011       -2.3600   -3.2840    5.5720 hc        1 IE6      0.081700
     29 H012       -3.5210   -4.6140    5.1370 hc        1 IE6      0.081700
     30 H013       -4.1250   -3.1200    5.9750 hc        1 IE6      0.081700
     31 H10        -5.6350   -3.4190    3.5030 hn        1 IE6      0.339700
     32 H201        4.6470    3.8640    4.3790 h1        1 IE6      0.078200
     33 H202        4.7210    4.6870    2.7450 h1        1 IE6      0.078200
     34 H211        7.0600    3.7510    2.3820 hx        1 IE6      0.114200
     35 H212        6.9860    2.9380    4.0230 hx        1 IE6      0.114200
     36 H19         4.7000    1.7820    3.2330 hn        1 IE6      0.390300
     37 H221        6.8380    5.8800    3.5190 hn        1 IE6      0.467467
     38 H222        8.1580    5.0320    4.0900 hn        1 IE6      0.467467
     39 H192        4.7790    2.5220    1.7590 hn        1 IE6      0.390300
     40 H223        6.7690    5.1420    5.0110 hn        1 IE6      0.467467
@<TRIPOS>BOND
     1    1    2 1   
     2    1    8 2   
     3    1   23 1   
     4    2   11 2   
     5    2   24 1   
     6    3    5 ar  
     7    3    7 ar  
     8    3   25 1   
     9    4    6 1   
    10    4    9 2   
    11    4   27 1   
    12    5   15 ar  
    13    5   26 1   
    14    6    7 ar  
    15    6   10 ar  
    16    7    8 1   
    17    8   21 1   
    18    9   12 1   
    19    9   16 1   
    20   10   15 ar  
    21   10   16 1   
    22   11   21 1   
    23   11   22 1   
    24   12   28 1   
    25   12   29 1   
    26   12   30 1   
    27   13   14 1   
    28   13   17 1   
    29   13   32 1   
    30   13   33 1   
    31   14   18 1   
    32   14   34 1   
    33   14   35 1   
    34   16   31 1   
    35   17   36 1   
    36   17   39 1   
    37   18   37 1   
    38   18   38 1   
    39   18   40 1   
    40   19   22 1   
    41   20   22 1   
@<TRIPOS>SUBSTRUCTURE
     1 IE6         1 TEMP              0 ****  ****    0 ROOT
