@<TRIPOS>MOLECULE
IE6
   38    40     1     0     0
SMALL
bcc


@<TRIPOS>ATOM
      1 C12         0.2350   -0.8920   -2.5210 cc        1 IE6     -0.174000
      2 C13        -1.1230   -0.5340   -2.4190 cc        1 IE6     -0.034000
      3 C06         3.0640   -1.6970   -1.8910 ca        1 IE6     -0.248300
      4 C03         2.7290    0.9480    0.8240 cc        1 IE6     -0.197200
      5 C07         4.4420   -1.9070   -1.6410 ca        1 IE6      0.410200
      6 C04         3.0530   -0.0650   -0.1440 ca        1 IE6     -0.193100
      7 C05         2.3470   -0.7650   -1.1390 ca        1 IE6      0.058000
      8 C11         0.9400   -0.5350   -1.3640 cd        1 IE6     -0.067100
      9 C02         3.8960    1.2400    1.5360 cd        1 IE6     -0.032300
     10 C09         4.4710   -0.3610    0.0270 ca        1 IE6      0.428800
     11 C14        -1.4240    0.0810   -1.1920 cd        1 IE6     -0.505600
     12 C01         4.0590    2.2160    2.6290 c3        1 IE6     -0.050900
     13 C20        -3.7280   -0.7740    1.3230 c3        1 IE6      0.223800
     14 C21        -5.1690   -1.0260    1.8290 c3        1 IE6      0.145800
     15 N08         5.1680   -1.2750   -0.7130 nb        1 IE6     -0.661000
     16 N10         4.9540    0.4500    1.0640 na        1 IE6     -0.284100
     17 N19        -3.6490   -0.6360   -0.1000 n3        1 IE6     -0.918100
     18 N22        -5.2050   -1.2230    3.2570 n3        1 IE6     -0.915800
     19 O17        -2.9040    1.7350   -0.0340 o         1 IE6     -0.656800
     20 O18        -3.6460    0.7720   -2.1130 o         1 IE6     -0.656800
     21 S15        -0.0630    0.1970   -0.2710 ss        1 IE6      0.291200
     22 S16        -2.9730    0.6100   -0.8820 sy        1 IE6      1.556200
     23 H12         0.6750   -1.3720   -3.3970 ha        1 IE6      0.163000
     24 H13        -1.8620   -0.6930   -3.2140 ha        1 IE6      0.176000
     25 H06         2.5690   -2.2800   -2.6790 ha        1 IE6      0.146000
     26 H07         5.0000   -2.6480   -2.2440 h4        1 IE6      0.025100
     27 H03         1.7570    1.4160    0.9690 ha        1 IE6      0.161000
     28 H011        4.3900    1.7100    3.5710 hc        1 IE6      0.058700
     29 H012        4.8180    2.9940    2.3600 hc        1 IE6      0.058700
     30 H013        3.0820    2.7240    2.8220 hc        1 IE6      0.058700
     31 H10         5.8840    0.4710    1.3900 hn        1 IE6      0.311700
     32 H201       -3.3380    0.1710    1.8040 h1        1 IE6      0.056200
     33 H202       -3.0710   -1.6320    1.6530 h1        1 IE6      0.056200
     34 H211       -5.8020   -0.1260    1.5900 h1        1 IE6      0.031700
     35 H212       -5.6020   -1.9020    1.2600 h1        1 IE6      0.031700
     36 H19        -4.0640   -1.3870   -0.5980 hn        1 IE6      0.443800
     37 H221       -6.1490   -1.3230    3.5710 hn        1 IE6      0.353300
     38 H222       -4.6760   -2.0290    3.5260 hn        1 IE6      0.353300
@<TRIPOS>BOND
     1    1    2 1   
     2    1    8 2   
     3    1   23 1   
     4    2   11 2   
     5    2   24 1   
     6    3    5 ar  
     7    3    7 ar  
     8    3   25 1   
     9    4    6 1   
    10    4    9 2   
    11    4   27 1   
    12    5   15 ar  
    13    5   26 1   
    14    6    7 ar  
    15    6   10 ar  
    16    7    8 1   
    17    8   21 1   
    18    9   12 1   
    19    9   16 1   
    20   10   15 ar  
    21   10   16 1   
    22   11   21 1   
    23   11   22 1   
    24   12   28 1   
    25   12   29 1   
    26   12   30 1   
    27   13   14 1   
    28   13   17 1   
    29   13   32 1   
    30   13   33 1   
    31   14   18 1   
    32   14   34 1   
    33   14   35 1   
    34   16   31 1   
    35   17   22 1   
    36   17   36 1   
    37   18   37 1   
    38   18   38 1   
    39   19   22 2   
    40   20   22 2   
@<TRIPOS>SUBSTRUCTURE
     1 IE6         1 TEMP              0 ****  ****    0 ROOT
