@<TRIPOS>MOLECULE
IE6
   40    41     1     0     0
SMALL
bcc


@<TRIPOS>ATOM
      1 C12        -1.1490    0.3980   -0.3690 cc        1 IE6     -0.155000
      2 C13         0.1440    0.7980   -0.1800 cc        1 IE6     -0.004000
      3 C06        -3.9150   -0.7700   -0.1660 ca        1 IE6     -0.156300
      4 C03        -2.6570   -2.1200    3.1640 cc        1 IE6     -0.259200
      5 C07        -5.1890   -1.3530   -0.0210 ca        1 IE6      0.389200
      6 C04        -3.3030   -1.7070    1.9640 ca        1 IE6     -0.144100
      7 C05        -2.9400   -0.9410    0.8370 ca        1 IE6     -0.061000
      8 C11        -1.6380   -0.3770    0.7400 cd        1 IE6      0.085900
      9 C02        -3.5840   -2.8980    3.8970 cd        1 IE6      0.064700
     10 C09        -4.6600   -2.2650    2.0000 ca        1 IE6      0.415800
     11 C14         0.7190    0.3500    1.0900 cd        1 IE6     -0.818600
     12 C01        -3.3600   -3.5420    5.2050 c3        1 IE6     -0.076900
     13 C20         5.0270    3.8270    3.3410 c3        1 IE6      0.163800
     14 C21         6.5790    3.8720    3.4300 c3        1 IE6      0.033800
     15 N08        -5.5890   -2.0930    1.0300 nb        1 IE6     -0.571000
     16 N10        -4.7850   -2.9850    3.2040 na        1 IE6     -0.255100
     17 N19         4.4920    2.6560    2.7250 n3        1 IE6     -0.935800
     18 N22         7.0790    5.1180    4.0700 n4        1 IE6     -0.829600
     19 O17         2.6540    0.2700    2.6200 o         1 IE6     -0.445400
     20 O18         2.8970    1.3940    0.5870 o         1 IE6     -0.445400
     21 S15        -0.4870   -0.5340    1.8880 ss        1 IE6      0.361200
     22 S16         2.1160    0.6840    1.4430 s4        1 IE6      1.721300
     23 H12        -1.7520    0.6290   -1.2560 ha        1 IE6      0.204000
     24 H13         0.7300    1.3950   -0.8930 ha        1 IE6      0.196000
     25 H06        -3.6980   -0.1840   -1.0710 ha        1 IE6      0.158000
     26 H07        -5.9570   -1.2190   -0.8100 h4        1 IE6      0.060100
     27 H03        -1.6430   -1.9030    3.4920 ha        1 IE6      0.152000
     28 H011       -4.0900   -3.1650    5.9660 hc        1 IE6      0.081700
     29 H012       -3.4770   -4.6540    5.1260 hc        1 IE6      0.081700
     30 H013       -2.3240   -3.3170    5.5620 hc        1 IE6      0.081700
     31 H10        -5.5980   -3.4740    3.4940 hn        1 IE6      0.339700
     32 H201        4.6760    4.7240    2.7530 h1        1 IE6      0.078200
     33 H202        4.6060    3.8980    4.3860 h1        1 IE6      0.078200
     34 H211        7.0260    3.8140    2.3960 hx        1 IE6      0.114200
     35 H212        6.9560    2.9990    4.0360 hx        1 IE6      0.114200
     36 H19         4.7610    2.5610    1.7650 hn        1 IE6      0.390300
     37 H221        6.7130    5.1990    5.0260 hn        1 IE6      0.467467
     38 H222        6.7770    5.9400    3.5350 hn        1 IE6      0.467467
     39 H192        4.6860    1.8190    3.2380 hn        1 IE6      0.390300
     40 H223        8.1060    5.1060    4.1080 hn        1 IE6      0.467467
@<TRIPOS>BOND
     1    1    2 1   
     2    1    8 2   
     3    1   23 1   
     4    2   11 2   
     5    2   24 1   
     6    3    5 ar  
     7    3    7 ar  
     8    3   25 1   
     9    4    6 1   
    10    4    9 2   
    11    4   27 1   
    12    5   15 ar  
    13    5   26 1   
    14    6    7 ar  
    15    6   10 ar  
    16    7    8 1   
    17    8   21 1   
    18    9   12 1   
    19    9   16 1   
    20   10   15 ar  
    21   10   16 1   
    22   11   21 1   
    23   11   22 1   
    24   12   28 1   
    25   12   29 1   
    26   12   30 1   
    27   13   14 1   
    28   13   17 1   
    29   13   32 1   
    30   13   33 1   
    31   14   18 1   
    32   14   34 1   
    33   14   35 1   
    34   16   31 1   
    35   17   36 1   
    36   17   39 1   
    37   18   37 1   
    38   18   38 1   
    39   18   40 1   
    40   19   22 1   
    41   20   22 1   
@<TRIPOS>SUBSTRUCTURE
     1 IE6         1 TEMP              0 ****  ****    0 ROOT
