@<TRIPOS>MOLECULE
IE8
   51    55     1     0     0
SMALL
bcc


@<TRIPOS>ATOM
      1 C          -0.4710    0.4940    1.1390 c3        1 IE8      0.093800
      2 N          -1.7640    0.7350    0.4360 nz        1 IE8     -0.834600
      3 O           0.3310   -0.4690   -0.8580 os        1 IE8     -0.377900
      4 C1          0.7340    0.4540    0.1690 c3        1 IE8      0.190400
      5 N1          2.5220   -1.8230   -3.4360 nb        1 IE8     -0.661000
      6 O1          4.4940   -2.0940   -7.1710 os        1 IE8     -0.348800
      7 C2          1.1450   -0.4830   -1.9850 ca        1 IE8     -0.074200
      8 N2          2.4180    3.6540   -5.8470 na        1 IE8     -0.278100
      9 C3          1.8180   -1.6820   -2.3090 ca        1 IE8      0.430200
     10 N3          0.8860    3.5940   -7.8090 nb        1 IE8     -0.659000
     11 C4          2.6100   -0.7730   -4.3060 ca        1 IE8      0.547800
     12 C5          3.4060   -1.0000   -5.4980 cc        1 IE8     -0.322800
     13 C6          4.0980   -0.0220   -6.3170 cc        1 IE8     -0.231300
     14 C7          4.7400   -0.7240   -7.3140 cd        1 IE8      0.239600
     15 C8          3.6880   -2.2440   -6.0560 cd        1 IE8      0.316600
     16 C9          1.9500    0.4650   -4.0520 ca        1 IE8     -0.097100
     17 C10         1.2160    0.6000   -2.8630 ca        1 IE8     -0.106000
     18 C11         1.9610    1.5870   -4.9630 cc        1 IE8     -0.109400
     19 C12         2.7170    2.7590   -4.8260 cd        1 IE8     -0.087100
     20 C13         1.4570    3.0630   -6.6840 ca        1 IE8      0.417800
     21 C14        -0.0070    2.8020   -8.4090 ca        1 IE8      0.420200
     22 C15        -0.3800    1.5040   -7.9650 ca        1 IE8     -0.264300
     23 C16         0.2000    0.9710   -6.8240 ca        1 IE8     -0.049000
     24 C17         1.1430    1.7470   -6.1430 ca        1 IE8     -0.183100
     25 C18         1.9340    0.0080    0.9370 ca        1 IE8     -0.164300
     26 C19         2.8870    0.9520    1.3390 ca        1 IE8     -0.105000
     27 C20         4.0080    0.5450    2.0600 ca        1 IE8     -0.120000
     28 C21         4.1850   -0.8020    2.3780 ca        1 IE8     -0.090000
     29 C22         3.2400   -1.7460    1.9720 ca        1 IE8     -0.120000
     30 C23         2.1160   -1.3430    1.2530 ca        1 IE8     -0.105000
     31 H          -0.3080    1.3110    1.8970 hx        1 IE8      0.121200
     32 HA         -0.5470   -0.5020    1.6660 hx        1 IE8      0.121200
     33 HN         -2.5480    0.6270    1.0840 hn        1 IE8      0.464800
     34 HNA        -1.7820    1.6760    0.0340 hn        1 IE8      0.464800
     35 H1          0.9070    1.4670   -0.2920 h1        1 IE8      0.069700
     36 H3          1.7770   -2.5570   -1.6360 h4        1 IE8      0.037100
     37 H6          4.0930    1.0540   -6.1600 ha        1 IE8      0.171000
     38 H7          5.3720   -0.4680   -8.1590 h4        1 IE8      0.065100
     39 H8          3.4200   -3.2700   -5.8100 h4        1 IE8      0.070100
     40 H10         0.7010    1.5460   -2.6430 ha        1 IE8      0.134000
     41 H12         3.4610    3.0120   -4.0660 h4        1 IE8      0.174000
     42 H14        -0.4680    3.2250   -9.3220 h4        1 IE8      0.033100
     43 H15        -1.1210    0.9350   -8.5410 ha        1 IE8      0.150000
     44 H16        -0.0630   -0.0340   -6.4650 ha        1 IE8      0.142000
     45 H19         2.7610    2.0140    1.0790 ha        1 IE8      0.135500
     46 H20         4.7570    1.2880    2.3730 ha        1 IE8      0.153000
     47 H21         5.0740   -1.1220    2.9450 ha        1 IE8      0.155000
     48 H22         3.3850   -2.8110    2.2150 ha        1 IE8      0.153000
     49 H23         1.3800   -2.0870    0.9110 ha        1 IE8      0.135500
     50 HN3        -1.8540    0.0510   -0.3310 hn        1 IE8      0.464800
     51 HN2         2.8500    4.5280   -6.0050 hn        1 IE8      0.318700
@<TRIPOS>BOND
     1    1    2 1   
     2    1    4 1   
     3    1   31 1   
     4    1   32 1   
     5    2   33 1   
     6    2   34 1   
     7    2   50 1   
     8    3    4 1   
     9    3    7 1   
    10    4   25 1   
    11    4   35 1   
    12    5    9 ar  
    13    5   11 ar  
    14    6   14 1   
    15    6   15 1   
    16    7    9 ar  
    17    7   17 ar  
    18    8   19 1   
    19    8   20 1   
    20    8   51 1   
    21    9   36 1   
    22   10   20 ar  
    23   10   21 ar  
    24   11   12 1   
    25   11   16 ar  
    26   12   13 1   
    27   12   15 2   
    28   13   14 2   
    29   13   37 1   
    30   14   38 1   
    31   15   39 1   
    32   16   17 ar  
    33   16   18 1   
    34   17   40 1   
    35   18   19 2   
    36   18   24 1   
    37   19   41 1   
    38   20   24 ar  
    39   21   22 ar  
    40   21   42 1   
    41   22   23 ar  
    42   22   43 1   
    43   23   24 ar  
    44   23   44 1   
    45   25   26 ar  
    46   25   30 ar  
    47   26   27 ar  
    48   26   45 1   
    49   27   28 ar  
    50   27   46 1   
    51   28   29 ar  
    52   28   47 1   
    53   29   30 ar  
    54   29   48 1   
    55   30   49 1   
@<TRIPOS>SUBSTRUCTURE
     1 IE8         1 TEMP              0 ****  ****    0 ROOT
