@<TRIPOS>MOLECULE
IE8
   50    42     1     0     0
SMALL
bcc


@<TRIPOS>ATOM
      1 C          -0.1490    0.6400    4.1780 c3        1 IE8     -0.077000
      2 N           1.0150    0.6620    5.0760 n3        1 IE8     -0.350000
      3 O          -0.9740   -0.3630    2.1530 os        1 IE8     -0.207000
      4 C1          0.0630   -0.4350    3.1110 c3        1 IE8      0.063000
      5 N1          0.3390   -1.6330   -0.7610 n1        1 IE8     -0.117000
      6 O1          2.5410   -0.9800   -4.6930 os        1 IE8     -0.104000
      7 C2         -0.5280   -0.0400    0.8590 c2        1 IE8      0.016000
      8 N2          0.9420    3.6930   -2.9190 n2        1 IE8     -0.201000
      9 C3         -0.1190   -1.3560    0.5200 c1        1 IE8     -0.112000
     10 N3         -0.9270    4.6270   -4.3490 n1        1 IE8     -0.144000
     11 C4          0.3970   -0.6470   -1.6930 c1        1 IE8      0.049000
     12 C5          1.0540   -0.9210   -3.0450 c1        1 IE8     -0.134500
     13 C6          0.6020   -1.8230   -4.0050 c1        1 IE8     -0.134500
     14 C7          1.5190   -1.8560   -5.0150 c1        1 IE8     -0.084500
     15 C8          2.2470   -0.4080   -3.4760 c1        1 IE8     -0.084500
     16 C9         -0.0130    0.6740   -1.3560 c2        1 IE8     -0.027000
     17 C10        -0.4720    0.9520   -0.0720 c2        1 IE8     -0.110000
     18 C11        -0.0570    1.7730   -2.4440 c2        1 IE8     -0.111000
     19 C12         1.0830    2.5130   -2.2490 c1        1 IE8     -0.066000
     20 C13        -0.2880    3.6910   -3.5350 c1        1 IE8      0.025000
     21 C14        -2.1620    4.3630   -4.8500 c1        1 IE8     -0.050000
     22 C15        -2.7890    3.1620   -4.5540 c1        1 IE8     -0.125000
     23 C16        -2.1610    2.2370   -3.7520 c1        1 IE8     -0.125000
     24 C17        -0.9040    2.5040   -3.2410 c1        1 IE8     -0.105000
     25 C18         0.0540   -1.7770    3.7550 c2        1 IE8     -0.124000
     26 C19         1.2640   -2.4330    4.0460 c2        1 IE8     -0.125000
     27 C20         1.2440   -3.7130    4.5620 c1        1 IE8     -0.132000
     28 C21         0.0150   -4.3570    4.7950 c1        1 IE8     -0.125000
     29 C22        -1.1830   -3.7000    4.5030 c1        1 IE8     -0.125000
     30 C23        -1.1630   -2.4200    3.9870 c1        1 IE8     -0.105000
     31 H          -1.0020    0.4230    4.7210 h1        1 IE8      0.083000
     32 HA         -0.2500    1.5040    3.7550 h1        1 IE8      0.083000
     33 HN          1.4500    1.5020    5.0140 hn        1 IE8      0.151500
     34 HNA         0.7530    0.5260    5.9020 hn        1 IE8      0.151500
     35 H1          0.8680   -0.3010    2.6980 h1        1 IE8      0.114000
     36 HN2         1.5540    4.3650   -2.9540 DU        1 IE8      0.200200
     37 H3         -0.1640   -2.0980    1.2140 ha        1 IE8      0.172000
     38 H6         -0.2570   -2.3590   -3.9610 DU        1 IE8      0.200200
     39 H7          1.4640   -2.3950   -5.8160 DU        1 IE8      0.200200
     40 H8          2.8000    0.2600   -2.9990 DU        1 IE8      0.200200
     41 H10        -0.7650    1.8980    0.1730 ha        1 IE8      0.157000
     42 H12         1.8260    2.2650   -1.6910 DU        1 IE8      0.200200
     43 H14        -2.6110    5.0230   -5.4220 ha        1 IE8      0.159000
     44 H15        -3.6690    2.9730   -4.9120 ha        1 IE8      0.140000
     45 H16        -2.6080    1.3860   -3.5410 ha        1 IE8      0.140000
     46 H19         2.1110   -1.9880    3.8860 ha        1 IE8      0.140000
     47 H20         2.0810   -4.1710    4.7630 ha        1 IE8      0.135000
     48 H21        -0.0020   -5.3220    5.1850 ha        1 IE8      0.140000
     49 H22        -2.0630   -4.1580    4.6680 ha        1 IE8      0.140000
     50 H23        -2.0070   -1.9600    3.7820 ha        1 IE8      0.147000
@<TRIPOS>BOND
     1    1    2 1   
     2    1    4 1   
     3    1   31 1   
     4    1   32 1   
     5    2   33 1   
     6    2   34 1   
     7    3    4 1   
     8    3    7 1   
     9    4   25 1   
    10    4   35 1   
    11    5   11 1   
    12    6   14 1   
    13    6   15 1   
    14    7    9 1   
    15    7   17 1   
    16    8   19 1   
    17    8   20 1   
    18    9   37 1   
    19   10   21 1   
    20   11   16 1   
    21   12   13 1   
    22   12   15 1   
    23   13   14 1   
    24   16   17 1   
    25   16   18 1   
    26   17   41 1   
    27   18   19 1   
    28   18   24 1   
    29   20   24 1   
    30   21   43 1   
    31   22   23 1   
    32   22   44 1   
    33   23   45 1   
    34   25   26 1   
    35   25   30 1   
    36   26   27 1   
    37   26   46 1   
    38   27   47 1   
    39   28   29 1   
    40   28   48 1   
    41   29   49 1   
    42   30   50 1   
@<TRIPOS>SUBSTRUCTURE
     1 IE8         1 TEMP              0 ****  ****    0 ROOT
