@<TRIPOS>MOLECULE
IE8
   51    55     1     0     0
SMALL
bcc


@<TRIPOS>ATOM
      1 C          -0.7390    0.2220    0.7160 c3        1 IE8      0.093800
      2 N          -1.9810    0.2600   -0.1080 n4        1 IE8     -0.834600
      3 O           0.3580   -0.7260   -1.1450 os        1 IE8     -0.379900
      4 C1          0.5460    0.2900   -0.1440 c3        1 IE8      0.189400
      5 N1          2.9880   -1.9130   -3.3740 nb        1 IE8     -0.651000
      6 O1          5.6170   -1.8950   -6.7240 os        1 IE8     -0.350800
      7 C2          1.2860   -0.6980   -2.1810 ca        1 IE8     -0.064200
      8 N2          3.0580    3.0660   -6.4090 na        1 IE8     -0.273100
      9 C3          2.1630   -1.7950   -2.3290 ca        1 IE8      0.421200
     10 N3          0.9060    3.9740   -7.2730 nb        1 IE8     -0.650000
     11 C4          3.0010   -0.9350   -4.3240 ca        1 IE8      0.529800
     12 C5          3.8820   -1.1490   -5.4580 cc        1 IE8     -0.325800
     13 C6          3.6450   -0.7630   -6.8380 cc        1 IE8     -0.240300
     14 C7          4.7150   -1.2340   -7.5660 cd        1 IE8      0.238600
     15 C8          5.0850   -1.8440   -5.4460 cd        1 IE8      0.310600
     16 C9          2.1860    0.2320   -4.2170 ca        1 IE8     -0.081100
     17 C10         1.3030    0.3270   -3.1280 ca        1 IE8     -0.116000
     18 C11         2.2410    1.3330   -5.1440 cc        1 IE8     -0.123400
     19 C12         3.3940    2.0040   -5.5800 cd        1 IE8     -0.045100
     20 C13         1.6580    3.0990   -6.5400 ca        1 IE8      0.418800
     21 C14        -0.4120    3.7580   -7.2230 ca        1 IE8      0.416200
     22 C15        -1.0430    2.7190   -6.4870 ca        1 IE8     -0.266300
     23 C16        -0.2750    1.8370   -5.7430 ca        1 IE8     -0.067000
     24 C17         1.1120    2.0090   -5.7420 ca        1 IE8     -0.187100
     25 C18         1.7160    0.0420    0.7510 ca        1 IE8     -0.164300
     26 C19         2.5200    1.1150    1.1490 ca        1 IE8     -0.105000
     27 C20         3.6100    0.8930    1.9900 ca        1 IE8     -0.120500
     28 C21         3.9030   -0.3990    2.4300 ca        1 IE8     -0.091000
     29 C22         3.1070   -1.4720    2.0260 ca        1 IE8     -0.120500
     30 C23         2.0150   -1.2540    1.1880 ca        1 IE8     -0.105000
     31 H          -0.7490    1.0890    1.4340 hx        1 IE8      0.121200
     32 HA         -0.7380   -0.7490    1.2930 hx        1 IE8      0.121200
     33 HN         -2.8030    0.0880    0.4780 hn        1 IE8      0.464467
     34 HNA        -1.9170   -0.4690   -0.8350 hn        1 IE8      0.464467
     35 H1          0.6340    1.2940   -0.6500 h1        1 IE8      0.071700
     36 H3          2.1840   -2.6110   -1.5840 h4        1 IE8      0.037100
     37 H6          2.7770   -0.2170   -7.1990 ha        1 IE8      0.176000
     38 H7          5.0090   -1.2170   -8.6120 h4        1 IE8      0.066100
     39 H8          5.6750   -2.3390   -4.6770 h4        1 IE8      0.070100
     40 H10         0.6500    1.2070   -3.0330 ha        1 IE8      0.137000
     41 H12         4.4410    1.7830   -5.3510 h4        1 IE8      0.186000
     42 H14        -1.0240    4.4620   -7.8190 h4        1 IE8      0.034100
     43 H15        -2.1360    2.6220   -6.5310 ha        1 IE8      0.144000
     44 H16        -0.7330    1.0130   -5.1780 ha        1 IE8      0.128000
     45 H19         2.3040    2.1350    0.7950 ha        1 IE8      0.136500
     46 H20         4.2430    1.7380    2.3010 ha        1 IE8      0.153000
     47 H21         4.7670   -0.5720    3.0910 ha        1 IE8      0.155000
     48 H22         3.3440   -2.4920    2.3650 ha        1 IE8      0.153000
     49 H23         1.3980   -2.1000    0.8490 ha        1 IE8      0.136500
     50 HN3        -2.0760    1.1680   -0.5680 hn        1 IE8      0.464467
     51 HN2         3.6870    3.6800   -6.8600 hn        1 IE8      0.322700
@<TRIPOS>BOND
     1    1    2 1   
     2    1    4 1   
     3    1   31 1   
     4    1   32 1   
     5    2   33 1   
     6    2   34 1   
     7    2   50 1   
     8    3    4 1   
     9    3    7 1   
    10    4   25 1   
    11    4   35 1   
    12    5    9 ar  
    13    5   11 ar  
    14    6   14 1   
    15    6   15 1   
    16    7    9 ar  
    17    7   17 ar  
    18    8   19 1   
    19    8   20 1   
    20    8   51 1   
    21    9   36 1   
    22   10   20 ar  
    23   10   21 ar  
    24   11   12 1   
    25   11   16 ar  
    26   12   13 1   
    27   12   15 2   
    28   13   14 2   
    29   13   37 1   
    30   14   38 1   
    31   15   39 1   
    32   16   17 ar  
    33   16   18 1   
    34   17   40 1   
    35   18   19 2   
    36   18   24 1   
    37   19   41 1   
    38   20   24 ar  
    39   21   22 ar  
    40   21   42 1   
    41   22   23 ar  
    42   22   43 1   
    43   23   24 ar  
    44   23   44 1   
    45   25   26 ar  
    46   25   30 ar  
    47   26   27 ar  
    48   26   45 1   
    49   27   28 ar  
    50   27   46 1   
    51   28   29 ar  
    52   28   47 1   
    53   29   30 ar  
    54   29   48 1   
    55   30   49 1   
@<TRIPOS>SUBSTRUCTURE
     1 IE8         1 TEMP              0 ****  ****    0 ROOT
