@<TRIPOS>MOLECULE
IE8
   50    54     1     0     0
SMALL
bcc


@<TRIPOS>ATOM
      1 C           4.2980   -0.3970    2.6750 c3        1 IE8      0.163800
      2 N           3.7650   -0.4080    4.0120 n3        1 IE8     -0.917800
      3 O           2.5990   -1.4320    1.3900 os        1 IE8     -0.310900
      4 C1          3.2140   -0.1460    1.5980 c3        1 IE8      0.186400
      5 N1         -0.7180   -2.7480    0.8060 nb        1 IE8     -0.653000
      6 O1         -4.8080   -2.8140   -0.3860 os        1 IE8     -0.364800
      7 C2          1.2930   -1.4140    0.9550 ca        1 IE8      0.003800
      8 N2         -1.7040    2.1670   -2.4680 na        1 IE8     -0.288100
      9 C3          0.5410   -2.5920    1.2150 ca        1 IE8      0.390200
     10 N3         -3.3540    3.5620   -1.2310 nb        1 IE8     -0.672000
     11 C4         -1.3230   -1.7350    0.1150 ca        1 IE8      0.476800
     12 C5         -2.6910   -1.9790   -0.3140 cc        1 IE8     -0.283800
     13 C6         -3.3490   -1.4700   -1.5040 cc        1 IE8     -0.234300
     14 C7         -4.6220   -1.9970   -1.5060 cd        1 IE8      0.223600
     15 C8         -3.6140   -2.7950    0.3250 cd        1 IE8      0.284600
     16 C9         -0.6500   -0.5180   -0.1650 ca        1 IE8     -0.092100
     17 C10         0.6840   -0.3720    0.2580 ca        1 IE8     -0.154000
     18 C11        -1.2640    0.5980   -0.8510 cc        1 IE8     -0.079400
     19 C12        -0.9710    1.0260   -2.1500 cd        1 IE8     -0.092100
     20 C13        -2.4910    2.5090   -1.3560 ca        1 IE8      0.416800
     21 C14        -3.9700    3.6400   -0.0460 ca        1 IE8      0.412200
     22 C15        -3.7870    2.7380    1.0340 ca        1 IE8     -0.275300
     23 C16        -2.9120    1.6710    0.9030 ca        1 IE8     -0.039000
     24 C17        -2.2320    1.5260   -0.3100 ca        1 IE8     -0.178100
     25 C18         3.8550    0.3500    0.3350 ca        1 IE8     -0.126300
     26 C19         3.7680    1.7050   -0.0020 ca        1 IE8     -0.113000
     27 C20         4.3830    2.1790   -1.1600 ca        1 IE8     -0.132500
     28 C21         5.0810    1.3020   -1.9900 ca        1 IE8     -0.123000
     29 C22         5.1640   -0.0510   -1.6610 ca        1 IE8     -0.132500
     30 C23         4.5540   -0.5270   -0.5010 ca        1 IE8     -0.113000
     31 H           5.0970    0.3880    2.5240 h1        1 IE8      0.045200
     32 HA          4.7600   -1.4050    2.4690 h1        1 IE8      0.045200
     33 HN          4.4580   -0.7100    4.6650 hn        1 IE8      0.354300
     34 HNA         3.4200    0.4920    4.2770 hn        1 IE8      0.354300
     35 H1          2.4450    0.5910    1.9610 h1        1 IE8      0.064700
     36 H3          0.9960   -3.4310    1.7710 h4        1 IE8      0.039100
     37 H6         -2.9010   -0.7980   -2.2310 ha        1 IE8      0.167000
     38 H7         -5.4870   -1.9250   -2.1560 h4        1 IE8      0.052100
     39 H8         -3.6000   -3.4030    1.2240 h4        1 IE8      0.063100
     40 H10         1.2320    0.5560    0.0340 ha        1 IE8      0.152000
     41 H12        -0.2840    0.5870   -2.8770 h4        1 IE8      0.175000
     42 H14        -4.6700    4.4900    0.0590 h4        1 IE8      0.021100
     43 H15        -4.3470    2.8970    1.9650 ha        1 IE8      0.143000
     44 H16        -2.7540    0.9530    1.7210 ha        1 IE8      0.147000
     45 H19         3.2130    2.4000    0.6460 ha        1 IE8      0.139500
     46 H20         4.3150    3.2450   -1.4190 ha        1 IE8      0.134500
     47 H21         5.5660    1.6770   -2.9040 ha        1 IE8      0.133000
     48 H22         5.7100   -0.7460   -2.3170 ha        1 IE8      0.134500
     49 H23         4.6060   -1.5950   -0.2380 ha        1 IE8      0.139500
     50 HN2        -1.6770    2.6610   -3.3200 hn        1 IE8      0.310700
@<TRIPOS>BOND
     1    1    2 1   
     2    1    4 1   
     3    1   31 1   
     4    1   32 1   
     5    2   33 1   
     6    2   34 1   
     7    3    4 1   
     8    3    7 1   
     9    4   25 1   
    10    4   35 1   
    11    5    9 ar  
    12    5   11 ar  
    13    6   14 1   
    14    6   15 1   
    15    7    9 ar  
    16    7   17 ar  
    17    8   19 1   
    18    8   20 1   
    19    8   50 1   
    20    9   36 1   
    21   10   20 ar  
    22   10   21 ar  
    23   11   12 1   
    24   11   16 ar  
    25   12   13 1   
    26   12   15 2   
    27   13   14 2   
    28   13   37 1   
    29   14   38 1   
    30   15   39 1   
    31   16   17 ar  
    32   16   18 1   
    33   17   40 1   
    34   18   19 2   
    35   18   24 1   
    36   19   41 1   
    37   20   24 ar  
    38   21   22 ar  
    39   21   42 1   
    40   22   23 ar  
    41   22   43 1   
    42   23   24 ar  
    43   23   44 1   
    44   25   26 ar  
    45   25   30 ar  
    46   26   27 ar  
    47   26   45 1   
    48   27   28 ar  
    49   27   46 1   
    50   28   29 ar  
    51   28   47 1   
    52   29   30 ar  
    53   29   48 1   
    54   30   49 1   
@<TRIPOS>SUBSTRUCTURE
     1 IE8         1 TEMP              0 ****  ****    0 ROOT
