@<TRIPOS>MOLECULE
IEJ
   21    21     1     0     0
SMALL
bcc


@<TRIPOS>ATOM
      1 OAB         0.1240    0.1020    0.3430 o         1 IEJ     -0.568800
      2 SAD         1.4860    0.1440    0.1270 sy        1 IEJ      1.493200
      3 OAE         2.3680   -0.3120    1.0820 o         1 IEJ     -0.568800
      4 NAC         1.6440   -1.2900   -1.1580 nz        1 IEJ     -0.785500
      5 CAG         1.9870    1.3310   -0.8170 ca        1 IEJ     -0.563500
      6 CAF         3.3470    1.6920   -0.9980 ca        1 IEJ      0.092700
      7 CAH         1.0020    2.1320   -1.4560 ca        1 IEJ     -0.005000
      8 CAK         1.3410    3.2290   -2.2240 ca        1 IEJ     -0.147000
      9 CAJ         2.6910    3.5730   -2.3850 ca        1 IEJ      0.013000
     10 C           4.4340    0.9160   -0.3550 c3        1 IEJ     -0.107800
     11 CAI         3.6800    2.8040   -1.7770 ca        1 IEJ     -0.159000
     12 HAC1        2.2810   -2.0050   -0.8130 hn        1 IEJ      0.454467
     13 HAC2        1.9900   -0.9680   -2.0560 hn        1 IEJ      0.454467
     14 HAH        -0.0670    1.8790   -1.3140 ha        1 IEJ      0.172000
     15 HAI         4.7420    3.0790   -1.9040 ha        1 IEJ      0.175000
     16 HC1         4.4220    1.0770    0.7570 hc        1 IEJ      0.081033
     17 HC2         4.3190   -0.1810   -0.5430 hc        1 IEJ      0.081033
     18 HC3         5.4390    1.2300   -0.7370 hc        1 IEJ      0.081033
     19 HAK         0.5550    3.8380   -2.7020 ha        1 IEJ      0.178000
     20 HAJ         2.9680    4.4530   -2.9920 ha        1 IEJ      0.175000
     21 HAC3        0.7370   -1.7280   -1.3080 hn        1 IEJ      0.454467
@<TRIPOS>BOND
     1    1    2 2   
     2    2    3 2   
     3    2    4 1   
     4    2    5 1   
     5    4   12 1   
     6    4   13 1   
     7    4   21 1   
     8    5    6 ar  
     9    5    7 ar  
    10    6   10 1   
    11    6   11 ar  
    12    7    8 ar  
    13    7   14 1   
    14    8    9 ar  
    15    8   19 1   
    16    9   11 ar  
    17    9   20 1   
    18   10   16 1   
    19   10   17 1   
    20   10   18 1   
    21   11   15 1   
@<TRIPOS>SUBSTRUCTURE
     1 IEJ         1 TEMP              0 ****  ****    0 ROOT
