@<TRIPOS>MOLECULE
IEJ
   21    21     1     0     0
SMALL
bcc


@<TRIPOS>ATOM
      1 OAB         0.1050    0.0930    0.3060 o         1 IEJ     -0.568800
      2 SAD         1.4700    0.1390    0.1110 sy        1 IEJ      1.493200
      3 OAE         2.3390   -0.3180    1.0770 o         1 IEJ     -0.568800
      4 NAC         1.6500   -1.2910   -1.1760 n4        1 IEJ     -0.785500
      5 CAG         1.9820    1.3290   -0.8240 ca        1 IEJ     -0.563500
      6 CAF         3.3440    1.6930   -0.9840 ca        1 IEJ      0.092700
      7 CAH         1.0060    2.1310   -1.4740 ca        1 IEJ     -0.005000
      8 CAK         1.3540    3.2300   -2.2340 ca        1 IEJ     -0.147000
      9 CAJ         2.7050    3.5760   -2.3750 ca        1 IEJ      0.013000
     10 C           4.4240    0.9170   -0.3280 c3        1 IEJ     -0.107800
     11 CAI         3.6860    2.8080   -1.7550 ca        1 IEJ     -0.159000
     12 HAC1        2.2830   -2.0060   -0.8230 hn        1 IEJ      0.454467
     13 HAC2        2.0090   -0.9660   -2.0680 hn        1 IEJ      0.454467
     14 HAH        -0.0650    1.8750   -1.3480 ha        1 IEJ      0.172000
     15 HAI         4.7490    3.0850   -1.8660 ha        1 IEJ      0.175000
     16 HC1         4.3130   -0.1790   -0.5200 hc        1 IEJ      0.081033
     17 HC2         4.3960    1.0760    0.7840 hc        1 IEJ      0.081033
     18 HC3         5.4330    1.2340   -0.6950 hc        1 IEJ      0.081033
     19 HAK         0.5740    3.8390   -2.7220 ha        1 IEJ      0.178000
     20 HAJ         2.9890    4.4590   -2.9760 ha        1 IEJ      0.175000
     21 HAC3        0.7460   -1.7300   -1.3410 hn        1 IEJ      0.454467
@<TRIPOS>BOND
     1    1    2 2   
     2    2    3 2   
     3    2    4 1   
     4    2    5 1   
     5    4   12 1   
     6    4   13 1   
     7    4   21 1   
     8    5    6 ar  
     9    5    7 ar  
    10    6   10 1   
    11    6   11 ar  
    12    7    8 ar  
    13    7   14 1   
    14    8    9 ar  
    15    8   19 1   
    16    9   11 ar  
    17    9   20 1   
    18   10   16 1   
    19   10   17 1   
    20   10   18 1   
    21   11   15 1   
@<TRIPOS>SUBSTRUCTURE
     1 IEJ         1 TEMP              0 ****  ****    0 ROOT
