@<TRIPOS>MOLECULE
IEL
   29    28     1     0     0
SMALL
bcc


@<TRIPOS>ATOM
      1 O           4.9740   -0.1450    0.7130 o         1 IEL     -0.843800
      2 C           4.0240    0.3520    0.0440 c         1 IEL      0.887600
      3 OXT         4.0290    1.5110   -0.4550 o         1 IEL     -0.843800
      4 CA          2.7580   -0.5360   -0.2070 c3        1 IEL      0.017500
      5 N           2.8160   -1.8550    0.4120 n3        1 IEL     -0.891800
      6 CB          1.5260    0.2710    0.2020 c3        1 IEL     -0.063400
      7 CG'         0.2350   -0.3620   -0.2710 c3        1 IEL     -0.074400
      8 CG         -0.9520    0.5170    0.0650 c3        1 IEL     -0.089400
      9 CD         -2.2500   -0.1620   -0.3680 c3        1 IEL      0.183800
     10 NE         -3.4290    0.6230   -0.0850 nh        1 IEL     -0.866200
     11 CZ         -4.7000    0.0060   -0.1100 c2        1 IEL      0.607200
     12 NH1        -5.0350   -1.1000   -0.7040 n2        1 IEL     -0.855100
     13 CH2        -5.7860    0.8150    0.5840 c3        1 IEL     -0.140400
     14 HA          2.7110   -0.7100   -1.3220 h1        1 IEL      0.040700
     15 HN          3.7470   -2.2110    0.2620 hn        1 IEL      0.330300
     16 HNA         2.7190   -1.7430    1.4060 hn        1 IEL      0.330300
     17 HB          1.5000    0.3930    1.3160 hc        1 IEL      0.046700
     18 HBA         1.6410    1.2950   -0.2460 hc        1 IEL      0.046700
     19 HG'         0.2810   -0.5240   -1.3800 hc        1 IEL      0.039700
     20 HG'A        0.1070   -1.3690    0.2060 hc        1 IEL      0.039700
     21 HG         -0.9710    0.7130    1.1690 hc        1 IEL      0.042200
     22 HGA        -0.8440    1.5070   -0.4500 hc        1 IEL      0.042200
     23 HD         -2.2160   -0.3400   -1.4820 h1        1 IEL      0.035700
     24 HDA        -2.3070   -1.1740    0.1320 h1        1 IEL      0.035700
     25 HNE        -3.3100    1.3050    0.6310 hn        1 IEL      0.401800
     26 HNH1       -4.2990   -1.6090   -1.1460 hn        1 IEL      0.384400
     27 HH2        -5.8430    1.8350    0.1330 hc        1 IEL      0.051700
     28 HH2A       -6.7820    0.3220    0.4790 hc        1 IEL      0.051700
     29 HH2B       -5.5480    0.9070    1.6720 hc        1 IEL      0.051700
@<TRIPOS>BOND
     1    1    2 1   
     2    2    3 1   
     3    2    4 1   
     4    4    5 1   
     5    4    6 1   
     6    4   14 1   
     7    5   15 1   
     8    5   16 1   
     9    6    7 1   
    10    6   17 1   
    11    6   18 1   
    12    7    8 1   
    13    7   19 1   
    14    7   20 1   
    15    8    9 1   
    16    8   21 1   
    17    8   22 1   
    18    9   10 1   
    19    9   23 1   
    20    9   24 1   
    21   10   11 1   
    22   10   25 1   
    23   11   12 2   
    24   11   13 1   
    25   12   26 1   
    26   13   27 1   
    27   13   28 1   
    28   13   29 1   
@<TRIPOS>SUBSTRUCTURE
     1 IEL         1 TEMP              0 ****  ****    0 ROOT
