@<TRIPOS>MOLECULE
IEM
   37    37     1     0     0
SMALL
bcc


@<TRIPOS>ATOM
      1 C1          1.3700   -3.3660   -0.0300 c         1 IEM      0.933800
      2 C2          0.3570   -2.2230    0.1980 ce        1 IEM      0.091900
      3 C3         -0.9650   -2.3920    0.3830 c2        1 IEM     -0.403200
      4 C4         -1.9010   -1.2760    0.6700 c3        1 IEM      0.193300
      5 C5         -1.2800    0.0730    0.1980 c3        1 IEM      0.045700
      6 C6          0.1860    0.0950    0.7120 c3        1 IEM      0.319900
      7 O7          0.8300    1.2250    0.1580 os        1 IEM     -0.422600
      8 C7          2.2040    1.3410    0.5410 c3        1 IEM      0.136400
      9 C8          2.7100    2.6570   -0.0470 c3        1 IEM     -0.069700
     10 C9          4.0260    3.0270    0.6000 c3        1 IEM     -0.088600
     11 C10         2.8560    2.5450   -1.5490 c3        1 IEM     -0.088600
     12 C12        -3.4650    3.2050    0.4570 c3        1 IEM     -0.176100
     13 N5         -2.0290    1.2160    0.6490 n         1 IEM     -0.547900
     14 O1A         2.1730   -3.5960    0.9090 o         1 IEM     -0.798800
     15 O1B         1.2860   -3.9870   -1.1170 o         1 IEM     -0.798800
     16 O4         -3.1680   -1.4640    0.0590 oh        1 IEM     -0.609800
     17 O6          0.9650   -0.9890    0.2170 os        1 IEM     -0.336900
     18 O11        -2.6690    1.9560   -1.4370 o         1 IEM     -0.616100
     19 H3         -1.4070   -3.3940    0.3340 ha        1 IEM      0.152000
     20 H4         -2.1410   -1.2310    1.7730 h1        1 IEM      0.050700
     21 H5         -1.2540    0.0870   -0.9320 h1        1 IEM      0.115700
     22 H6          0.2410    0.1020    1.8370 h2        1 IEM      0.032700
     23 H71         2.7830    0.4690    0.1400 h1        1 IEM      0.044700
     24 H72         2.2760    1.3540    1.6610 h1        1 IEM      0.044700
     25 H8          1.9500    3.4570    0.1790 hc        1 IEM      0.049700
     26 H91         4.4200    3.9740    0.1590 hc        1 IEM      0.033367
     27 H92         3.8960    3.1740    1.6990 hc        1 IEM      0.033367
     28 H93         4.7820    2.2200    0.4390 hc        1 IEM      0.033367
     29 H101        1.8870    2.2170   -1.9970 hc        1 IEM      0.033367
     30 H102        3.1450    3.5300   -1.9870 hc        1 IEM      0.033367
     31 H103        3.6390    1.7940   -1.8130 hc        1 IEM      0.033367
     32 H121       -2.7820    3.8490    1.0600 hc        1 IEM      0.056367
     33 H122       -3.9360    3.8240   -0.3440 hc        1 IEM      0.056367
     34 H123       -4.2660    2.7990    1.1190 hc        1 IEM      0.056367
     35 HN5        -2.1340    1.3260    1.6280 hn        1 IEM      0.298500
     36 HO4        -3.0050   -1.6980   -0.8630 ho        1 IEM      0.408000
     37 C11        -2.6940    2.0770   -0.1950 c         1 IEM      0.668100
@<TRIPOS>BOND
     1    1    2 1   
     2    1   14 1   
     3    1   15 1   
     4    2    3 2   
     5    2   17 1   
     6    3    4 1   
     7    3   19 1   
     8    4    5 1   
     9    4   16 1   
    10    4   20 1   
    11    5    6 1   
    12    5   13 1   
    13    5   21 1   
    14    6    7 1   
    15    6   17 1   
    16    6   22 1   
    17    7    8 1   
    18    8    9 1   
    19    8   23 1   
    20    8   24 1   
    21    9   10 1   
    22    9   11 1   
    23    9   25 1   
    24   10   26 1   
    25   10   27 1   
    26   10   28 1   
    27   11   29 1   
    28   11   30 1   
    29   11   31 1   
    30   12   32 1   
    31   12   33 1   
    32   12   34 1   
    33   12   37 1   
    34   13   35 1   
    35   13   37 1   
    36   16   36 1   
    37   18   37 2   
@<TRIPOS>SUBSTRUCTURE
     1 IEM         1 TEMP              0 ****  ****    0 ROOT
