@<TRIPOS>MOLECULE
IEM
   37    34     1     0     0
SMALL
bcc


@<TRIPOS>ATOM
      1 C1         -4.2130   -0.7950    1.4820 c1        1 IEM      0.384000
      2 C2         -2.7000   -0.7950    1.4820 c1        1 IEM      0.067000
      3 C3         -1.8460   -0.7950    2.9630 c1        1 IEM     -0.399000
      4 C4         -0.3960   -0.8620    2.8340 c2        1 IEM      0.078000
      5 C5          0.1270   -0.1100    1.4710 c3        1 IEM     -0.031000
      6 C6         -0.4720   -0.4560    0.3950 c3        1 IEM      0.137000
      7 O7          0.0870    0.3510   -0.7290 os        1 IEM     -0.279000
      8 C7         -0.5190    0.0920   -1.9740 c3        1 IEM     -0.014000
      9 C8          0.2100    0.8540   -3.0580 c3        1 IEM     -0.109000
     10 C9         -0.6710    1.9740   -3.5670 c3        1 IEM     -0.206500
     11 C10         0.5420   -0.0840   -4.1980 c3        1 IEM     -0.206500
     12 C11         2.5800    0.4420    1.9040 c1        1 IEM      0.312000
     13 C12         4.0540    0.1370    1.7520 c2        1 IEM     -0.244000
     14 N5          1.6150   -0.4080    1.3050 n3        1 IEM     -0.357000
     15 O1A        -4.8430    0.2850    1.6290 o         1 IEM     -0.533500
     16 O1B        -4.8430   -1.8760    1.3400 o         1 IEM     -0.533500
     17 O4          0.2720   -0.3540    4.0170 oh        1 IEM     -0.337000
     18 O6         -2.0100   -0.2670    0.4090 os        1 IEM     -0.221000
     19 O11         2.2220    1.4070    2.5490 o         1 IEM     -0.377000
     20 H3         -2.2790   -1.1170    3.7760 ha        1 IEM      0.152000
     21 H4         -0.0990   -1.7920    2.8410 h4        1 IEM      0.090000
     22 H5          0.0160    0.8530    1.5890 h1        1 IEM      0.155000
     23 H6         -0.2790   -1.3980    0.2250 h2        1 IEM      0.072000
     24 H71        -1.4520    0.3770   -1.9470 h1        1 IEM      0.084000
     25 H72        -0.4760   -0.8650   -2.1640 h1        1 IEM      0.084000
     26 H8          1.0350    1.2290   -2.6950 hc        1 IEM      0.089000
     27 H91        -0.1950    2.4750   -4.2570 hc        1 IEM      0.072667
     28 H92        -0.8970    2.5710   -2.8290 hc        1 IEM      0.072667
     29 H93        -1.4890    1.5980   -3.9440 hc        1 IEM      0.072667
     30 H101        1.1440   -0.7830   -3.8790 hc        1 IEM      0.072667
     31 H102        0.9760    0.4160   -4.9150 hc        1 IEM      0.072667
     32 H103       -0.2790   -0.4900   -4.5350 hc        1 IEM      0.072667
     33 H121        4.2310   -0.7730    2.0570 ha        1 IEM      0.095667
     34 H122        4.3090    0.2220    0.8140 ha        1 IEM      0.095667
     35 H123        4.5730    0.7670    2.2880 ha        1 IEM      0.095667
     36 HN5         1.8820   -1.1550    0.8550 hn        1 IEM      0.212000
     37 HO4         0.0830   -0.8750    4.7100 ho        1 IEM      0.207000
@<TRIPOS>BOND
     1    1   15 1   
     2    1   16 1   
     3    2    3 1   
     4    2   18 1   
     5    3   20 1   
     6    4    5 1   
     7    4   17 1   
     8    4   21 1   
     9    5    6 1   
    10    5   14 1   
    11    5   22 1   
    12    6    7 1   
    13    6   18 1   
    14    6   23 1   
    15    7    8 1   
    16    8    9 1   
    17    8   24 1   
    18    8   25 1   
    19    9   10 1   
    20    9   11 1   
    21    9   26 1   
    22   10   27 1   
    23   10   28 1   
    24   10   29 1   
    25   11   30 1   
    26   11   31 1   
    27   11   32 1   
    28   12   14 1   
    29   12   19 1   
    30   13   33 1   
    31   13   34 1   
    32   13   35 1   
    33   14   36 1   
    34   17   37 1   
@<TRIPOS>SUBSTRUCTURE
     1 IEM         1 TEMP              0 ****  ****    0 ROOT
