@<TRIPOS>MOLECULE
IEM
   38    36     1     0     0
SMALL
bcc


@<TRIPOS>ATOM
      1 C1          2.4800    0.3080   -1.7410 c         1 IEM      0.723800
      2 C2          2.9220   -0.1620   -0.4150 ce        1 IEM     -0.054100
      3 C3          2.9540    0.4720    0.7610 c2        1 IEM     -0.109200
      4 C4          3.4440   -0.1560    2.0190 c3        1 IEM      0.162600
      5 C5          4.5440   -2.3380   -2.5340 c2        1 IEM      0.466200
      6 C6          3.2140   -1.8750   -1.9480 c3        1 IEM      0.413100
      7 O7          2.2930   -2.9120   -2.0130 os        1 IEM     -0.406600
      8 C7          0.9960   -2.6590   -1.4810 c3        1 IEM      0.114700
      9 C8          3.6520   -0.0420   -6.1200 c2        1 IEM     -0.163200
     10 C9          3.6720   -1.2210   -6.7400 c2        1 IEM     -0.240000
     11 C10         2.4210    0.6610   -5.7080 c3        1 IEM     -0.076900
     12 C12         8.5140    1.3010    2.2610 c3        1 IEM     -0.223100
     13 N5          4.9500   -2.2130   -3.7270 n2        1 IEM     -0.725100
     14 O1A         2.6650   -0.7460   -2.6320 os        1 IEM     -0.455900
     15 O1B         2.0230    1.3430   -2.1990 o         1 IEM     -0.532500
     16 O4          3.2950    0.7140    3.1210 oh        1 IEM     -0.600800
     17 O6          3.3550   -1.4860   -0.5710 os        1 IEM     -0.355900
     18 O11         6.1290    1.3480    2.5120 o         1 IEM     -0.560100
     19 H3          4.5180   -0.4680    1.8950 h1        1 IEM      0.073700
     20 H4          2.5990    1.5150    0.8280 ha        1 IEM      0.166000
     21 H5          2.8200   -1.0590    2.2710 h1        1 IEM      0.073700
     22 H6          5.1810   -2.8380   -1.7770 h4        1 IEM      0.044800
     23 H71         1.0630   -2.4190   -0.3930 h1        1 IEM      0.051033
     24 H72         0.5050   -1.8260   -2.0400 h1        1 IEM      0.051033
     25 H8          0.4560   -3.6250   -1.6470 h1        1 IEM      0.051033
     26 H91         4.5920    0.4800   -5.8700 ha        1 IEM      0.116000
     27 H92         4.6090   -1.7170   -7.0250 ha        1 IEM      0.112000
     28 H93         2.7580   -1.7660   -7.0070 ha        1 IEM      0.112000
     29 H101        2.4340    1.7160   -6.0800 hc        1 IEM      0.048033
     30 H102        1.5040    0.1590   -6.1010 hc        1 IEM      0.048033
     31 H103        2.3530    0.6880   -4.5870 hc        1 IEM      0.048033
     32 H121        9.1500    0.7500    2.9980 hc        1 IEM      0.069367
     33 H122        9.0690    2.2120    1.9260 hc        1 IEM      0.069367
     34 H123        8.3330    0.6430    1.3770 hc        1 IEM      0.069367
     35 HN5         7.3430    2.3680    3.8020 h4        1 IEM     -0.002800
     36 HO4         4.0040    1.3700    3.0680 ho        1 IEM      0.419000
     37 C11         7.2390    1.7060    2.9120 c         1 IEM      0.579900
     38 H52         4.3510   -1.7610   -4.3920 hn        1 IEM      0.423400
@<TRIPOS>BOND
     1    1    2 1   
     2    1   14 1   
     3    1   15 2   
     4    2    3 2   
     5    2   17 1   
     6    3    4 1   
     7    3   20 1   
     8    4   16 1   
     9    4   19 1   
    10    4   21 1   
    11    5    6 1   
    12    5   13 2   
    13    5   22 1   
    14    6    7 1   
    15    6   14 1   
    16    6   17 1   
    17    7    8 1   
    18    8   23 1   
    19    8   24 1   
    20    8   25 1   
    21    9   10 2   
    22    9   11 1   
    23    9   26 1   
    24   10   27 1   
    25   10   28 1   
    26   11   29 1   
    27   11   30 1   
    28   11   31 1   
    29   12   32 1   
    30   12   33 1   
    31   12   34 1   
    32   12   37 1   
    33   13   38 1   
    34   16   36 1   
    35   18   37 2   
    36   35   37 1   
@<TRIPOS>SUBSTRUCTURE
     1 IEM         1 TEMP              0 ****  ****    0 ROOT
