@<TRIPOS>MOLECULE
IEO
   37    39     1     0     0
SMALL
bcc


@<TRIPOS>ATOM
      1 N01         4.2020    2.9140   -0.3170 n         1 IEO     -0.667000
      2 C01         3.9120    1.6250    0.0580 c         1 IEO      0.689700
      3 O01         4.8560    0.8820    0.4230 o         1 IEO     -0.654100
      4 C02         2.5100    1.1480    0.0100 ca        1 IEO     -0.193600
      5 C03         1.4030    1.9880   -0.0540 ca        1 IEO     -0.036000
      6 C04         0.0920    1.4990   -0.1070 ca        1 IEO     -0.259000
      7 C05        -0.1690    0.1250   -0.1000 ca        1 IEO      0.221100
      8 O1         -1.4100   -0.4530   -0.1590 os        1 IEO     -0.310900
      9 C06        -2.5510    0.4130   -0.3080 c3        1 IEO      0.141100
     10 C07        -3.6540   -0.4840   -0.8650 c3        1 IEO     -0.095400
     11 C08        -4.9690    0.2890   -0.9330 c3        1 IEO      0.166800
     12 N02        -5.3410    0.8990    0.3280 n3        1 IEO     -0.822200
     13 C09        -4.3000    1.7140    0.9200 c3        1 IEO      0.166800
     14 C10        -2.9640    0.9840    1.0430 c3        1 IEO     -0.095400
     15 C11         0.9140   -0.7720   -0.0200 ca        1 IEO     -0.111800
     16 C12         1.0470   -2.2130    0.0320 cc        1 IEO     -0.027900
     17 C13         2.4160   -2.4990    0.1300 cd        1 IEO     -0.061100
     18 N03         3.1430   -1.3140    0.1280 na        1 IEO     -0.158400
     19 C14         2.2560   -0.2420    0.0450 ca        1 IEO      0.019800
     20 C1          0.0100   -3.1560   -0.0100 cg        1 IEO      0.239500
     21 N1         -0.8550   -3.9340   -0.0460 n1        1 IEO     -0.380800
     22 H011        5.1430    3.2200   -0.2950 hn        1 IEO      0.314500
     23 H012        3.5110    3.5180   -0.6750 hn        1 IEO      0.314500
     24 H03         1.5300    3.0820   -0.0490 ha        1 IEO      0.129000
     25 H04        -0.7330    2.2240   -0.1480 ha        1 IEO      0.143000
     26 H06        -2.3180    1.2340   -1.0400 h1        1 IEO      0.049700
     27 H071       -3.3770   -0.8350   -1.8910 hc        1 IEO      0.067200
     28 H072       -3.7620   -1.3870   -0.2100 hc        1 IEO      0.067200
     29 H101       -3.0460    0.1470    1.7840 hc        1 IEO      0.067200
     30 H102       -2.1890    1.6990    1.4180 hc        1 IEO      0.067200
     31 H081       -4.8850    1.0520   -1.7640 h1        1 IEO      0.030200
     32 H082       -5.7920   -0.4270   -1.2130 h1        1 IEO      0.030200
     33 H02        -6.1790    1.4390    0.2150 hn        1 IEO      0.366800
     34 H091       -4.1250    2.6690    0.3380 h1        1 IEO      0.030200
     35 H092       -4.6490    2.0050    1.9510 h1        1 IEO      0.030200
     36 H13         2.9170   -3.4680    0.1960 h4        1 IEO      0.182000
     37 HA          4.1230   -1.2090    0.2480 hn        1 IEO      0.339700
@<TRIPOS>BOND
     1    1    2 1   
     2    1   22 1   
     3    1   23 1   
     4    2    3 2   
     5    2    4 1   
     6    4    5 ar  
     7    4   19 ar  
     8    5    6 ar  
     9    5   24 1   
    10    6    7 ar  
    11    6   25 1   
    12    7    8 1   
    13    7   15 ar  
    14    8    9 1   
    15    9   10 1   
    16    9   14 1   
    17    9   26 1   
    18   10   11 1   
    19   10   27 1   
    20   10   28 1   
    21   11   12 1   
    22   11   31 1   
    23   11   32 1   
    24   12   13 1   
    25   12   33 1   
    26   13   14 1   
    27   13   34 1   
    28   13   35 1   
    29   14   29 1   
    30   14   30 1   
    31   15   16 1   
    32   15   19 ar  
    33   16   17 2   
    34   16   20 1   
    35   17   18 1   
    36   17   36 1   
    37   18   19 1   
    38   18   37 1   
    39   20   21 3   
@<TRIPOS>SUBSTRUCTURE
     1 IEO         1 TEMP              0 ****  ****    0 ROOT
