@<TRIPOS>MOLECULE
IEO
   38    40     1     0     0
SMALL
bcc


@<TRIPOS>ATOM
      1 N01        -0.0660   -0.2070    0.1860 n4        1 IEO     -0.757400
      2 C01         1.4560   -0.1600    0.0720 c         1 IEO      0.584700
      3 O01         2.0050   -0.1660    1.1730 o         1 IEO     -0.492100
      4 C02         2.0160   -0.1150   -1.2420 ca        1 IEO     -0.291600
      5 C03         1.2730   -0.1190   -2.4440 ca        1 IEO     -0.004000
      6 C04         1.8670   -0.0720   -3.6860 ca        1 IEO     -0.250000
      7 C05         3.2800   -0.0110   -3.8310 ca        1 IEO      0.313100
      8 O1          3.9440    0.0550   -5.0030 os        1 IEO     -0.286900
      9 C06         3.1940    0.0830   -6.2490 c3        1 IEO      0.142100
     10 C07         4.1750    0.6670   -7.2610 c3        1 IEO     -0.136900
     11 C08         3.5690    0.5780   -8.6660 c3        1 IEO      0.158300
     12 N02         3.0900   -0.7300   -9.0550 n3        1 IEO     -0.798200
     13 C09         2.2310   -1.3380   -8.0640 c3        1 IEO      0.158300
     14 C10         2.7740   -1.3280   -6.6300 c3        1 IEO     -0.136900
     15 C11         4.0690   -0.0100   -2.6670 ca        1 IEO     -0.147800
     16 C12         5.4970    0.0350   -2.4140 cc        1 IEO      0.030100
     17 C13         5.6730    0.0100   -1.0290 cd        1 IEO     -0.057100
     18 N03         4.4210   -0.0490   -0.4020 na        1 IEO     -0.156400
     19 C14         3.4330   -0.0620   -1.3700 ca        1 IEO      0.062800
     20 C1          6.5080    0.0920   -3.3850 cg        1 IEO      0.205500
     21 N1          7.3380    0.1390   -4.1990 n1        1 IEO     -0.312800
     22 H011       -0.3290   -0.2310    1.1790 hn        1 IEO      0.463467
     23 H012       -0.4730    0.6220   -0.2520 hn        1 IEO      0.463467
     24 H03         0.1720   -0.1640   -2.4150 ha        1 IEO      0.119000
     25 H04         1.2320   -0.0870   -4.5860 ha        1 IEO      0.169000
     26 H06         2.3060    0.7610   -6.1350 h1        1 IEO      0.060700
     27 H071        4.3890    1.7360   -7.0110 hc        1 IEO      0.066950
     28 H072        5.1430    0.1050   -7.2120 hc        1 IEO      0.066950
     29 H101        3.6570   -2.0130   -6.5450 hc        1 IEO      0.066950
     30 H102        1.9840   -1.7030   -5.9310 hc        1 IEO      0.066950
     31 H081        4.3430    0.9140   -9.4120 h1        1 IEO      0.064700
     32 H082        2.6980    1.2910   -8.7290 h1        1 IEO      0.064700
     33 H02         3.8600   -1.3360   -9.2750 hn        1 IEO      0.367800
     34 H091        2.0300   -2.4030   -8.3670 h1        1 IEO      0.064700
     35 H092        1.2510   -0.7820   -8.0790 h1        1 IEO      0.064700
     36 H13         6.5950    0.0300   -0.4390 h4        1 IEO      0.207000
     37 HA          4.2650   -0.0760    0.5780 hn        1 IEO      0.334700
     38 H013       -0.4240   -1.0430   -0.2790 hn        1 IEO      0.463467
@<TRIPOS>BOND
     1    1    2 1   
     2    1   22 1   
     3    1   23 1   
     4    1   38 1   
     5    2    3 2   
     6    2    4 1   
     7    4    5 ar  
     8    4   19 ar  
     9    5    6 ar  
    10    5   24 1   
    11    6    7 ar  
    12    6   25 1   
    13    7    8 1   
    14    7   15 ar  
    15    8    9 1   
    16    9   10 1   
    17    9   14 1   
    18    9   26 1   
    19   10   11 1   
    20   10   27 1   
    21   10   28 1   
    22   11   12 1   
    23   11   31 1   
    24   11   32 1   
    25   12   13 1   
    26   12   33 1   
    27   13   14 1   
    28   13   34 1   
    29   13   35 1   
    30   14   29 1   
    31   14   30 1   
    32   15   16 1   
    33   15   19 ar  
    34   16   17 2   
    35   16   20 1   
    36   17   18 1   
    37   17   36 1   
    38   18   19 1   
    39   18   37 1   
    40   20   21 3   
@<TRIPOS>SUBSTRUCTURE
     1 IEO         1 TEMP              0 ****  ****    0 ROOT
