@<TRIPOS>MOLECULE
IEO
   37    33     1     0     0
SMALL
bcc


@<TRIPOS>ATOM
      1 N01        -2.7010    0.9540    4.7070 n         1 IEO     -0.427000
      2 C01        -2.1870   -0.2390    4.1350 c2        1 IEO      0.363000
      3 O01        -2.3960   -1.3080    4.6720 o         1 IEO     -0.414000
      4 C02        -1.3880   -0.1800    2.8530 c2        1 IEO     -0.172000
      5 C03        -2.1580   -0.2540    1.7010 c2        1 IEO     -0.037000
      6 C04        -1.5430   -0.3090    0.4570 c1        1 IEO     -0.256000
      7 C05        -0.1600   -0.2910    0.3660 c1        1 IEO      0.173000
      8 O1          0.8100   -0.3360   -0.6500 os        1 IEO     -0.196000
      9 C06         0.2690   -0.0430   -1.7670 c3        1 IEO      0.032000
     10 C07         1.1430    0.9630   -2.5940 c3        1 IEO     -0.207000
     11 C08         0.5340    1.2920   -3.9440 c3        1 IEO     -0.083000
     12 N02        -0.3370    0.3930   -4.2990 n3        1 IEO     -0.279000
     13 C09        -0.2480   -0.9000   -4.1360 c3        1 IEO     -0.083000
     14 C10         0.3540   -1.2420   -2.7970 c3        1 IEO     -0.207000
     15 C11         0.6210   -0.2150    1.5330 c1        1 IEO     -0.099000
     16 C12         1.9840   -0.2040    1.7330 c1        1 IEO     -0.075000
     17 C13         2.2150   -0.1420    3.0920 c1        1 IEO     -0.033000
     18 N03         1.0040   -0.1150    3.7260 n2        1 IEO     -0.180000
     19 C14         0.0140   -0.1600    2.7610 c1        1 IEO      0.065000
     20 C1          3.4580   -0.1460    1.3960 c1        1 IEO     -0.053000
     21 N1          4.5680   -0.1010    1.1430 n1        1 IEO     -0.056000
     22 H011       -2.9640    0.9650    5.5820 hn        1 IEO      0.228000
     23 H012       -2.7610    1.7140    4.2020 hn        1 IEO      0.228000
     24 H03        -3.1320   -0.2670    1.7650 ha        1 IEO      0.130000
     25 H04        -2.0850   -0.3620   -0.3530 ha        1 IEO      0.142000
     26 H06        -0.6490    0.2780   -1.6600 h1        1 IEO      0.089000
     27 H071        1.2410    1.7900   -2.0820 hc        1 IEO      0.103000
     28 H072        2.0280    0.5710   -2.7340 hc        1 IEO      0.103000
     29 H101        1.2940   -1.4820   -2.9250 hc        1 IEO      0.103000
     30 H102       -0.1210   -2.0120   -2.4250 hc        1 IEO      0.103000
     31 H081        0.0920    2.1650   -3.8920 h1        1 IEO      0.094250
     32 H082        1.2470    1.3320   -4.6150 h1        1 IEO      0.094250
     33 H02        -1.1780    0.6730   -4.0660 hn        1 IEO      0.144000
     34 H091       -1.1440   -1.2930   -4.1950 h1        1 IEO      0.094250
     35 H092        0.3140   -1.2750   -4.8460 h1        1 IEO      0.094250
     36 H13         3.0890   -0.1380    3.5260 DU        1 IEO      0.236000
     37 HA          0.8730   -0.0750    4.6270 DU        1 IEO      0.236000
@<TRIPOS>BOND
     1    1    2 1   
     2    1   22 1   
     3    1   23 1   
     4    2    3 1   
     5    2    4 1   
     6    4    5 1   
     7    4   19 1   
     8    5    6 1   
     9    5   24 1   
    10    6   25 1   
    11    7    8 1   
    12    7   15 1   
    13    8    9 1   
    14    9   10 1   
    15    9   14 1   
    16    9   26 1   
    17   10   11 1   
    18   10   27 1   
    19   10   28 1   
    20   11   12 1   
    21   11   31 1   
    22   11   32 1   
    23   12   13 1   
    24   12   33 1   
    25   13   14 1   
    26   13   34 1   
    27   13   35 1   
    28   14   29 1   
    29   14   30 1   
    30   16   17 1   
    31   17   18 1   
    32   18   19 1   
    33   20   21 1   
@<TRIPOS>SUBSTRUCTURE
     1 IEO         1 TEMP              0 ****  ****    0 ROOT
