@<TRIPOS>MOLECULE
IEO
   38    40     1     0     0
SMALL
bcc


@<TRIPOS>ATOM
      1 N01        -0.0350   -0.2350    0.2770 n4        1 IEO     -0.757400
      2 C01         1.4870   -0.2000    0.1600 c         1 IEO      0.584700
      3 O01         2.0390   -0.2490    1.2590 o         1 IEO     -0.493100
      4 C02         2.0430   -0.1200   -1.1530 ca        1 IEO     -0.292600
      5 C03         1.2970   -0.0700   -2.3530 ca        1 IEO     -0.004000
      6 C04         1.8890    0.0060   -3.5950 ca        1 IEO     -0.250000
      7 C05         3.3020    0.0420   -3.7420 ca        1 IEO      0.313100
      8 O1          3.9640    0.1270   -4.9140 os        1 IEO     -0.283900
      9 C06         3.2120    0.1890   -6.1570 c3        1 IEO      0.140100
     10 C07         4.2130    0.7420   -7.1680 c3        1 IEO     -0.097400
     11 C08         3.6090    0.6920   -8.5720 c3        1 IEO      0.169300
     12 N02         3.1260   -0.6250   -8.9300 n3        1 IEO     -0.826200
     13 C09         2.1910   -1.1850   -7.9780 c3        1 IEO      0.169300
     14 C10         2.7460   -1.2040   -6.5520 c3        1 IEO     -0.097400
     15 C11         4.0940   -0.0050   -2.5820 ca        1 IEO     -0.147800
     16 C12         5.5240    0.0100   -2.3320 cc        1 IEO      0.031100
     17 C13         5.7020   -0.0620   -0.9490 cd        1 IEO     -0.058100
     18 N03         4.4520   -0.1200   -0.3200 na        1 IEO     -0.156400
     19 C14         3.4610   -0.0870   -1.2850 ca        1 IEO      0.062800
     20 C1          6.5350    0.0840   -3.3020 cg        1 IEO      0.204500
     21 N1          7.3660    0.1470   -4.1130 n1        1 IEO     -0.309800
     22 H011       -0.4040   -1.0500   -0.2170 hn        1 IEO      0.462800
     23 H012       -0.4350    0.6130   -0.1290 hn        1 IEO      0.462800
     24 H03         0.1950   -0.0930   -2.3210 ha        1 IEO      0.118000
     25 H04         1.2510    0.0350   -4.4920 ha        1 IEO      0.168000
     26 H06         2.3480    0.8960   -6.0330 h1        1 IEO      0.055700
     27 H071        4.4690    1.8010   -6.9120 hc        1 IEO      0.070450
     28 H072        5.1560    0.1370   -7.1270 hc        1 IEO      0.070450
     29 H101        3.6120   -1.9150   -6.4880 hc        1 IEO      0.070450
     30 H102        1.9490   -1.5660   -5.8540 hc        1 IEO      0.070450
     31 H081        2.7960    1.4760   -8.6330 h1        1 IEO      0.040200
     32 H082        4.4100    0.9710   -9.3130 h1        1 IEO      0.040200
     33 H02         2.7350   -0.6220   -9.8520 hn        1 IEO      0.384800
     34 H091        1.2070   -0.6260   -7.9620 h1        1 IEO      0.040200
     35 H092        1.9770   -2.2440   -8.2950 h1        1 IEO      0.040200
     36 H13         6.6270   -0.0770   -0.3610 h4        1 IEO      0.207000
     37 HA          4.2970   -0.1760    0.6590 hn        1 IEO      0.334700
     38 H013       -0.2960   -0.2930    1.2690 hn        1 IEO      0.462800
@<TRIPOS>BOND
     1    1    2 1   
     2    1   22 1   
     3    1   23 1   
     4    1   38 1   
     5    2    3 2   
     6    2    4 1   
     7    4    5 ar  
     8    4   19 ar  
     9    5    6 ar  
    10    5   24 1   
    11    6    7 ar  
    12    6   25 1   
    13    7    8 1   
    14    7   15 ar  
    15    8    9 1   
    16    9   10 1   
    17    9   14 1   
    18    9   26 1   
    19   10   11 1   
    20   10   27 1   
    21   10   28 1   
    22   11   12 1   
    23   11   31 1   
    24   11   32 1   
    25   12   13 1   
    26   12   33 1   
    27   13   14 1   
    28   13   34 1   
    29   13   35 1   
    30   14   29 1   
    31   14   30 1   
    32   15   16 1   
    33   15   19 ar  
    34   16   17 2   
    35   16   20 1   
    36   17   18 1   
    37   17   36 1   
    38   18   19 1   
    39   18   37 1   
    40   20   21 3   
@<TRIPOS>SUBSTRUCTURE
     1 IEO         1 TEMP              0 ****  ****    0 ROOT
