@<TRIPOS>MOLECULE
IEO
   38    39     1     0     0
SMALL
bcc


@<TRIPOS>ATOM
      1 N01        -0.0480   -0.2750    0.2920 nz        1 IEO     -0.757400
      2 C01         1.4700   -0.1220    0.3020 c         1 IEO      0.583700
      3 O01         1.9250   -0.0690    1.4440 o         1 IEO     -0.493100
      4 C02         2.1330   -0.0640   -0.9630 ca        1 IEO     -0.290600
      5 C03         1.4920   -0.1460   -2.2210 ca        1 IEO     -0.009000
      6 C04         2.1830   -0.0780   -3.4100 ca        1 IEO     -0.239000
      7 C05         3.5950    0.0840   -3.4350 ca        1 IEO      0.304100
      8 O1          4.3330    0.1690   -4.5690 os        1 IEO     -0.247900
      9 C06         3.6290    0.1700   -5.8070 cx        1 IEO      0.026100
     10 C07         4.4790   -0.3110   -6.9560 cx        1 IEO     -0.121900
     11 C08         2.9100    0.7460   -9.9350 c2        1 IEO     -0.150900
     12 N02         2.1320   -0.3290   -9.9630 nu        1 IEO     -0.030100
     13 C09         1.1230   -0.6110   -9.1450 c2        1 IEO     -0.150900
     14 C10         3.3400   -1.1550   -6.4650 cx        1 IEO     -0.121900
     15 C11         4.2870    0.1620   -2.2180 ca        1 IEO     -0.143800
     16 C12         5.6820    0.3150   -1.8500 cc        1 IEO      0.031100
     17 C13         5.7420    0.3290   -0.4550 cd        1 IEO     -0.057100
     18 N03         4.4490    0.1920    0.0700 na        1 IEO     -0.157400
     19 C14         3.5490    0.0880   -0.9760 ca        1 IEO      0.062800
     20 C1          6.7660    0.4240   -2.7340 cg        1 IEO      0.203500
     21 N1          7.6580    0.5140   -3.4750 n1        1 IEO     -0.308800
     22 H011       -0.3080   -1.1440   -0.1800 hn        1 IEO      0.463133
     23 H012       -0.4740    0.5140   -0.2000 hn        1 IEO      0.463133
     24 H03         0.3990   -0.2730   -2.2790 ha        1 IEO      0.119000
     25 H04         1.6420   -0.1600   -4.3670 ha        1 IEO      0.174000
     26 H06         2.9550    1.0400   -5.8960 h1        1 IEO      0.105700
     27 H071        5.5160   -0.6350   -6.7510 hc        1 IEO      0.100700
     28 H072        4.3820    0.2220   -7.9230 hc        1 IEO      0.100700
     29 H101        2.4260   -1.2420   -7.0850 hc        1 IEO      0.100700
     30 H102        3.5710   -2.0870   -5.9180 hc        1 IEO      0.100700
     31 H081        2.7090    1.5530   -9.2250 h4        1 IEO      0.015300
     32 H082        3.7170    0.8520  -10.6660 h4        1 IEO      0.015300
     33 H02         2.3490   -1.0230  -10.6610 hn        1 IEO      0.274700
     34 H091        0.8070    0.1180   -8.3940 h4        1 IEO      0.015300
     35 H092        0.5610   -1.5380   -9.2790 h4        1 IEO      0.015300
     36 H13         6.6080    0.4260    0.2090 h4        1 IEO      0.207000
     37 HA          4.2140    0.1720    1.0340 hn        1 IEO      0.334700
     38 H013       -0.3920   -0.2980    1.2600 hn        1 IEO      0.463133
@<TRIPOS>BOND
     1    1    2 1   
     2    1   22 1   
     3    1   23 1   
     4    1   38 1   
     5    2    3 2   
     6    2    4 1   
     7    4    5 ar  
     8    4   19 ar  
     9    5    6 ar  
    10    5   24 1   
    11    6    7 ar  
    12    6   25 1   
    13    7    8 1   
    14    7   15 ar  
    15    8    9 1   
    16    9   10 1   
    17    9   14 1   
    18    9   26 1   
    19   10   14 1   
    20   10   27 1   
    21   10   28 1   
    22   11   12 2   
    23   11   31 1   
    24   11   32 1   
    25   12   13 2   
    26   12   33 1   
    27   13   34 1   
    28   13   35 1   
    29   14   29 1   
    30   14   30 1   
    31   15   16 1   
    32   15   19 ar  
    33   16   17 2   
    34   16   20 1   
    35   17   18 1   
    36   17   36 1   
    37   18   19 1   
    38   18   37 1   
    39   20   21 3   
@<TRIPOS>SUBSTRUCTURE
     1 IEO         1 TEMP              0 ****  ****    0 ROOT
