@<TRIPOS>MOLECULE
IES
   82    84     1     0     0
SMALL
bcc


@<TRIPOS>ATOM
      1 C01        -0.5200   -2.9930   -1.8670 c3        1 IES     -0.125600
      2 C05         0.2750   -1.7240   -2.0490 c3        1 IES      0.174100
      3 C07        -0.1830   -0.5970   -1.1510 c3        1 IES     -0.125600
      4 O11         1.6710   -1.9670   -1.6130 os        1 IES     -0.418900
      5 C12         2.4570   -2.6380   -2.4710 c         1 IES      0.613100
      6 O13         2.1470   -3.0190   -3.5930 o         1 IES     -0.434000
      7 N14         3.8110   -2.8750   -1.8960 n4        1 IES     -0.645800
      8 C16         4.7310   -1.6740   -2.0920 c3        1 IES      0.222800
      9 C18         5.1590   -1.5190   -3.5500 c3        1 IES     -0.115400
     10 C21         6.0920   -2.6330   -4.0510 c3        1 IES      0.074700
     11 C23         5.2980   -3.6000   -4.9350 c3        1 IES     -0.112100
     12 N27         6.8160   -3.3310   -2.9750 n         1 IES     -0.409000
     13 C28         7.7910   -4.2900   -3.4030 c         1 IES      0.658100
     14 C29         8.2070   -5.3690   -2.4420 c3        1 IES     -0.171100
     15 O33         8.1950   -4.2680   -4.5720 o         1 IES     -0.523100
     16 C34         7.0050   -2.6400   -1.7640 ca        1 IES      0.100600
     17 C35         8.2010   -2.7040   -1.0120 ca        1 IES     -0.171000
     18 C37         8.3020   -2.0590    0.2110 ca        1 IES     -0.052000
     19 C39         7.2350   -1.3060    0.7350 cp        1 IES     -0.032000
     20 C40         6.0600   -1.2060   -0.0130 ca        1 IES     -0.072000
     21 C42         5.9440   -1.8560   -1.2430 ca        1 IES     -0.231300
     22 C43         7.3740   -0.6300    2.0200 cp        1 IES     -0.095000
     23 C44         8.0320   -1.2560    3.0870 ca        1 IES     -0.084000
     24 C46         8.2000   -0.6160    4.3090 ca        1 IES     -0.169500
     25 C48         7.7120    0.6960    4.4980 ca        1 IES      0.091600
     26 N49         7.8590    1.4080    5.6970 n         1 IES     -0.472100
     27 C51         8.5790    1.0290    6.8250 c         1 IES      0.667100
     28 O52         9.1560   -0.0670    6.9220 o         1 IES     -0.579100
     29 C53         8.6100    2.0470    7.9570 c3        1 IES     -0.153400
     30 C56         9.5130    1.5670    9.0730 c3        1 IES     -0.075400
     31 C59         9.5620    2.5710   10.2050 c3        1 IES     -0.079400
     32 C62        10.4770    2.0830   11.3100 c3        1 IES     -0.080400
     33 C65        10.5310    3.0860   12.4450 c3        1 IES     -0.085400
     34 C68        11.4580    2.5830   13.5390 c3        1 IES     -0.144400
     35 C71        11.4800    3.5390   14.6840 c         1 IES      0.555100
     36 O72        10.8110    4.5130   14.9570 o         1 IES     -0.371100
     37 N73        12.5680    3.2370   15.7650 n4        1 IES     -0.484300
     38 O75        13.8170    3.2950   15.2510 oh        1 IES     -0.351300
     39 C77         7.0350    1.3230    3.4200 ca        1 IES     -0.169500
     40 C79         6.8730    0.6650    2.2090 ca        1 IES     -0.084000
     41 H011       -1.5840   -2.8000   -2.1520 hc        1 IES      0.070867
     42 H012       -0.1190   -3.8040   -2.5220 hc        1 IES      0.070867
     43 H013       -0.4920   -3.3340   -0.8040 hc        1 IES      0.070867
     44 H05         0.3120   -1.4120   -3.1290 h1        1 IES      0.088700
     45 H071        0.4650    0.3020   -1.2810 hc        1 IES      0.070867
     46 H072       -0.1560   -0.9080   -0.0780 hc        1 IES      0.070867
     47 H073       -1.2340   -0.3330   -1.4260 hc        1 IES      0.070867
     48 H14         4.2230   -3.6950   -2.3650 hn        1 IES      0.476300
     49 H16         4.1280   -0.7740   -1.7640 hx        1 IES      0.111700
     50 H181        5.6950   -0.5320   -3.6150 hc        1 IES      0.095200
     51 H182        4.2620   -1.4590   -4.2230 hc        1 IES      0.095200
     52 H21         6.8670   -2.1440   -4.7240 h1        1 IES      0.095700
     53 H231        5.9640   -4.3980   -5.3490 hc        1 IES      0.058700
     54 H232        4.8730   -3.0260   -5.7960 hc        1 IES      0.058700
     55 H233        4.4570   -4.0850   -4.3860 hc        1 IES      0.058700
     56 H291        7.7680   -5.2520   -1.4230 hc        1 IES      0.081700
     57 H292        7.8820   -6.3520   -2.8690 hc        1 IES      0.081700
     58 H293        9.3230   -5.3730   -2.3670 hc        1 IES      0.081700
     59 H35         9.0760   -3.2500   -1.4020 ha        1 IES      0.160000
     60 H37         9.2480   -2.1190    0.7770 ha        1 IES      0.162000
     61 H40         5.2230   -0.5980    0.3660 ha        1 IES      0.144000
     62 H44         8.4240   -2.2780    2.9640 ha        1 IES      0.136000
     63 H79         6.3590    1.1810    1.3830 ha        1 IES      0.136000
     64 H46         8.7230   -1.1460    5.1220 ha        1 IES      0.160000
     65 H49         7.4430    2.3130    5.7100 hn        1 IES      0.320500
     66 H77         6.6370    2.3440    3.5280 ha        1 IES      0.160000
     67 H531        8.9770    3.0330    7.5670 hc        1 IES      0.070700
     68 H532        7.5660    2.1940    8.3430 hc        1 IES      0.070700
     69 H561        9.1430    0.5770    9.4510 hc        1 IES      0.066200
     70 H562       10.5450    1.3930    8.6670 hc        1 IES      0.066200
     71 H591        8.5300    2.7340   10.6130 hc        1 IES      0.049200
     72 H592        9.9290    3.5590    9.8200 hc        1 IES      0.049200
     73 H621       10.1070    1.0950   11.6930 hc        1 IES      0.055700
     74 H622       11.5080    1.9190   10.8980 hc        1 IES      0.055700
     75 H651        9.5020    3.2470   12.8630 hc        1 IES      0.072700
     76 H652       10.8960    4.0760   12.0620 hc        1 IES      0.072700
     77 H681       11.1040    1.5810   13.9130 hc        1 IES      0.116700
     78 H682       12.5020    2.4510   13.1360 hc        1 IES      0.116700
     79 H73        12.4610    3.8740   16.5770 hn        1 IES      0.478800
     80 H75        14.0450    4.2370   15.0750 ho        1 IES      0.477000
     81 H142        3.7310   -3.0590   -0.8880 hn        1 IES      0.476300
     82 H732       12.4590    2.2570   16.0960 hn        1 IES      0.478800
@<TRIPOS>BOND
     1    1    2 1   
     2    1   41 1   
     3    1   42 1   
     4    1   43 1   
     5    2    3 1   
     6    2    4 1   
     7    2   44 1   
     8    3   45 1   
     9    3   46 1   
    10    3   47 1   
    11    4    5 1   
    12    5    6 2   
    13    5    7 1   
    14    7    8 1   
    15    7   48 1   
    16    7   81 1   
    17    8    9 1   
    18    8   21 1   
    19    8   49 1   
    20    9   10 1   
    21    9   50 1   
    22    9   51 1   
    23   10   11 1   
    24   10   12 1   
    25   10   52 1   
    26   11   53 1   
    27   11   54 1   
    28   11   55 1   
    29   12   13 1   
    30   12   16 1   
    31   13   14 1   
    32   13   15 2   
    33   14   56 1   
    34   14   57 1   
    35   14   58 1   
    36   16   17 ar  
    37   16   21 ar  
    38   17   18 ar  
    39   17   59 1   
    40   18   19 ar  
    41   18   60 1   
    42   19   20 ar  
    43   19   22 1   
    44   20   21 ar  
    45   20   61 1   
    46   22   23 ar  
    47   22   40 ar  
    48   23   24 ar  
    49   23   62 1   
    50   24   25 ar  
    51   24   64 1   
    52   25   26 1   
    53   25   39 ar  
    54   26   27 1   
    55   26   65 1   
    56   27   28 2   
    57   27   29 1   
    58   29   30 1   
    59   29   67 1   
    60   29   68 1   
    61   30   31 1   
    62   30   69 1   
    63   30   70 1   
    64   31   32 1   
    65   31   71 1   
    66   31   72 1   
    67   32   33 1   
    68   32   73 1   
    69   32   74 1   
    70   33   34 1   
    71   33   75 1   
    72   33   76 1   
    73   34   35 1   
    74   34   77 1   
    75   34   78 1   
    76   35   36 2   
    77   35   37 1   
    78   37   38 1   
    79   37   79 1   
    80   37   82 1   
    81   38   80 1   
    82   39   40 ar  
    83   39   66 1   
    84   40   63 1   
@<TRIPOS>SUBSTRUCTURE
     1 IES         1 TEMP              0 ****  ****    0 ROOT
