@<TRIPOS>MOLECULE
IES
   82    84     1     0     0
SMALL
bcc


@<TRIPOS>ATOM
      1 C01        -0.5140   -3.0610   -1.8330 c3        1 IES     -0.125600
      2 C05         0.2730   -1.7880   -2.0210 c3        1 IES      0.174100
      3 C07        -0.1890   -0.6620   -1.1230 c3        1 IES     -0.125600
      4 O11         1.6710   -2.0220   -1.5880 os        1 IES     -0.418900
      5 C12         2.4580   -2.6910   -2.4470 c         1 IES      0.613100
      6 O13         2.1480   -3.0770   -3.5670 o         1 IES     -0.434000
      7 N14         3.8150   -2.9190   -1.8750 ny        1 IES     -0.646800
      8 C16         4.7300   -1.7150   -2.0830 c3        1 IES      0.222800
      9 C18         5.1530   -1.5690   -3.5430 c3        1 IES     -0.115400
     10 C21         6.0890   -2.6830   -4.0390 c3        1 IES      0.074700
     11 C23         5.2970   -3.6590   -4.9140 c3        1 IES     -0.112100
     12 N27         6.8190   -3.3690   -2.9610 n         1 IES     -0.409000
     13 C28         7.7970   -4.3280   -3.3840 c         1 IES      0.658100
     14 C29         8.2200   -5.3980   -2.4160 c3        1 IES     -0.171100
     15 O33         8.1980   -4.3110   -4.5550 o         1 IES     -0.523100
     16 C34         7.0080   -2.6690   -1.7550 ca        1 IES      0.100600
     17 C35         8.2070   -2.7230   -1.0060 ca        1 IES     -0.171000
     18 C37         8.3090   -2.0680    0.2120 ca        1 IES     -0.052000
     19 C39         7.2410   -1.3160    0.7340 cp        1 IES     -0.032000
     20 C40         6.0630   -1.2260   -0.0110 ca        1 IES     -0.072000
     21 C42         5.9460   -1.8860   -1.2360 ca        1 IES     -0.231300
     22 C43         7.3810   -0.6300    2.0140 cp        1 IES     -0.095000
     23 C44         8.0430   -1.2460    3.0830 ca        1 IES     -0.084000
     24 C46         8.2110   -0.5960    4.3000 ca        1 IES     -0.169500
     25 C48         7.7190    0.7150    4.4820 ca        1 IES      0.091600
     26 N49         7.8670    1.4360    5.6740 ns        1 IES     -0.472100
     27 C51         8.5850    1.0650    6.8070 c         1 IES      0.667100
     28 O52         9.1610   -0.0320    6.9130 o         1 IES     -0.579100
     29 C53         8.6160    2.0920    7.9300 c3        1 IES     -0.153400
     30 C56         9.5120    1.6160    9.0550 c3        1 IES     -0.075400
     31 C59         9.5620    2.6310   10.1770 c3        1 IES     -0.079400
     32 C62        10.4680    2.1460   11.2910 c3        1 IES     -0.080400
     33 C65        10.5250    3.1600   12.4160 c3        1 IES     -0.085400
     34 C68        11.4430    2.6600   13.5200 c3        1 IES     -0.144400
     35 C71        11.4670    3.6280   14.6560 c         1 IES      0.555100
     36 O72        10.8060    4.6100   14.9150 o         1 IES     -0.371100
     37 N73        12.5480    3.3260   15.7450 ny        1 IES     -0.484300
     38 O75        13.8000    3.3680   15.2360 oh        1 IES     -0.351300
     39 C77         7.0380    1.3310    3.4010 ca        1 IES     -0.169500
     40 C79         6.8750    0.6650    2.1950 ca        1 IES     -0.084000
     41 H011       -0.4800   -3.4000   -0.7690 hc        1 IES      0.070867
     42 H012       -1.5810   -2.8750   -2.1150 hc        1 IES      0.070867
     43 H013       -0.1100   -3.8720   -2.4870 hc        1 IES      0.070867
     44 H05         0.3040   -1.4780   -3.1010 h1        1 IES      0.088700
     45 H071       -0.1570   -0.9700   -0.0510 hc        1 IES      0.070867
     46 H072       -1.2420   -0.4040   -1.3970 hc        1 IES      0.070867
     47 H073        0.4540    0.2410   -1.2580 hc        1 IES      0.070867
     48 H14         4.2300   -3.7400   -2.3410 hn        1 IES      0.476800
     49 H16         4.1240   -0.8160   -1.7590 hx        1 IES      0.111700
     50 H181        5.6850   -0.5800   -3.6160 hc        1 IES      0.095200
     51 H182        4.2540   -1.5170   -4.2140 hc        1 IES      0.095200
     52 H21         6.8610   -2.1950   -4.7180 h1        1 IES      0.095700
     53 H231        5.9650   -4.4570   -5.3240 hc        1 IES      0.058700
     54 H232        4.4600   -4.1430   -4.3580 hc        1 IES      0.058700
     55 H233        4.8670   -3.0930   -5.7770 hc        1 IES      0.058700
     56 H291        9.3370   -5.3970   -2.3450 hc        1 IES      0.081700
     57 H292        7.8980   -6.3850   -2.8360 hc        1 IES      0.081700
     58 H293        7.7840   -5.2760   -1.3980 hc        1 IES      0.081700
     59 H35         9.0840   -3.2680   -1.3950 ha        1 IES      0.160000
     60 H37         9.2570   -2.1210    0.7760 ha        1 IES      0.162000
     61 H40         5.2240   -0.6190    0.3660 ha        1 IES      0.144000
     62 H44         8.4390   -2.2680    2.9670 ha        1 IES      0.136000
     63 H79         6.3580    1.1720    1.3660 ha        1 IES      0.136000
     64 H46         8.7390   -1.1190    5.1160 ha        1 IES      0.160500
     65 H49         7.4500    2.3420    5.6810 hn        1 IES      0.320500
     66 H77         6.6360    2.3520    3.5020 ha        1 IES      0.160500
     67 H531        7.5720    2.2490    8.3100 hc        1 IES      0.070200
     68 H532        8.9910    3.0730    7.5330 hc        1 IES      0.070200
     69 H561       10.5440    1.4320    8.6550 hc        1 IES      0.066200
     70 H562        9.1330    0.6320    9.4400 hc        1 IES      0.066200
     71 H591        9.9390    3.6130    9.7850 hc        1 IES      0.049200
     72 H592        8.5300    2.8050   10.5790 hc        1 IES      0.049200
     73 H621       10.0890    1.1650   11.6820 hc        1 IES      0.055700
     74 H622       11.5000    1.9690   10.8860 hc        1 IES      0.055700
     75 H651       10.9010    4.1420   12.0260 hc        1 IES      0.072700
     76 H652        9.4950    3.3340   12.8280 hc        1 IES      0.072700
     77 H681       12.4880    2.5140   13.1240 hc        1 IES      0.116700
     78 H682       11.0780    1.6640   13.9020 hc        1 IES      0.116700
     79 H73        12.4430    3.9740   16.5490 hn        1 IES      0.478800
     80 H75        14.0370    4.3050   15.0510 ho        1 IES      0.477000
     81 H142        3.7400   -3.0960   -0.8660 hn        1 IES      0.476800
     82 H732       12.4280    2.3520   16.0860 hn        1 IES      0.478800
@<TRIPOS>BOND
     1    1    2 1   
     2    1   41 1   
     3    1   42 1   
     4    1   43 1   
     5    2    3 1   
     6    2    4 1   
     7    2   44 1   
     8    3   45 1   
     9    3   46 1   
    10    3   47 1   
    11    4    5 1   
    12    5    6 2   
    13    5    7 1   
    14    7    8 1   
    15    7   48 1   
    16    7   81 1   
    17    8    9 1   
    18    8   21 1   
    19    8   49 1   
    20    9   10 1   
    21    9   50 1   
    22    9   51 1   
    23   10   11 1   
    24   10   12 1   
    25   10   52 1   
    26   11   53 1   
    27   11   54 1   
    28   11   55 1   
    29   12   13 1   
    30   12   16 1   
    31   13   14 1   
    32   13   15 2   
    33   14   56 1   
    34   14   57 1   
    35   14   58 1   
    36   16   17 ar  
    37   16   21 ar  
    38   17   18 ar  
    39   17   59 1   
    40   18   19 ar  
    41   18   60 1   
    42   19   20 ar  
    43   19   22 1   
    44   20   21 ar  
    45   20   61 1   
    46   22   23 ar  
    47   22   40 ar  
    48   23   24 ar  
    49   23   62 1   
    50   24   25 ar  
    51   24   64 1   
    52   25   26 1   
    53   25   39 ar  
    54   26   27 1   
    55   26   65 1   
    56   27   28 2   
    57   27   29 1   
    58   29   30 1   
    59   29   67 1   
    60   29   68 1   
    61   30   31 1   
    62   30   69 1   
    63   30   70 1   
    64   31   32 1   
    65   31   71 1   
    66   31   72 1   
    67   32   33 1   
    68   32   73 1   
    69   32   74 1   
    70   33   34 1   
    71   33   75 1   
    72   33   76 1   
    73   34   35 1   
    74   34   77 1   
    75   34   78 1   
    76   35   36 2   
    77   35   37 1   
    78   37   38 1   
    79   37   79 1   
    80   37   82 1   
    81   38   80 1   
    82   39   40 ar  
    83   39   66 1   
    84   40   63 1   
@<TRIPOS>SUBSTRUCTURE
     1 IES         1 TEMP              0 ****  ****    0 ROOT
