@<TRIPOS>MOLECULE
IET
   35    36     1     0     0
SMALL
bcc


@<TRIPOS>ATOM
      1 C1         -0.0070   -0.5800    3.2880 ca        1 IET     -0.079300
      2 C7          0.8320   -1.6690    2.7170 c3        1 IET     -0.091400
      3 C2          0.5800    0.4660    4.0250 ca        1 IET      0.020900
      4 CL2         2.2610    0.5400    4.2420 cl        1 IET     -0.074400
      5 C3         -0.2020    1.4740    4.6000 ca        1 IET     -0.122000
      6 C4         -1.5860    1.4500    4.4510 ca        1 IET     -0.109000
      7 C5         -2.1920    0.4270    3.7270 ca        1 IET     -0.122000
      8 C6         -1.4050   -0.5730    3.1480 ca        1 IET      0.020900
      9 CL6        -2.2080   -1.7930    2.2650 cl        1 IET     -0.074400
     10 C8          1.5490   -1.2440    1.4250 c2        1 IET      0.490900
     11 N1          0.6160   -0.8240    0.4220 n         1 IET     -0.494400
     12 C9          0.9080   -0.4600   -0.8860 c         1 IET      0.583400
     13 N5         -0.2120   -0.1760   -1.6750 n         1 IET     -0.436100
     14 S2          2.4180   -0.3910   -1.4660 s         1 IET     -0.548400
     15 N3          2.8280   -1.3200    1.3800 n2        1 IET     -0.784100
     16 C11        -0.1890    0.3470   -2.9830 ca        1 IET      0.076600
     17 C12        -1.2170    1.2480   -3.3570 ca        1 IET     -0.152000
     18 C13        -1.2800    1.7490   -4.6500 ca        1 IET     -0.074000
     19 C14        -0.3210    1.3710   -5.6020 ca        1 IET     -0.032000
     20 C15         0.6970    0.4810   -5.2400 ca        1 IET     -0.074000
     21 C16         0.7660   -0.0330   -3.9490 ca        1 IET     -0.152000
     22 C17        -0.3870    1.8900   -6.9220 cg        1 IET      0.235800
     23 N6         -0.4410    2.3150   -8.0040 n1        1 IET     -0.362800
     24 H71         1.6050   -1.9780    3.4770 hc        1 IET      0.094700
     25 H72         0.2160   -2.5820    2.4940 hc        1 IET      0.094700
     26 H3          0.2780    2.2840    5.1720 ha        1 IET      0.155500
     27 H4         -2.2020    2.2400    4.9080 ha        1 IET      0.148000
     28 H5         -3.2880    0.4050    3.6120 ha        1 IET      0.155500
     29 HN1        -0.3390   -0.8350    0.7220 hn        1 IET      0.316500
     30 HN5        -1.1080   -0.1130   -1.2350 hn        1 IET      0.311500
     31 HN3         3.3150   -1.0650    0.5420 hn        1 IET      0.455400
     32 H12        -1.9800    1.5630   -2.6280 ha        1 IET      0.161500
     33 H13        -2.0830    2.4490   -4.9270 ha        1 IET      0.149500
     34 H15         1.4540    0.1800   -5.9820 ha        1 IET      0.149500
     35 H16         1.5870   -0.7230   -3.6840 ha        1 IET      0.161500
@<TRIPOS>BOND
     1    1    2 1   
     2    1    3 ar  
     3    1    8 ar  
     4    2   10 1   
     5    2   24 1   
     6    2   25 1   
     7    3    4 1   
     8    3    5 ar  
     9    5    6 ar  
    10    5   26 1   
    11    6    7 ar  
    12    6   27 1   
    13    7    8 ar  
    14    7   28 1   
    15    8    9 1   
    16   10   11 1   
    17   10   15 2   
    18   11   12 1   
    19   11   29 1   
    20   12   13 1   
    21   12   14 2   
    22   13   16 1   
    23   13   30 1   
    24   15   31 1   
    25   16   17 ar  
    26   16   21 ar  
    27   17   18 ar  
    28   17   32 1   
    29   18   19 ar  
    30   18   33 1   
    31   19   20 ar  
    32   19   22 1   
    33   20   21 ar  
    34   20   34 1   
    35   21   35 1   
    36   22   23 3   
@<TRIPOS>SUBSTRUCTURE
     1 IET         1 TEMP              0 ****  ****    0 ROOT
