@<TRIPOS>MOLECULE
IET
   37    38     1     0     0
SMALL
bcc


@<TRIPOS>ATOM
      1 C1          0.3770   -0.1400   -0.3410 ca        1 IET     -0.147300
      2 C7          0.3660   -0.6710   -1.7290 c3        1 IET     -0.117400
      3 C2          1.4180    0.6930    0.1030 ca        1 IET      0.020400
      4 CL2         2.6030    1.2500   -0.9760 cl        1 IET     -0.059900
      5 C3          1.5060    1.0800    1.4480 ca        1 IET     -0.087000
      6 C4          0.5450    0.6530    2.3600 ca        1 IET     -0.067000
      7 C5         -0.5230   -0.1440    1.9370 ca        1 IET     -0.087000
      8 C6         -0.6010   -0.5170    0.5970 ca        1 IET      0.020400
      9 CL6        -1.9420   -1.4810    0.1060 cl        1 IET     -0.059900
     10 C8         -0.4730    0.2060   -2.6430 c2        1 IET      0.564200
     11 N1         -1.9500   -0.1260   -2.5560 n4        1 IET     -0.640800
     12 C9         -2.8590    1.0260   -2.7840 c         1 IET      0.013400
     13 N5         -3.0150    1.3830   -4.2410 n4        1 IET     -0.473200
     14 S2         -3.5700    1.7860   -1.6880 s         1 IET      0.265600
     15 N3         -0.1420    1.1520   -3.4310 n2        1 IET     -0.788100
     16 C11        -3.4500    0.2540   -5.0700 ca        1 IET     -0.114400
     17 C12        -4.8200   -0.0610   -5.1550 ca        1 IET     -0.107000
     18 C13        -5.2310   -1.0920   -5.9950 ca        1 IET     -0.071500
     19 C14        -4.2900   -1.8060   -6.7540 ca        1 IET      0.106000
     20 C15        -2.9260   -1.4780   -6.6710 ca        1 IET     -0.071500
     21 C16        -2.5000   -0.4520   -5.8350 ca        1 IET     -0.107000
     22 C17        -4.7160   -2.8540   -7.6120 cg        1 IET      0.156800
     23 N6         -5.0650   -3.7120   -8.3170 n1        1 IET     -0.201800
     24 H71         1.4170   -0.6980   -2.1470 hc        1 IET      0.125200
     25 H72         0.0060   -1.7380   -1.7460 hc        1 IET      0.125200
     26 H3          2.3460    1.7150    1.7850 ha        1 IET      0.189500
     27 H4          0.6260    0.9410    3.4240 ha        1 IET      0.189000
     28 H5         -1.2840   -0.4780    2.6630 ha        1 IET      0.189500
     29 HN1        -2.1390   -0.8860   -3.2300 hn        1 IET      0.496300
     30 HN5        -2.1250    1.7570   -4.6180 hn        1 IET      0.496800
     31 HN3         0.8230    1.4110   -3.5110 hn        1 IET      0.514400
     32 H12        -5.5820    0.5010   -4.5890 ha        1 IET      0.166500
     33 H13        -6.3080   -1.3390   -6.0730 ha        1 IET      0.201000
     34 H15        -2.1880   -2.0280   -7.2860 ha        1 IET      0.201000
     35 H16        -1.4300   -0.1840   -5.8180 ha        1 IET      0.166500
     36 H121       -2.1170   -0.5120   -1.5530 hn        1 IET      0.496300
     37 H52        -3.7310    2.1330   -4.2910 hn        1 IET      0.496800
@<TRIPOS>BOND
     1    1    2 1   
     2    1    3 ar  
     3    1    8 ar  
     4    2   10 1   
     5    2   24 1   
     6    2   25 1   
     7    3    4 1   
     8    3    5 ar  
     9    5    6 ar  
    10    5   26 1   
    11    6    7 ar  
    12    6   27 1   
    13    7    8 ar  
    14    7   28 1   
    15    8    9 1   
    16   10   11 1   
    17   10   15 2   
    18   11   12 1   
    19   11   29 1   
    20   11   36 1   
    21   12   13 1   
    22   12   14 2   
    23   13   16 1   
    24   13   30 1   
    25   13   37 1   
    26   15   31 1   
    27   16   17 ar  
    28   16   21 ar  
    29   17   18 ar  
    30   17   32 1   
    31   18   19 ar  
    32   18   33 1   
    33   19   20 ar  
    34   19   22 1   
    35   20   21 ar  
    36   20   34 1   
    37   21   35 1   
    38   22   23 3   
@<TRIPOS>SUBSTRUCTURE
     1 IET         1 TEMP              0 ****  ****    0 ROOT
