@<TRIPOS>MOLECULE
IET
   36    37     1     0     0
SMALL
bcc


@<TRIPOS>ATOM
      1 C1         -0.0370    0.2320   -0.7560 ca        1 IET     -0.107300
      2 C7         -0.5890    1.3110   -1.6260 c3        1 IET     -0.093600
      3 C2          1.2450    0.3700   -0.1930 ca        1 IET      0.021400
      4 Cl2         2.2010    1.7360   -0.5130 cl        1 IET     -0.024900
      5 C3          1.7680   -0.6150    0.6560 ca        1 IET     -0.100500
      6 C4          1.0180   -1.7480    0.9550 ca        1 IET     -0.083000
      7 C5         -0.2540   -1.9130    0.4050 ca        1 IET     -0.100500
      8 C6         -0.7630   -0.9310   -0.4440 ca        1 IET      0.021400
      9 Cl6        -2.3100   -1.1730   -1.1390 cl        1 IET     -0.024900
     10 C8         -1.2970    2.3920   -0.8480 c2        1 IET      0.411200
     11 N1         -1.1050    2.7750   -4.2880 nv        1 IET     -0.498100
     12 C9         -1.7540    1.5870   -4.2050 c2        1 IET      0.371700
     13 N5         -2.4790    1.1240   -5.2610 nu        1 IET     -0.274300
     14 S2         -1.7470    0.5840   -2.7860 ss        1 IET      0.001700
     15 N3         -1.6080    2.4480    0.3820 n2        1 IET     -0.683100
     16 C11        -3.1700   -0.1250   -5.2080 ca        1 IET     -0.065200
     17 C12        -4.5130   -0.1670   -4.7820 ca        1 IET     -0.107500
     18 C13        -5.2000   -1.3770   -4.7870 ca        1 IET     -0.086500
     19 C14        -4.5620   -2.5490   -5.2170 ca        1 IET      0.039000
     20 C15        -3.2290   -2.5050   -5.6480 ca        1 IET     -0.086500
     21 C16        -2.5310   -1.3010   -5.6470 ca        1 IET     -0.107500
     22 C17        -5.2680   -3.7830   -5.2160 cg        1 IET      0.197800
     23 N6         -5.8450   -4.7930   -5.2150 n1        1 IET     -0.289800
     24 H71         0.2740    1.7750   -2.1810 h1        1 IET      0.111700
     25 H72        -1.5780    3.2700   -1.4700 h4        1 IET      0.014800
     26 H3          2.7750   -0.4880    1.0880 ha        1 IET      0.175500
     27 H4          1.4290   -2.5200    1.6270 ha        1 IET      0.171000
     28 H5         -0.8470   -2.8130    0.6380 ha        1 IET      0.175500
     29 HN1        -1.1130    3.3390   -5.1090 hn        1 IET      0.314200
     30 HN5        -2.5730    1.6450   -6.1100 hn        1 IET      0.318700
     31 HN3        -1.3620    1.6790    0.9710 hn        1 IET      0.411400
     32 H12        -5.0320    0.7470   -4.4500 ha        1 IET      0.159500
     33 H13        -6.2520   -1.4090   -4.4580 ha        1 IET      0.172500
     34 H15        -2.7300   -3.4260   -5.9950 ha        1 IET      0.172500
     35 H16        -1.4860   -1.2820   -5.9970 ha        1 IET      0.159500
     36 H121       -0.6120    3.1270   -3.4990 hn        1 IET      0.314200
@<TRIPOS>BOND
     1    1    2 1   
     2    1    3 ar  
     3    1    8 ar  
     4    2   10 1   
     5    2   14 1   
     6    2   24 1   
     7    3    4 1   
     8    3    5 ar  
     9    5    6 ar  
    10    5   26 1   
    11    6    7 ar  
    12    6   27 1   
    13    7    8 ar  
    14    7   28 1   
    15    8    9 1   
    16   10   15 2   
    17   10   25 1   
    18   11   12 2   
    19   11   29 1   
    20   11   36 1   
    21   12   13 1   
    22   12   14 1   
    23   13   16 1   
    24   13   30 1   
    25   15   31 1   
    26   16   17 ar  
    27   16   21 ar  
    28   17   18 ar  
    29   17   32 1   
    30   18   19 ar  
    31   18   33 1   
    32   19   20 ar  
    33   19   22 1   
    34   20   21 ar  
    35   20   34 1   
    36   21   35 1   
    37   22   23 3   
@<TRIPOS>SUBSTRUCTURE
     1 IET         1 TEMP              0 ****  ****    0 ROOT
