@<TRIPOS>MOLECULE
IET
   35    30     1     0     0
SMALL
bcc


@<TRIPOS>ATOM
      1 C1          2.2600    0.5470   -1.1670 c1        1 IET     -0.072000
      2 C7          2.7190   -0.6320   -2.0000 c2        1 IET     -0.145000
      3 C2          1.2370    1.3630   -1.6260 c2        1 IET     -0.047000
      4 CL2         0.4320    0.9890   -3.1280 cl        1 IET     -0.006000
      5 C3          0.8830    2.4990   -0.9140 c1        1 IET     -0.118000
      6 C4          1.5510    2.8190    0.2560 c1        1 IET     -0.110500
      7 C5          2.5730    2.0040    0.7160 c1        1 IET     -0.110500
      8 C6          2.9280    0.8680    0.0040 c1        1 IET     -0.055000
      9 CL6         4.2570   -0.1250    0.5500 cl        1 IET      0.003000
     10 C8          2.1530   -1.9100   -1.4200 c2        1 IET      0.125000
     11 N1          1.4190   -1.8750   -0.2040 n         1 IET     -0.306000
     12 C9          0.0290   -2.1450   -0.2080 c2        1 IET      0.180000
     13 N5         -0.8830   -1.1380   -0.5900 n         1 IET     -0.255000
     14 S2         -0.5250   -3.6800    0.1580 s         1 IET     -0.282000
     15 N3          2.3390   -3.0450   -2.0370 n1        1 IET     -0.327000
     16 C11        -1.8100   -0.6280    0.3550 c2        1 IET      0.087000
     17 C12        -1.7530    0.7030    0.7310 c2        1 IET     -0.174000
     18 C13        -2.6980    1.2190    1.6060 c1        1 IET     -0.074000
     19 C14        -3.7000    0.4010    2.1040 c1        1 IET     -0.036000
     20 C15        -3.7590   -0.9320    1.7270 c1        1 IET     -0.069000
     21 C16        -2.8140   -1.4470    0.8530 c1        1 IET     -0.153000
     22 C17        -4.7350    0.9650    3.0530 c1        1 IET     -0.092000
     23 N6         -5.5140    1.3900    3.7690 n1        1 IET     -0.042000
     24 H71         3.6970   -0.6760   -1.9930 ha        1 IET      0.126000
     25 H72         2.4040   -0.5240   -2.9180 ha        1 IET      0.126000
     26 H3          0.1600    3.0750   -1.2380 ha        1 IET      0.157000
     27 H4          1.3010    3.6200    0.7590 ha        1 IET      0.154000
     28 H5          3.0440    2.2290    1.5410 ha        1 IET      0.154000
     29 HN1         1.8370   -1.6470    0.5740 hn        1 IET      0.280000
     30 HN5        -0.8200   -0.7590   -1.4080 hn        1 IET      0.274000
     31 HN3         2.8120   -3.0680   -2.8200 DU        1 IET      0.172000
     32 H12        -1.0470    1.2800    0.3800 ha        1 IET      0.143000
     33 H13        -2.6570    2.1570    1.8710 ha        1 IET      0.146000
     34 H15        -4.4660   -1.5090    2.0780 ha        1 IET      0.150000
     35 H16        -2.8550   -2.3860    0.5880 ha        1 IET      0.197000
@<TRIPOS>BOND
     1    1    3 1   
     2    1    8 1   
     3    2   10 1   
     4    2   24 1   
     5    2   25 1   
     6    3    4 1   
     7    3    5 1   
     8    5   26 1   
     9    6    7 1   
    10    6   27 1   
    11    7   28 1   
    12    8    9 1   
    13   10   11 1   
    14   10   15 1   
    15   11   12 1   
    16   11   29 1   
    17   12   13 1   
    18   12   14 1   
    19   13   16 1   
    20   13   30 1   
    21   16   17 1   
    22   16   21 1   
    23   17   18 1   
    24   17   32 1   
    25   18   33 1   
    26   19   20 1   
    27   19   22 1   
    28   20   34 1   
    29   21   35 1   
    30   22   23 1   
@<TRIPOS>SUBSTRUCTURE
     1 IET         1 TEMP              0 ****  ****    0 ROOT
