@<TRIPOS>MOLECULE
IEY
   40    32     1     0     0
SMALL
bcc


@<TRIPOS>ATOM
      1 CA1         1.0180    1.0570   -2.4210 c1        1 IEY     -0.074500
      2 CB1         2.3810    1.0050   -2.4980 c1        1 IEY     -0.074500
      3 CG1         3.2160    0.9590   -1.2230 c1        1 IEY     -0.079250
      4 C1          0.3290    1.0680   -1.0560 c1        1 IEY     -0.095000
      5 N2          0.2770    0.0280   -0.1790 n2        1 IEY     -0.155750
      6 N3         -0.4300    2.0810   -0.5530 n2        1 IEY     -0.155750
      7 C2         -0.9430    1.6730    0.6170 c1        1 IEY     -0.079250
      8 O2         -1.8120    2.4180    1.4490 o         1 IEY     -0.275000
      9 CA2        -0.5020    0.3910    0.8510 c1        1 IEY     -0.079250
     10 CA3        -0.6470    3.3630   -1.1700 c2        1 IEY     -0.125000
     11 CB2        -0.7700   -0.4390    2.1140 c2        1 IEY     -0.019000
     12 CG2        -1.5240   -1.7200    1.7350 c2        1 IEY     -0.078000
     13 CD1        -2.9130   -1.7590    1.8150 c2        1 IEY     -0.090000
     14 CD2        -0.8150   -2.8740    1.4140 c1        1 IEY     -0.081000
     15 CE1        -3.5910   -2.9490    1.5740 c1        1 IEY     -0.216000
     16 CE2        -1.4930   -4.0640    1.1730 c1        1 IEY     -0.162000
     17 CZ         -2.8810   -4.1020    1.2530 c1        1 IEY      0.057000
     18 OH         -3.5750   -5.2900    0.9250 oh        1 IEY     -0.266000
     19 C          -1.9260    3.3180   -2.0010 c2        1 IEY      0.336000
     20 O          -3.0180    2.9920   -1.4600 o         1 IEY     -0.553000
     21 CD3         4.1530    1.5760   -0.4310 c1        1 IEY     -0.079250
     22 NE1         5.2670    0.8330   -0.4520 n2        1 IEY     -0.155750
     23 N21         3.7670   -0.1560   -1.7210 n2        1 IEY     -0.155750
     24 C22         5.0390   -0.2440   -1.2490 c1        1 IEY     -0.095000
     25 OXT        -1.9020    3.6640   -3.2150 o         1 IEY     -0.553000
     26 HA1         0.4800    1.0870   -3.2420 ha        1 IEY      0.136500
     27 HB1         2.8240    0.9980   -3.3760 ha        1 IEY      0.136500
     28 H2         -1.3310    2.9420    1.9870 ho        1 IEY      0.292000
     29 HA31        0.1140    3.5790   -1.7530 ha        1 IEY      0.091500
     30 HA32       -0.7330    4.0510   -0.4750 ha        1 IEY      0.091500
     31 HB21       -1.3140    0.0870    2.7420 ha        1 IEY      0.086000
     32 HB22        0.0840   -0.6750    2.5390 ha        1 IEY      0.086000
     33 HD1        -3.4110   -0.9530    2.0690 ha        1 IEY      0.137000
     34 HD2         0.1660   -2.8550    1.3870 ha        1 IEY      0.152000
     35 HE1        -4.5710   -2.9760    1.6310 ha        1 IEY      0.122000
     36 HE2        -0.9930   -4.8770    0.9470 ha        1 IEY      0.139000
     37 HO1        -3.7830   -5.7280    1.6720 ho        1 IEY      0.208000
     38 HD3         4.0360    2.4260    0.0450 DU        1 IEY      0.209000
     39 HA          6.0450    1.0150   -0.0010 DU        1 IEY      0.209000
     40 H22         5.6850   -0.9510   -1.4630 DU        1 IEY      0.209000
@<TRIPOS>BOND
     1    1    2 1   
     2    1   26 1   
     3    2   27 1   
     4    3   21 1   
     5    3   23 1   
     6    4    5 1   
     7    4    6 1   
     8    5    9 1   
     9    6    7 1   
    10    7    9 1   
    11    8   28 1   
    12   10   19 1   
    13   10   29 1   
    14   10   30 1   
    15   11   12 1   
    16   11   31 1   
    17   11   32 1   
    18   12   13 1   
    19   12   14 1   
    20   13   15 1   
    21   13   33 1   
    22   14   34 1   
    23   15   35 1   
    24   16   17 1   
    25   16   36 1   
    26   17   18 1   
    27   18   37 1   
    28   19   20 1   
    29   19   25 1   
    30   21   22 1   
    31   22   24 1   
    32   23   24 1   
@<TRIPOS>SUBSTRUCTURE
     1 IEY         1 TEMP              0 ****  ****    0 ROOT
