@<TRIPOS>MOLECULE
IEY
   40    42     1     0     0
SMALL
bcc


@<TRIPOS>ATOM
      1 CA1         6.1190    1.4640   -2.9200 ce        1 IEY     -0.138800
      2 CB1         5.9230    2.7300   -2.5090 cf        1 IEY     -0.237800
      3 CG1         6.8920    3.7880   -2.6520 cd        1 IEY      0.382100
      4 C1          5.1140    0.4270   -2.7540 cc        1 IEY      0.389300
      5 N2          3.9240    0.5800   -2.0980 nd        1 IEY     -0.648000
      6 N3          5.2530   -0.8940   -3.2590 na        1 IEY     -0.171900
      7 C2          4.0980   -1.5710   -2.8680 cc        1 IEY      0.051500
      8 O2          3.7540   -2.8450   -3.1810 oh        1 IEY     -0.522100
      9 CA2         3.2790   -0.6440   -2.1550 cd        1 IEY      0.225600
     10 CA3         6.3340   -1.4380   -4.0280 c3        1 IEY     -0.119700
     11 CB2         1.9480   -0.9400   -1.5850 c3        1 IEY     -0.029400
     12 CG2         2.0110   -1.4460   -0.1810 ca        1 IEY     -0.087300
     13 CD1         1.2930   -0.8120    0.8350 ca        1 IEY     -0.089500
     14 CD2         2.7790   -2.5810    0.1210 ca        1 IEY     -0.089500
     15 CE1         1.3210   -1.3050    2.1390 ca        1 IEY     -0.187500
     16 CE2         2.8220   -3.0870    1.4150 ca        1 IEY     -0.187500
     17 CZ          2.0850   -2.4430    2.4230 ca        1 IEY      0.100100
     18 OH          2.1500   -2.9940    3.6880 oh        1 IEY     -0.509100
     19 C           7.0860   -2.6560   -3.4060 c         1 IEY      0.916600
     20 O           6.4020   -3.6250   -2.9640 o         1 IEY     -0.817300
     21 CD3         6.7850    5.0630   -2.0440 cc        1 IEY     -0.270600
     22 NE1         7.9160    5.7810   -2.4310 na        1 IEY     -0.331900
     23 N21         8.0780    3.7320   -3.4040 nd        1 IEY     -0.655000
     24 C22         8.6700    4.9330   -3.2520 cc        1 IEY      0.376400
     25 OXT         8.3390   -2.6140   -3.4460 o         1 IEY     -0.817300
     26 HA1         7.0680    1.1610   -3.3950 ha        1 IEY      0.152000
     27 HB1         4.9860    3.0380   -2.0150 ha        1 IEY      0.139000
     28 H2          4.5700   -3.3980   -3.2320 ho        1 IEY      0.493000
     29 HA31        7.0900   -0.6310   -4.2240 h1        1 IEY      0.054700
     30 HA32        5.9140   -1.7860   -5.0160 h1        1 IEY      0.054700
     31 HB21        1.4650   -1.7320   -2.2240 hc        1 IEY      0.050200
     32 HB22        1.3000   -0.0230   -1.6290 hc        1 IEY      0.050200
     33 HD1         0.7030    0.0880    0.6110 ha        1 IEY      0.146000
     34 HD2         3.3610   -3.0620   -0.6850 ha        1 IEY      0.146000
     35 HE1         0.7570   -0.8020    2.9360 ha        1 IEY      0.132000
     36 HE2         3.4250   -3.9710    1.6600 ha        1 IEY      0.132000
     37 HO1         1.6640   -2.4090    4.2840 ho        1 IEY      0.405000
     38 HD3         6.0180    5.4750   -1.3940 h4        1 IEY      0.173000
     39 HA          8.1440    6.6970   -2.1600 hn        1 IEY      0.289700
     40 H22         9.6200    5.2350   -3.7010 h5        1 IEY      0.051100
@<TRIPOS>BOND
     1    1    2 2   
     2    1    4 1   
     3    1   26 1   
     4    2    3 1   
     5    2   27 1   
     6    3   21 2   
     7    3   23 1   
     8    4    5 2   
     9    4    6 1   
    10    5    9 1   
    11    6    7 1   
    12    6   10 1   
    13    7    8 1   
    14    7    9 2   
    15    8   28 1   
    16    9   11 1   
    17   10   19 1   
    18   10   29 1   
    19   10   30 1   
    20   11   12 1   
    21   11   31 1   
    22   11   32 1   
    23   12   13 ar  
    24   12   14 ar  
    25   13   15 ar  
    26   13   33 1   
    27   14   16 ar  
    28   14   34 1   
    29   15   17 ar  
    30   15   35 1   
    31   16   17 ar  
    32   16   36 1   
    33   17   18 1   
    34   18   37 1   
    35   19   20 1   
    36   19   25 1   
    37   21   22 1   
    38   21   38 1   
    39   22   24 1   
    40   22   39 1   
    41   23   24 2   
    42   24   40 1   
@<TRIPOS>SUBSTRUCTURE
     1 IEY         1 TEMP              0 ****  ****    0 ROOT
