@<TRIPOS>MOLECULE
IF7
   22    22     1     0     0
SMALL
bcc


@<TRIPOS>ATOM
      1 O          -0.0300   -0.2500    0.1400 o         1 IF7     -0.658500
      2 C2          1.2040   -0.0570    0.0870 c         1 IF7      0.663500
      3 C3          2.0020    0.0150    1.3900 c3        1 IF7      0.048100
      4 O3          1.4700   -0.8830    2.3470 oh        1 IF7     -0.606800
      5 C4          3.4860   -0.3530    1.2180 c3        1 IF7      0.150100
      6 O2          3.6600   -1.7410    0.9900 oh        1 IF7     -0.602800
      7 C5          4.0510    0.4050    0.0150 c3        1 IF7     -0.074700
      8 C6          5.5240    0.0620   -0.1750 c3        1 IF7      0.137400
      9 O1          6.0240    0.9070   -1.2000 oh        1 IF7     -0.607800
     10 C1          3.2680    0.0600   -1.2570 c3        1 IF7      0.096000
     11 N           1.8410    0.1700   -1.1090 ns        1 IF7     -0.544900
     12 H3          1.9160    1.0690    1.7810 h1        1 IF7      0.072700
     13 H           1.3010    0.0810   -1.9410 hn        1 IF7      0.322500
     14 HA          0.5070   -0.8970    2.2330 ho        1 IF7      0.442000
     15 H4          4.0380   -0.0660    2.1570 h1        1 IF7      0.053700
     16 H2          3.1430   -2.2030    1.6660 ho        1 IF7      0.429000
     17 H5          3.9610    1.5070    0.2220 hc        1 IF7      0.077700
     18 H61C        6.0840    0.2490    0.7810 h1        1 IF7      0.038700
     19 H62C        5.6400   -1.0170   -0.4640 h1        1 IF7      0.038700
     20 H11C        3.5380   -0.9940   -1.5620 h1        1 IF7      0.059700
     21 H12C        3.5970    0.7600   -2.0780 h1        1 IF7      0.059700
     22 H1          6.9480    0.6650   -1.3290 ho        1 IF7      0.406000
@<TRIPOS>BOND
     1    1    2 2   
     2    2    3 1   
     3    2   11 1   
     4    3    4 1   
     5    3    5 1   
     6    3   12 1   
     7    4   14 1   
     8    5    6 1   
     9    5    7 1   
    10    5   15 1   
    11    6   16 1   
    12    7    8 1   
    13    7   10 1   
    14    7   17 1   
    15    8    9 1   
    16    8   18 1   
    17    8   19 1   
    18    9   22 1   
    19   10   11 1   
    20   10   20 1   
    21   10   21 1   
    22   11   13 1   
@<TRIPOS>SUBSTRUCTURE
     1 IF7         1 TEMP              0 ****  ****    0 ROOT
