@<TRIPOS>MOLECULE
IF7
   22    22     1     0     0
SMALL
bcc


@<TRIPOS>ATOM
      1 O          -0.0310   -0.2190    0.1410 o         1 IF7     -0.658500
      2 C2          1.2050   -0.0370    0.0880 c         1 IF7      0.663500
      3 C3          2.0050    0.0260    1.3910 c3        1 IF7      0.048100
      4 O3          1.4650   -0.8680    2.3470 oh        1 IF7     -0.606800
      5 C4          3.4850   -0.3550    1.2170 c3        1 IF7      0.150100
      6 O2          3.6460   -1.7450    0.9890 oh        1 IF7     -0.602800
      7 C5          4.0560    0.3980    0.0150 c3        1 IF7     -0.074700
      8 C6          5.5260    0.0420   -0.1760 c3        1 IF7      0.137400
      9 O1          6.0330    0.8830   -1.2000 oh        1 IF7     -0.607800
     10 C1          3.2700    0.0620   -1.2570 c3        1 IF7      0.096000
     11 N           1.8430    0.1840   -1.1080 n         1 IF7     -0.544900
     12 H3          1.9280    1.0810    1.7820 h1        1 IF7      0.072700
     13 H           1.3020    0.1010   -1.9400 hn        1 IF7      0.322500
     14 HA          0.5010   -0.8730    2.2330 ho        1 IF7      0.442000
     15 H4          4.0400   -0.0740    2.1570 h1        1 IF7      0.053700
     16 H2          3.1250   -2.2020    1.6640 ho        1 IF7      0.429000
     17 H5          3.9760    1.5010    0.2220 hc        1 IF7      0.077700
     18 H61C        5.6320   -1.0380   -0.4660 h1        1 IF7      0.038700
     19 H62C        6.0880    0.2230    0.7800 h1        1 IF7      0.038700
     20 H11C        3.6040    0.7590   -2.0780 h1        1 IF7      0.059700
     21 H12C        3.5290   -0.9950   -1.5630 h1        1 IF7      0.059700
     22 H1          6.9550    0.6330   -1.3300 ho        1 IF7      0.406000
@<TRIPOS>BOND
     1    1    2 2   
     2    2    3 1   
     3    2   11 1   
     4    3    4 1   
     5    3    5 1   
     6    3   12 1   
     7    4   14 1   
     8    5    6 1   
     9    5    7 1   
    10    5   15 1   
    11    6   16 1   
    12    7    8 1   
    13    7   10 1   
    14    7   17 1   
    15    8    9 1   
    16    8   18 1   
    17    8   19 1   
    18    9   22 1   
    19   10   11 1   
    20   10   20 1   
    21   10   21 1   
    22   11   13 1   
@<TRIPOS>SUBSTRUCTURE
     1 IF7         1 TEMP              0 ****  ****    0 ROOT
