@<TRIPOS>MOLECULE
IFA
   39    34     1     0     0
SMALL
bcc


@<TRIPOS>ATOM
      1 FAF         2.8900   -2.4160    2.9060 f         1 IFA     -0.089000
      2 CAT         2.2770   -1.9420    3.9870 c2        1 IFA      0.133000
      3 CAJ         2.9610   -1.8770    5.2050 c2        1 IFA     -0.208000
      4 CAS         2.3400   -1.2760    6.3380 c1        1 IFA      0.124000
      5 FAE         2.9310   -1.3300    7.5190 f         1 IFA     -0.096000
      6 CAH         1.0440   -0.7510    6.2300 c2        1 IFA     -0.180000
      7 CAI         0.3590   -0.8180    5.0050 c1        1 IFA     -0.075000
      8 CAY         0.9780   -1.4150    3.8800 c1        1 IFA     -0.087000
      9 CAW         0.3270   -1.4350    2.6670 c1        1 IFA     -0.080000
     10 CAL         0.4640   -0.3770    1.7930 c1        1 IFA     -0.010000
     11 CAK        -0.5130   -2.4890    2.3440 c1        1 IFA     -0.033000
     12 CAU        -1.2170   -2.4740    1.1330 c1        1 IFA     -0.360000
     13 IAG        -2.5750   -4.0630    0.6520 i         1 IFA      0.159000
     14 CAV        -1.0750   -1.4070    0.2590 c2        1 IFA      0.149000
     15 OAD        -1.6500   -1.4820   -1.0560 oh        1 IFA     -0.258000
     16 CAX        -0.2470   -0.3680    0.5780 c1        1 IFA     -0.149000
     17 CAR        -0.0900    0.8320   -0.4100 c2        1 IFA      0.348000
     18 OAC         0.6630    1.7760   -0.1200 o         1 IFA     -0.357000
     19 NAO        -0.8720    0.8740   -1.6520 n         1 IFA     -0.352000
     20 CAM        -0.4870    1.7640   -2.7130 c3        1 IFA     -0.029000
     21 CAN        -1.0680    1.2520   -4.0380 c3        1 IFA     -0.192000
     22 CAQ        -0.5880    2.1700   -5.2090 c2        1 IFA      0.305000
     23 OAB         0.4400    2.7860   -5.1030 o         1 IFA     -0.355000
     24 OAP        -1.4240    2.4560   -6.1960 os        1 IFA     -0.276000
     25 CAA        -0.7900    3.1520   -7.3270 c3        1 IFA     -0.064000
     26 HAJ         3.7830   -2.3220    5.3030 ha        1 IFA      0.169000
     27 HAH         0.5800   -0.3050    7.0690 ha        1 IFA      0.157000
     28 HAI        -0.5960   -0.4310    4.9250 ha        1 IFA      0.146000
     29 HAL         1.0350    0.3410    2.0080 ha        1 IFA      0.173000
     30 HAK        -0.6450   -3.2090    2.9720 ha        1 IFA      0.153000
     31 HOAD       -2.5730   -1.5490   -0.9850 ho        1 IFA      0.241000
     32 HNAO       -1.5930    0.3830   -1.7330 hn        1 IFA      0.230000
     33 HAM1       -0.8380    2.6720   -2.5260 h1        1 IFA      0.119500
     34 HAM2        0.5170    1.7990   -2.7770 h1        1 IFA      0.119500
     35 HAN1       -2.1080    1.2670   -3.9900 hc        1 IFA      0.126000
     36 HAN2       -0.7710    0.3630   -4.1910 hc        1 IFA      0.126000
     37 HAA1        0.0230    2.5710   -7.6920 h1        1 IFA      0.090667
     38 HAA2       -0.4670    4.0020   -7.0370 h1        1 IFA      0.090667
     39 HAA3       -1.4230    3.2760   -8.0160 h1        1 IFA      0.090667
@<TRIPOS>BOND
     1    1    2 1   
     2    2    3 1   
     3    2    8 1   
     4    3    4 1   
     5    3   26 1   
     6    4    6 1   
     7    6    7 1   
     8    6   27 1   
     9    7   28 1   
    10    9   10 1   
    11   10   29 1   
    12   11   12 1   
    13   11   30 1   
    14   12   14 1   
    15   14   15 1   
    16   14   16 1   
    17   15   31 1   
    18   16   17 1   
    19   17   18 1   
    20   17   19 1   
    21   19   20 1   
    22   19   32 1   
    23   20   21 1   
    24   20   33 1   
    25   20   34 1   
    26   21   22 1   
    27   21   35 1   
    28   21   36 1   
    29   22   23 1   
    30   22   24 1   
    31   24   25 1   
    32   25   37 1   
    33   25   38 1   
    34   25   39 1   
@<TRIPOS>SUBSTRUCTURE
     1 IFA         1 TEMP              0 ****  ****    0 ROOT
