@<TRIPOS>MOLECULE
IFA
   40    41     1     0     0
SMALL
bcc


@<TRIPOS>ATOM
      1 FAF         0.2800    0.0790    0.4710 f         1 IFA     -0.129900
      2 CAT         1.3110   -0.7550    0.2000 ca        1 IFA      0.174900
      3 CAJ         1.7180   -1.6670    1.1880 ca        1 IFA     -0.202000
      4 CAS         2.7870   -2.5370    0.9210 ca        1 IFA      0.185900
      5 FAE         3.1840   -3.4180    1.8640 f         1 IFA     -0.111900
      6 CAH         3.4480   -2.4940   -0.3230 ca        1 IFA     -0.175000
      7 CAI         3.0360   -1.5830   -1.2850 ca        1 IFA     -0.065000
      8 CAY         1.9700   -0.7020   -1.0520 cp        1 IFA     -0.130000
      9 CAW         1.5690    0.2400   -2.0920 cp        1 IFA     -0.045000
     10 CAL         2.5340    0.9740   -2.7800 ca        1 IFA     -0.007000
     11 CAK         0.2140    0.4120   -2.4260 ca        1 IFA      0.022000
     12 CAU        -0.1760    1.2970   -3.4280 ca        1 IFA     -0.073100
     13 IAG        -2.1500    1.4520   -3.8380 i         1 IFA     -0.063900
     14 CAV         0.8020    2.0410   -4.1130 ca        1 IFA      0.218100
     15 OAD         0.4920    2.9400   -5.1000 oh        1 IFA     -0.544100
     16 CAX         2.1710    1.8870   -3.7940 ca        1 IFA     -0.238600
     17 CAR         3.2890    2.5730   -4.4390 c         1 IFA      0.585700
     18 OAC         4.4780    2.2860   -4.3350 o         1 IFA     -0.449100
     19 NAO         2.9810    3.7680   -5.3080 ny        1 IFA     -0.672800
     20 CAM         4.1910    4.5430   -5.7020 c3        1 IFA      0.119800
     21 CAN         3.8810    5.7430   -6.5830 c3        1 IFA     -0.168400
     22 CAQ         3.1810    5.3490   -7.8500 c         1 IFA      0.630100
     23 OAB         2.4280    4.3760   -7.9990 o         1 IFA     -0.582000
     24 OAP         3.4210    6.1800   -8.8870 os        1 IFA     -0.397900
     25 CAA         2.7640    5.8840  -10.1300 c3        1 IFA      0.121700
     26 HAJ         1.2010   -1.6970    2.1590 ha        1 IFA      0.182000
     27 HAH         4.2820   -3.1850   -0.5200 ha        1 IFA      0.169000
     28 HAI         3.5510   -1.5590   -2.2590 ha        1 IFA      0.145000
     29 HAL         3.6040    0.8470   -2.5320 ha        1 IFA      0.177000
     30 HAK        -0.5460   -0.1690   -1.8690 ha        1 IFA      0.186000
     31 HOAD       -0.4620    2.8920   -5.3010 ho        1 IFA      0.479000
     32 HNAO        2.3160    4.3720   -4.8100 hn        1 IFA      0.481300
     33 HAM1        4.7090    4.8900   -4.7610 hx        1 IFA      0.119700
     34 HAM2        4.8860    3.8340   -6.2420 hx        1 IFA      0.119700
     35 HAN1        3.2400    6.4980   -6.0510 hc        1 IFA      0.121200
     36 HAN2        4.8560    6.2510   -6.8320 hc        1 IFA      0.121200
     37 HAA1        1.6580    5.9200   -9.9880 h1        1 IFA      0.071033
     38 HAA2        3.1250    6.7000  -10.8050 h1        1 IFA      0.071033
     39 HAA3        3.0800    4.8760  -10.4910 h1        1 IFA      0.071033
     40 HAO2        2.4910    3.4320   -6.1650 hn        1 IFA      0.481300
@<TRIPOS>BOND
     1    1    2 1   
     2    2    3 ar  
     3    2    8 ar  
     4    3    4 ar  
     5    3   26 1   
     6    4    5 1   
     7    4    6 ar  
     8    6    7 ar  
     9    6   27 1   
    10    7    8 ar  
    11    7   28 1   
    12    8    9 1   
    13    9   10 ar  
    14    9   11 ar  
    15   10   16 ar  
    16   10   29 1   
    17   11   12 ar  
    18   11   30 1   
    19   12   13 1   
    20   12   14 ar  
    21   14   15 1   
    22   14   16 ar  
    23   15   31 1   
    24   16   17 1   
    25   17   18 2   
    26   17   19 1   
    27   19   20 1   
    28   19   32 1   
    29   19   40 1   
    30   20   21 1   
    31   20   33 1   
    32   20   34 1   
    33   21   22 1   
    34   21   35 1   
    35   21   36 1   
    36   22   23 2   
    37   22   24 1   
    38   24   25 1   
    39   25   37 1   
    40   25   38 1   
    41   25   39 1   
@<TRIPOS>SUBSTRUCTURE
     1 IFA         1 TEMP              0 ****  ****    0 ROOT
