@<TRIPOS>MOLECULE
IFA
   39    40     1     0     0
SMALL
bcc


@<TRIPOS>ATOM
      1 FAF        -2.8070    2.6490   -1.6710 f         1 IFA     -0.127900
      2 CAT        -2.1390    3.2760   -0.6750 ca        1 IFA      0.164900
      3 CAJ        -2.3740    4.6480   -0.4750 ca        1 IFA     -0.206000
      4 CAS        -1.6920    5.3200    0.5500 ca        1 IFA      0.157900
      5 FAE        -1.9130    6.6400    0.7490 f         1 IFA     -0.129900
      6 CAH        -0.7790    4.6290    1.3700 ca        1 IFA     -0.179000
      7 CAI        -0.5590    3.2760    1.1560 ca        1 IFA     -0.078000
      8 CAY        -1.2230    2.5720    0.1410 cp        1 IFA     -0.081000
      9 CAW        -0.9530    1.1490   -0.0440 cp        1 IFA     -0.091000
     10 CAL         0.3640    0.6810   -0.0530 ca        1 IFA     -0.041000
     11 CAK        -2.0030    0.2310   -0.1990 ca        1 IFA     -0.021000
     12 CAU        -1.7560   -1.1260   -0.3710 ca        1 IFA     -0.025100
     13 IAG        -3.3520   -2.3510   -0.5830 i         1 IFA     -0.102900
     14 CAV        -0.4210   -1.5890   -0.3970 ca        1 IFA      0.238100
     15 OAD        -0.2470   -2.9290   -0.5780 oh        1 IFA     -0.486100
     16 CAX         0.6440   -0.6780   -0.2130 ca        1 IFA     -0.238600
     17 CAR         2.0530   -1.1600   -0.2240 c         1 IFA      0.680700
     18 OAC         2.4180   -2.0980   -0.9690 o         1 IFA     -0.626100
     19 NAO         2.9420   -0.5720    0.6510 n         1 IFA     -0.558900
     20 CAM         4.3330   -0.9220    0.6890 c3        1 IFA      0.092000
     21 CAN         5.2340    0.0060   -0.1340 c3        1 IFA     -0.158400
     22 CAQ         6.6690   -0.2650    0.1890 c         1 IFA      0.632100
     23 OAB         7.1650   -0.6430    1.2530 o         1 IFA     -0.542000
     24 OAP         7.5030   -0.0250   -0.8670 os        1 IFA     -0.436900
     25 CAA         8.8980   -0.2410   -0.6470 c3        1 IFA      0.125700
     26 HAJ        -3.0860    5.1850   -1.1180 ha        1 IFA      0.169000
     27 HAH        -0.2540    5.1670    2.1730 ha        1 IFA      0.156000
     28 HAI         0.1490    2.7350    1.8040 ha        1 IFA      0.142000
     29 HAL         1.1850    1.4110    0.0450 ha        1 IFA      0.137000
     30 HAK        -3.0400    0.6090   -0.1960 ha        1 IFA      0.160000
     31 HOAD        0.6910   -3.1280   -0.7510 ho        1 IFA      0.467000
     32 HNAO        2.6460    0.1970    1.2030 hn        1 IFA      0.314500
     33 HAM1        4.6760   -0.8980    1.7640 h1        1 IFA      0.082200
     34 HAM2        4.4540   -1.9760    0.3020 h1        1 IFA      0.082200
     35 HAN1        5.0580   -0.1440   -1.2320 hc        1 IFA      0.085700
     36 HAN2        5.0350    1.0850    0.1030 hc        1 IFA      0.085700
     37 HAA1        9.0790   -1.3060   -0.3670 h1        1 IFA      0.053033
     38 HAA2        9.3620    0.0090   -1.6330 h1        1 IFA      0.053033
     39 HAA3        9.2650    0.4350    0.1620 h1        1 IFA      0.053033
@<TRIPOS>BOND
     1    1    2 1   
     2    2    3 ar  
     3    2    8 ar  
     4    3    4 ar  
     5    3   26 1   
     6    4    5 1   
     7    4    6 ar  
     8    6    7 ar  
     9    6   27 1   
    10    7    8 ar  
    11    7   28 1   
    12    8    9 1   
    13    9   10 ar  
    14    9   11 ar  
    15   10   16 ar  
    16   10   29 1   
    17   11   12 ar  
    18   11   30 1   
    19   12   13 1   
    20   12   14 ar  
    21   14   15 1   
    22   14   16 ar  
    23   15   31 1   
    24   16   17 1   
    25   17   18 2   
    26   17   19 1   
    27   19   20 1   
    28   19   32 1   
    29   20   21 1   
    30   20   33 1   
    31   20   34 1   
    32   21   22 1   
    33   21   35 1   
    34   21   36 1   
    35   22   23 2   
    36   22   24 1   
    37   24   25 1   
    38   25   37 1   
    39   25   38 1   
    40   25   39 1   
@<TRIPOS>SUBSTRUCTURE
     1 IFA         1 TEMP              0 ****  ****    0 ROOT
