@<TRIPOS>MOLECULE
IFA
   40    41     1     0     0
SMALL
bcc


@<TRIPOS>ATOM
      1 FAF        -0.1770   -0.5000   -0.0850 f         1 IFA     -0.129900
      2 CAT         1.0920   -0.9670   -0.0100 ca        1 IFA      0.174900
      3 CAJ         1.4710   -1.7090    1.1210 ca        1 IFA     -0.202000
      4 CAS         2.7840   -2.1970    1.2130 ca        1 IFA      0.185900
      5 FAE         3.1560   -2.9140    2.2950 f         1 IFA     -0.111900
      6 CAH         3.7140   -1.9430    0.1840 ca        1 IFA     -0.175000
      7 CAI         3.3230   -1.2040   -0.9220 ca        1 IFA     -0.065000
      8 CAY         2.0180   -0.7040   -1.0470 cp        1 IFA     -0.130000
      9 CAW         1.6500    0.0700   -2.2290 cp        1 IFA     -0.045000
     10 CAL         2.4950    1.0730   -2.7000 ca        1 IFA     -0.007000
     11 CAK         0.4520   -0.1910   -2.9170 ca        1 IFA      0.022000
     12 CAU         0.1000    0.5310   -4.0540 ca        1 IFA     -0.074100
     13 IAG        -1.6380    0.0610   -4.9750 i         1 IFA     -0.063900
     14 CAV         0.9540    1.5480   -4.5200 ca        1 IFA      0.218100
     15 OAD         0.6670    2.3080   -5.6230 oh        1 IFA     -0.544100
     16 CAX         2.1640    1.8300   -3.8440 ca        1 IFA     -0.238600
     17 CAR         3.1520    2.8360   -4.2300 c         1 IFA      0.585700
     18 OAC         4.2950    2.9380   -3.7940 o         1 IFA     -0.449100
     19 NAO         2.7480    3.8740   -5.2480 n4        1 IFA     -0.672800
     20 CAM         3.7280    4.9890   -5.3790 c3        1 IFA      0.119800
     21 CAN         3.3230    6.0310   -6.4110 c3        1 IFA     -0.168400
     22 CAQ         3.1510    5.4360   -7.7770 c         1 IFA      0.630100
     23 OAB         2.7970    4.2760   -8.0320 o         1 IFA     -0.582000
     24 OAP         3.4040    6.3000   -8.7830 os        1 IFA     -0.397900
     25 CAA         3.2340    5.8120  -10.1250 c3        1 IFA      0.121700
     26 HAJ         0.7430   -1.9040    1.9230 ha        1 IFA      0.182000
     27 HAH         4.7380   -2.3360    0.2690 ha        1 IFA      0.169000
     28 HAI         4.0510   -1.0140   -1.7280 ha        1 IFA      0.145000
     29 HAL         3.4440    1.2870   -2.1720 ha        1 IFA      0.177000
     30 HAK        -0.2180   -0.9840   -2.5310 ha        1 IFA      0.186000
     31 HOAD       -0.1360    1.9640   -6.0600 ho        1 IFA      0.479000
     32 HNAO        2.6360    3.4000   -6.1710 hn        1 IFA      0.481300
     33 HAM1        4.7240    4.5340   -5.6570 hx        1 IFA      0.119700
     34 HAM2        3.8370    5.4810   -4.3700 hx        1 IFA      0.119700
     35 HAN1        4.1280    6.8190   -6.4400 hc        1 IFA      0.121200
     36 HAN2        2.3640    6.5460   -6.1310 hc        1 IFA      0.121200
     37 HAA1        3.5030    6.7010  -10.7500 h1        1 IFA      0.071033
     38 HAA2        3.9260    4.9550  -10.3020 h1        1 IFA      0.071033
     39 HAA3        2.1740    5.5000  -10.2790 h1        1 IFA      0.071033
     40 HAO2        1.8220    4.2380   -4.9940 hn        1 IFA      0.481300
@<TRIPOS>BOND
     1    1    2 1   
     2    2    3 ar  
     3    2    8 ar  
     4    3    4 ar  
     5    3   26 1   
     6    4    5 1   
     7    4    6 ar  
     8    6    7 ar  
     9    6   27 1   
    10    7    8 ar  
    11    7   28 1   
    12    8    9 1   
    13    9   10 ar  
    14    9   11 ar  
    15   10   16 ar  
    16   10   29 1   
    17   11   12 ar  
    18   11   30 1   
    19   12   13 1   
    20   12   14 ar  
    21   14   15 1   
    22   14   16 ar  
    23   15   31 1   
    24   16   17 1   
    25   17   18 2   
    26   17   19 1   
    27   19   20 1   
    28   19   32 1   
    29   19   40 1   
    30   20   21 1   
    31   20   33 1   
    32   20   34 1   
    33   21   22 1   
    34   21   35 1   
    35   21   36 1   
    36   22   23 2   
    37   22   24 1   
    38   24   25 1   
    39   25   37 1   
    40   25   38 1   
    41   25   39 1   
@<TRIPOS>SUBSTRUCTURE
     1 IFA         1 TEMP              0 ****  ****    0 ROOT
