@<TRIPOS>MOLECULE
IFA
   40    41     1     0     0
SMALL
bcc


@<TRIPOS>ATOM
      1 FAF         0.2170    0.1060    0.4540 f         1 IFA     -0.129900
      2 CAT         1.2320   -0.7480    0.1840 ca        1 IFA      0.174900
      3 CAJ         1.6150   -1.6730    1.1700 ca        1 IFA     -0.202000
      4 CAS         2.6670   -2.5630    0.9050 ca        1 IFA      0.185900
      5 FAE         3.0410   -3.4570    1.8450 f         1 IFA     -0.111900
      6 CAH         3.3350   -2.5290   -0.3370 ca        1 IFA     -0.175000
      7 CAI         2.9460   -1.6060   -1.2960 ca        1 IFA     -0.065000
      8 CAY         1.8970   -0.7040   -1.0640 cp        1 IFA     -0.130000
      9 CAW         1.5220    0.2510   -2.1030 cp        1 IFA     -0.045000
     10 CAL         2.5050    0.9680   -2.7830 ca        1 IFA     -0.007000
     11 CAK         0.1720    0.4530   -2.4420 ca        1 IFA      0.022000
     12 CAU        -0.1950    1.3500   -3.4420 ca        1 IFA     -0.073100
     13 IAG        -2.1630    1.5480   -3.8610 i         1 IFA     -0.063900
     14 CAV         0.8020    2.0760   -4.1190 ca        1 IFA      0.218100
     15 OAD         0.5150    2.9850   -5.1040 oh        1 IFA     -0.544100
     16 CAX         2.1660    1.8920   -3.7950 ca        1 IFA     -0.238600
     17 CAR         3.3010    2.5580   -4.4310 c         1 IFA      0.585700
     18 OAC         4.4830    2.2460   -4.3230 o         1 IFA     -0.449100
     19 NAO         3.0220    3.7610   -5.2980 n4        1 IFA     -0.672800
     20 CAM         4.2500    4.5120   -5.6840 c3        1 IFA      0.119800
     21 CAN         3.9690    5.7210   -6.5630 c3        1 IFA     -0.168400
     22 CAQ         3.2680    5.3450   -7.8350 c         1 IFA      0.630100
     23 OAB         2.4950    4.3880   -7.9900 o         1 IFA     -0.582000
     24 OAP         3.5300    6.1730   -8.8670 os        1 IFA     -0.397900
     25 CAA         2.8730    5.8940  -10.1150 c3        1 IFA      0.121700
     26 HAJ         1.0930   -1.6960    2.1390 ha        1 IFA      0.182000
     27 HAH         4.1550   -3.2370   -0.5320 ha        1 IFA      0.169000
     28 HAI         3.4660   -1.5880   -2.2680 ha        1 IFA      0.145000
     29 HAL         3.5710    0.8170   -2.5300 ha        1 IFA      0.177000
     30 HAK        -0.6030   -0.1150   -1.8910 ha        1 IFA      0.186000
     31 HOAD       -0.4390    2.9580   -5.3090 ho        1 IFA      0.479000
     32 HNAO        2.3670    4.3780   -4.8010 hn        1 IFA      0.481300
     33 HAM1        4.7700    4.8450   -4.7400 hx        1 IFA      0.119700
     34 HAM2        4.9330    3.7900   -6.2230 hx        1 IFA      0.119700
     35 HAN1        3.3410    6.4870   -6.0320 hc        1 IFA      0.121200
     36 HAN2        4.9550    6.2090   -6.8050 hc        1 IFA      0.121200
     37 HAA1        1.7670    5.9530   -9.9780 h1        1 IFA      0.071033
     38 HAA2        3.2540    6.7050  -10.7860 h1        1 IFA      0.071033
     39 HAA3        3.1700    4.8810  -10.4770 h1        1 IFA      0.071033
     40 HAO2        2.5290    3.4380   -6.1580 hn        1 IFA      0.481300
@<TRIPOS>BOND
     1    1    2 1   
     2    2    3 ar  
     3    2    8 ar  
     4    3    4 ar  
     5    3   26 1   
     6    4    5 1   
     7    4    6 ar  
     8    6    7 ar  
     9    6   27 1   
    10    7    8 ar  
    11    7   28 1   
    12    8    9 1   
    13    9   10 ar  
    14    9   11 ar  
    15   10   16 ar  
    16   10   29 1   
    17   11   12 ar  
    18   11   30 1   
    19   12   13 1   
    20   12   14 ar  
    21   14   15 1   
    22   14   16 ar  
    23   15   31 1   
    24   16   17 1   
    25   17   18 2   
    26   17   19 1   
    27   19   20 1   
    28   19   32 1   
    29   19   40 1   
    30   20   21 1   
    31   20   33 1   
    32   20   34 1   
    33   21   22 1   
    34   21   35 1   
    35   21   36 1   
    36   22   23 2   
    37   22   24 1   
    38   24   25 1   
    39   25   37 1   
    40   25   38 1   
    41   25   39 1   
@<TRIPOS>SUBSTRUCTURE
     1 IFA         1 TEMP              0 ****  ****    0 ROOT
