@<TRIPOS>MOLECULE
IFB
   36    37     1     0     0
SMALL
bcc


@<TRIPOS>ATOM
      1 OAP         0.0000    1.8500   -2.7200 oh        1 IFB     -0.579100
      2 CAQ        -0.5900    0.7210   -2.2410 c         1 IFB      0.627100
      3 OAB        -1.7720    0.6070   -2.5740 o         1 IFB     -0.502000
      4 CAN         0.1390   -0.2350   -1.3470 c3        1 IFB     -0.209400
      5 CAM         1.6260   -0.4240   -1.6400 c3        1 IFB      0.082000
      6 NAO         1.9500   -0.8410   -2.9740 n         1 IFB     -0.554900
      7 CAR         2.4610    0.0410   -3.9060 c         1 IFB      0.688700
      8 OAC         2.7360    1.2180   -3.5800 o         1 IFB     -0.630100
      9 CAX         2.7660   -0.4560   -5.2780 ca        1 IFB     -0.174600
     10 CAL         3.9200    0.0490   -5.8830 ca        1 IFB     -0.017000
     11 CAV         1.9460   -1.3520   -5.9960 ca        1 IFB      0.201100
     12 OAD         0.8210   -1.8060   -5.3580 oh        1 IFB     -0.503100
     13 CAU         2.2980   -1.7380   -7.3030 ca        1 IFB     -0.073100
     14 IAG         1.1770   -3.0080   -8.4090 i         1 IFB     -0.119900
     15 CAK         3.4620   -1.2310   -7.8770 ca        1 IFB     -0.019000
     16 CAW         4.2810   -0.3340   -7.1810 cp        1 IFB     -0.081000
     17 CAY         5.4810    0.2250   -7.7960 cp        1 IFB     -0.086000
     18 CAT         6.4050   -0.5730   -8.5110 ca        1 IFB      0.161900
     19 FAF         6.2090   -1.9050   -8.6520 f         1 IFB     -0.131900
     20 CAI         5.7400    1.5990   -7.6780 ca        1 IFB     -0.072000
     21 CAH         6.8670    2.1800   -8.2430 ca        1 IFB     -0.178000
     22 CAS         7.7790    1.3740   -8.9520 ca        1 IFB      0.158900
     23 FAE         8.8820    1.9300   -9.5050 f         1 IFB     -0.130900
     24 CAJ         7.5530   -0.0030   -9.0880 ca        1 IFB     -0.208000
     25 HAN1        0.0390    0.1440   -0.2940 hc        1 IFB      0.087200
     26 HAN2       -0.3920   -1.2240   -1.4020 hc        1 IFB      0.087200
     27 HAM1        2.1800    0.5320   -1.4110 h1        1 IFB      0.070200
     28 HAM2        2.0070   -1.2190   -0.9330 h1        1 IFB      0.070200
     29 HNAO        0.9520    1.8560   -2.5290 ho        1 IFB      0.448000
     30 HAL         4.5430    0.7670   -5.3210 ha        1 IFB      0.166000
     31 HOAD        0.2780   -2.3080   -5.9910 ho        1 IFB      0.447000
     32 HAK         3.7550   -1.5380   -8.8970 ha        1 IFB      0.161000
     33 HAI         5.0240    2.2320   -7.1280 ha        1 IFB      0.154000
     34 HAH         7.0540    3.2590   -8.1450 ha        1 IFB      0.159000
     35 HAJ         8.2660   -0.6350   -9.6380 ha        1 IFB      0.168000
     36 HAO2        1.5760   -1.7080   -3.2860 hn        1 IFB      0.330500
@<TRIPOS>BOND
     1    1    2 1   
     2    1   29 1   
     3    2    3 2   
     4    2    4 1   
     5    4    5 1   
     6    4   25 1   
     7    4   26 1   
     8    5    6 1   
     9    5   27 1   
    10    5   28 1   
    11    6    7 1   
    12    6   36 1   
    13    7    8 2   
    14    7    9 1   
    15    9   10 ar  
    16    9   11 ar  
    17   10   16 ar  
    18   10   30 1   
    19   11   12 1   
    20   11   13 ar  
    21   12   31 1   
    22   13   14 1   
    23   13   15 ar  
    24   15   16 ar  
    25   15   32 1   
    26   16   17 1   
    27   17   18 ar  
    28   17   20 ar  
    29   18   19 1   
    30   18   24 ar  
    31   20   21 ar  
    32   20   33 1   
    33   21   22 ar  
    34   21   34 1   
    35   22   23 1   
    36   22   24 ar  
    37   24   35 1   
@<TRIPOS>SUBSTRUCTURE
     1 IFB         1 TEMP              0 ****  ****    0 ROOT
