@<TRIPOS>MOLECULE
IFB
   35    36     1     0     0
SMALL
bcc


@<TRIPOS>ATOM
      1 OAP        -7.1790   -0.6590    1.2710 o         1 IFB     -0.838300
      2 CAQ        -6.9150   -0.0590    0.1910 c         1 IFB      0.915600
      3 OAB        -7.7790    0.4070   -0.6020 o         1 IFB     -0.838300
      4 CAN        -5.4310    0.1570   -0.1800 c3        1 IFB     -0.227400
      5 CAM        -4.6040   -1.0550    0.2210 c3        1 IFB      0.079000
      6 NAO        -3.1890   -0.7750    0.3750 n         1 IFB     -0.523900
      7 CAR        -2.2110   -1.3590   -0.3760 c         1 IFB      0.657700
      8 OAC        -2.4190   -2.3610   -1.1060 o         1 IFB     -0.654100
      9 CAX        -0.8210   -0.8110   -0.2570 ca        1 IFB     -0.222600
     10 CAL        -0.6120    0.5660   -0.2130 ca        1 IFB     -0.038000
     11 CAV         0.2910   -1.6850   -0.2330 ca        1 IFB      0.235100
     12 OAD         0.1790   -3.0410   -0.3030 oh        1 IFB     -0.497100
     13 CAU         1.5950   -1.1590   -0.1140 ca        1 IFB     -0.031100
     14 IAG         3.2520   -2.3170   -0.0320 i         1 IFB     -0.133900
     15 CAK         1.7720    0.2200   -0.0540 ca        1 IFB     -0.034000
     16 CAW         0.6820    1.0970   -0.1170 cp        1 IFB     -0.105000
     17 CAY         0.8750    2.5440   -0.1080 cp        1 IFB     -0.064000
     18 CAT         1.7740    3.1850    0.7760 ca        1 IFB      0.154900
     19 FAF         2.5020    2.4730    1.6700 f         1 IFB     -0.133900
     20 CAI         0.1450    3.3410   -1.0030 ca        1 IFB     -0.077000
     21 CAH         0.2880    4.7210   -1.0380 ca        1 IFB     -0.175000
     22 CAS         1.1880    5.3450   -0.1540 ca        1 IFB      0.144900
     23 FAE         1.3390    6.6910   -0.1800 f         1 IFB     -0.139900
     24 CAJ         1.9330    4.5820    0.7560 ca        1 IFB     -0.210000
     25 HAN1       -5.3470    0.3490   -1.2770 hc        1 IFB      0.026700
     26 HAN2       -5.0940    1.0770    0.3620 hc        1 IFB      0.026700
     27 HAM1       -4.9860   -1.4340    1.2160 h1        1 IFB      0.080200
     28 HAM2       -4.7310   -1.8730   -0.5410 h1        1 IFB      0.080200
     29 HNAO       -2.9620    0.0420    0.8940 hn        1 IFB      0.301500
     30 HAL        -1.4700    1.2570   -0.2620 ha        1 IFB      0.148000
     31 HOAD       -0.7410   -3.2900   -0.5150 ho        1 IFB      0.474000
     32 HAK         2.7880    0.6410    0.0430 ha        1 IFB      0.149000
     33 HAI        -0.5580    2.8540   -1.6990 ha        1 IFB      0.154000
     34 HAH        -0.2940    5.3300   -1.7440 ha        1 IFB      0.155000
     35 HAJ         2.6320    5.0670    1.4520 ha        1 IFB      0.161000
@<TRIPOS>BOND
     1    1    2 1   
     2    2    3 1   
     3    2    4 1   
     4    4    5 1   
     5    4   25 1   
     6    4   26 1   
     7    5    6 1   
     8    5   27 1   
     9    5   28 1   
    10    6    7 1   
    11    6   29 1   
    12    7    8 2   
    13    7    9 1   
    14    9   10 ar  
    15    9   11 ar  
    16   10   16 ar  
    17   10   30 1   
    18   11   12 1   
    19   11   13 ar  
    20   12   31 1   
    21   13   14 1   
    22   13   15 ar  
    23   15   16 ar  
    24   15   32 1   
    25   16   17 1   
    26   17   18 ar  
    27   17   20 ar  
    28   18   19 1   
    29   18   24 ar  
    30   20   21 ar  
    31   20   33 1   
    32   21   22 ar  
    33   21   34 1   
    34   22   23 1   
    35   22   24 ar  
    36   24   35 1   
@<TRIPOS>SUBSTRUCTURE
     1 IFB         1 TEMP              0 ****  ****    0 ROOT
