@<TRIPOS>MOLECULE
IFB
   36    37     1     0     0
SMALL
bcc


@<TRIPOS>ATOM
      1 OAP        -0.1300    1.8500   -2.8800 oh        1 IFB     -0.579100
      2 CAQ        -0.6850    0.7230   -2.3570 c         1 IFB      0.627100
      3 OAB        -1.8550    0.5450   -2.7060 o         1 IFB     -0.502000
      4 CAN         0.0630   -0.1590   -1.4030 c3        1 IFB     -0.209400
      5 CAM         1.5620   -0.3020   -1.6580 c3        1 IFB      0.082000
      6 NAO         1.9300   -0.7700   -2.9640 ns        1 IFB     -0.554900
      7 CAR         2.4250    0.0850   -3.9290 c         1 IFB      0.688700
      8 OAC         2.6460    1.2870   -3.6560 o         1 IFB     -0.630100
      9 CAX         2.7780   -0.4650   -5.2680 ca        1 IFB     -0.174600
     10 CAL         3.9230    0.0570   -5.8760 ca        1 IFB     -0.017000
     11 CAV         2.0090   -1.4280   -5.9560 ca        1 IFB      0.201100
     12 OAD         0.8900   -1.8960   -5.3180 oh        1 IFB     -0.503100
     13 CAU         2.4040   -1.8630   -7.2350 ca        1 IFB     -0.073100
     14 IAG         1.3580   -3.2300   -8.2980 i         1 IFB     -0.119900
     15 CAK         3.5590   -1.3380   -7.8120 ca        1 IFB     -0.019000
     16 CAW         4.3260   -0.3750   -7.1450 cp        1 IFB     -0.081000
     17 CAY         5.5160    0.2020   -7.7650 cp        1 IFB     -0.086000
     18 CAT         6.4860   -0.5920   -8.4210 ca        1 IFB      0.161900
     19 FAF         6.3460   -1.9360   -8.4990 f         1 IFB     -0.131900
     20 CAI         5.7170    1.5890   -7.7110 ca        1 IFB     -0.072000
     21 CAH         6.8320    2.1870   -8.2820 ca        1 IFB     -0.178000
     22 CAS         7.7900    1.3860   -8.9320 ca        1 IFB      0.158900
     23 FAE         8.8810    1.9590   -9.4920 f         1 IFB     -0.130900
     24 CAJ         7.6220   -0.0050   -9.0040 ca        1 IFB     -0.208000
     25 HAN1       -0.4280   -1.1690   -1.4190 hc        1 IFB      0.087200
     26 HAN2       -0.0740    0.2680   -0.3720 hc        1 IFB      0.087200
     27 HAM1        2.0730    0.6860   -1.4660 h1        1 IFB      0.070200
     28 HAM2        1.9590   -1.0450   -0.9050 h1        1 IFB      0.070200
     29 HNAO        0.8170    1.9030   -2.6710 ho        1 IFB      0.448000
     30 HAL         4.5050    0.8260   -5.3380 ha        1 IFB      0.166000
     31 HOAD        0.3810   -2.4500   -5.9340 ho        1 IFB      0.447000
     32 HAK         3.8850   -1.6820   -8.8090 ha        1 IFB      0.161000
     33 HAI         4.9650    2.2190   -7.2060 ha        1 IFB      0.154000
     34 HAH         6.9740    3.2770   -8.2340 ha        1 IFB      0.159000
     35 HAJ         8.3710   -0.6330   -9.5080 ha        1 IFB      0.168000
     36 HAO2        1.5970   -1.6650   -3.2390 hn        1 IFB      0.330500
@<TRIPOS>BOND
     1    1    2 1   
     2    1   29 1   
     3    2    3 2   
     4    2    4 1   
     5    4    5 1   
     6    4   25 1   
     7    4   26 1   
     8    5    6 1   
     9    5   27 1   
    10    5   28 1   
    11    6    7 1   
    12    6   36 1   
    13    7    8 2   
    14    7    9 1   
    15    9   10 ar  
    16    9   11 ar  
    17   10   16 ar  
    18   10   30 1   
    19   11   12 1   
    20   11   13 ar  
    21   12   31 1   
    22   13   14 1   
    23   13   15 ar  
    24   15   16 ar  
    25   15   32 1   
    26   16   17 1   
    27   17   18 ar  
    28   17   20 ar  
    29   18   19 1   
    30   18   24 ar  
    31   20   21 ar  
    32   20   33 1   
    33   21   22 ar  
    34   21   34 1   
    35   22   23 1   
    36   22   24 ar  
    37   24   35 1   
@<TRIPOS>SUBSTRUCTURE
     1 IFB         1 TEMP              0 ****  ****    0 ROOT
