@<TRIPOS>MOLECULE
IFB
   36    37     1     0     0
SMALL
bcc


@<TRIPOS>ATOM
      1 OAP         0.1610   -2.1730   -0.3770 oh        1 IFB     -0.581100
      2 CAQ         0.1440   -1.2780   -1.4120 c         1 IFB      0.627100
      3 OAB        -0.5020   -1.6700   -2.3840 o         1 IFB     -0.497000
      4 CAN         0.8820    0.0140   -1.2550 c3        1 IFB     -0.199400
      5 CAM         0.6580    0.9610   -2.4380 c3        1 IFB      0.106000
      6 NAO         1.0910    0.4250   -3.6940 n         1 IFB     -0.557900
      7 CAR         2.0770    1.0190   -4.4490 c         1 IFB      0.687700
      8 OAC         2.7070    2.0130   -4.0250 o         1 IFB     -0.625100
      9 CAX         2.4340    0.4080   -5.7640 ca        1 IFB     -0.174600
     10 CAL         3.7860    0.4370   -6.1160 ca        1 IFB     -0.020000
     11 CAV         1.5010   -0.1530   -6.6630 ca        1 IFB      0.202100
     12 OAD         0.1850   -0.1190   -6.2860 oh        1 IFB     -0.492100
     13 CAU         1.9380   -0.6950   -7.8870 ca        1 IFB     -0.075100
     14 IAG         0.6740   -1.5210   -9.2330 i         1 IFB     -0.124900
     15 CAK         3.2950   -0.6690   -8.2030 ca        1 IFB     -0.021000
     16 CAW         4.2300   -0.1010   -7.3310 cp        1 IFB     -0.086000
     17 CAY         5.6460   -0.0370   -7.6790 cp        1 IFB     -0.082000
     18 CAT         6.3390   -1.1380   -8.2330 ca        1 IFB      0.160900
     19 FAF         5.7070   -2.3140   -8.4630 f         1 IFB     -0.131900
     20 CAI         6.3570    1.1530   -7.4570 ca        1 IFB     -0.073000
     21 CAH         7.7050    1.2660   -7.7690 ca        1 IFB     -0.178000
     22 CAS         8.3830    0.1620   -8.3190 ca        1 IFB      0.156900
     23 FAE         9.6970    0.2610   -8.6260 f         1 IFB     -0.131900
     24 CAJ         7.7050   -1.0440   -8.5530 ca        1 IFB     -0.208000
     25 HAN1        1.9760   -0.2110   -1.1350 hc        1 IFB      0.080700
     26 HAN2        0.5280    0.5280   -0.3220 hc        1 IFB      0.080700
     27 HAM1       -0.4470    1.1860   -2.5000 h1        1 IFB      0.070700
     28 HAM2        1.2110    1.9230   -2.2280 h1        1 IFB      0.070700
     29 HNAO        0.6890   -1.8220    0.3530 ho        1 IFB      0.424000
     30 HAL         4.5040    0.8990   -5.4160 ha        1 IFB      0.165000
     31 HOAD       -0.3530   -0.5480   -6.9740 ho        1 IFB      0.443000
     32 HAK         3.6490   -1.1040   -9.1540 ha        1 IFB      0.159000
     33 HAI         5.8260    2.0200   -7.0300 ha        1 IFB      0.153000
     34 HAH         8.2470    2.2060   -7.5920 ha        1 IFB      0.158000
     35 HAJ         8.2330   -1.9090   -8.9800 ha        1 IFB      0.167000
     36 HAO2        0.5540   -0.3240   -4.0740 hn        1 IFB      0.344500
@<TRIPOS>BOND
     1    1    2 1   
     2    1   29 1   
     3    2    3 2   
     4    2    4 1   
     5    4    5 1   
     6    4   25 1   
     7    4   26 1   
     8    5    6 1   
     9    5   27 1   
    10    5   28 1   
    11    6    7 1   
    12    6   36 1   
    13    7    8 2   
    14    7    9 1   
    15    9   10 ar  
    16    9   11 ar  
    17   10   16 ar  
    18   10   30 1   
    19   11   12 1   
    20   11   13 ar  
    21   12   31 1   
    22   13   14 1   
    23   13   15 ar  
    24   15   16 ar  
    25   15   32 1   
    26   16   17 1   
    27   17   18 ar  
    28   17   20 ar  
    29   18   19 1   
    30   18   24 ar  
    31   20   21 ar  
    32   20   33 1   
    33   21   22 ar  
    34   21   34 1   
    35   22   23 1   
    36   22   24 ar  
    37   24   35 1   
@<TRIPOS>SUBSTRUCTURE
     1 IFB         1 TEMP              0 ****  ****    0 ROOT
