@<TRIPOS>MOLECULE
IFC
   54    57     1     0     0
SMALL
bcc


@<TRIPOS>ATOM
      1 C1A         0.0150   -1.6130    1.1010 c3        1 IFC     -0.136400
      2 C1Y         1.2900   -0.9080    0.8870 cc        1 IFC      0.378600
      3 C1Q         2.4430   -0.9930    1.6740 cd        1 IFC     -0.269600
      4 N1S         1.5160   -0.0180   -0.1940 nc        1 IFC     -0.611000
      5 C1L         2.7670    0.4180   -0.0750 cd        1 IFC      0.440400
      6 N2G         3.4080   -0.1460    1.0710 na        1 IFC     -0.187000
      7 C2C         4.7020    0.0840    1.5070 ca        1 IFC      0.085800
      8 C1M         5.1030   -0.2660    2.8190 ca        1 IFC     -0.086000
      9 C1P         5.6650    0.6810    0.6480 ca        1 IFC     -0.059000
     10 C2D         6.9600    0.9060    1.0990 ca        1 IFC     -0.122300
     11 C2H         7.9960    1.5600    0.1710 c3        1 IFC      0.690200
     12 F1F         8.1820    2.8930    0.4400 f         1 IFC     -0.212633
     13 F1G         9.2460    1.0060    0.2840 f         1 IFC     -0.212633
     14 F1E         7.6840    1.4950   -1.1580 f         1 IFC     -0.212633
     15 C1O         7.3580    0.5590    2.3900 ca        1 IFC     -0.103000
     16 C2B         6.4170   -0.0220    3.2490 ca        1 IFC     -0.173600
     17 C1W         6.7460   -0.4380    4.6100 c         1 IFC      0.594700
     18 O1C         6.2450   -1.3050    5.3060 o         1 IFC     -0.420100
     19 N1T         7.9040    0.3430    5.2710 n4        1 IFC     -0.561200
     20 C2A         7.7350    0.5510    6.7090 ca        1 IFC     -0.033400
     21 C1N         7.7860   -0.5420    7.5850 ca        1 IFC     -0.052000
     22 C1K         7.5200    1.8530    7.2070 ca        1 IFC     -0.050000
     23 C1J         7.3670    2.0450    8.5730 ca        1 IFC     -0.095000
     24 C1Z         7.4130    0.9760    9.4820 ca        1 IFC      0.032700
     25 C1B         7.2280    1.2380   10.9270 c3        1 IFC     -0.118800
     26 C2E         7.6220   -0.3240    8.9660 ca        1 IFC     -0.044400
     27 N1U         7.6510   -1.4820    9.8640 n4        1 IFC     -0.548200
     28 C1X         9.0360   -2.1350    9.9310 c         1 IFC      0.513600
     29 O1D         9.3960   -2.7080    8.9130 o         1 IFC     -0.413100
     30 C2F         9.7230   -2.0170   11.1850 cc        1 IFC      0.084200
     31 C1I        10.8920   -2.5720   11.6880 cd        1 IFC     -0.127600
     32 C1H        10.9850   -2.0230   13.0440 cd        1 IFC      0.318200
     33 N1R         9.9350   -1.2170   13.2670 nc        1 IFC     -0.241300
     34 O1V         9.1640   -1.1820   12.2040 os        1 IFC     -0.148100
     35 H1A        -0.2210   -2.2640    0.2200 hc        1 IFC      0.068700
     36 H1AA        0.0750   -2.2500    2.0170 hc        1 IFC      0.068700
     37 H1AB       -0.8220   -0.8790    1.2220 hc        1 IFC      0.068700
     38 H1Q         2.6530   -1.5870    2.5600 h4        1 IFC      0.180000
     39 H1L         3.2650    1.1290   -0.7440 h5        1 IFC      0.078100
     40 H1M         4.3860   -0.7360    3.5150 ha        1 IFC      0.177000
     41 H1P         5.4010    0.9570   -0.3910 ha        1 IFC      0.196000
     42 H1O         8.4120    0.7140    2.6690 ha        1 IFC      0.147000
     43 HN1T        7.9870    1.2580    4.8060 hn        1 IFC      0.473300
     44 H1N         7.9460   -1.5680    7.1970 ha        1 IFC      0.190000
     45 H1K         7.4710    2.7290    6.5330 ha        1 IFC      0.185000
     46 H1J         7.2030    3.0700    8.9600 ha        1 IFC      0.202000
     47 H1B         6.2710    0.7820   11.2940 hc        1 IFC      0.095700
     48 H1BA        7.1710    2.3400   11.1340 hc        1 IFC      0.095700
     49 H1BB        8.0820    0.8320   11.5310 hc        1 IFC      0.095700
     50 HN1U        7.3580   -1.1920   10.8120 hn        1 IFC      0.483800
     51 H1I        11.5960   -3.2600   11.2140 ha        1 IFC      0.225000
     52 H1H        11.7720   -2.2180   13.7860 h4        1 IFC      0.110100
     53 H1T2        8.7730   -0.1830    5.1110 hn        1 IFC      0.473300
     54 H1U2        6.9820   -2.1840    9.5120 hn        1 IFC      0.483800
@<TRIPOS>BOND
     1    1    2 1   
     2    1   35 1   
     3    1   36 1   
     4    1   37 1   
     5    2    3 2   
     6    2    4 1   
     7    3    6 1   
     8    3   38 1   
     9    4    5 2   
    10    5    6 1   
    11    5   39 1   
    12    6    7 1   
    13    7    8 ar  
    14    7    9 ar  
    15    8   16 ar  
    16    8   40 1   
    17    9   10 ar  
    18    9   41 1   
    19   10   11 1   
    20   10   15 ar  
    21   11   12 1   
    22   11   13 1   
    23   11   14 1   
    24   15   16 ar  
    25   15   42 1   
    26   16   17 1   
    27   17   18 2   
    28   17   19 1   
    29   19   20 1   
    30   19   43 1   
    31   19   53 1   
    32   20   21 ar  
    33   20   22 ar  
    34   21   26 ar  
    35   21   44 1   
    36   22   23 ar  
    37   22   45 1   
    38   23   24 ar  
    39   23   46 1   
    40   24   25 1   
    41   24   26 ar  
    42   25   47 1   
    43   25   48 1   
    44   25   49 1   
    45   26   27 1   
    46   27   28 1   
    47   27   50 1   
    48   27   54 1   
    49   28   29 2   
    50   28   30 1   
    51   30   31 2   
    52   30   34 1   
    53   31   32 1   
    54   31   51 1   
    55   32   33 2   
    56   32   52 1   
    57   33   34 1   
@<TRIPOS>SUBSTRUCTURE
     1 IFC         1 TEMP              0 ****  ****    0 ROOT
