@<TRIPOS>MOLECULE
IFC
   52    46     1     0     0
SMALL
bcc


@<TRIPOS>ATOM
      1 C1A        -5.0130    2.2060   -6.9870 c3        1 IFC     -0.142000
      2 C1Y        -4.0610    1.3180   -6.2040 c2        1 IFC     -0.103000
      3 C1Q        -3.0230    1.7480   -5.4170 c1        1 IFC     -0.154000
      4 N1S        -4.0180   -0.0190   -6.2500 n2        1 IFC     -0.125000
      5 C1L        -2.9630   -0.4320   -5.4990 c1        1 IFC     -0.077000
      6 N2G        -2.3550    0.6700   -4.9890 n3        1 IFC     -0.137000
      7 C2C        -1.2650    0.6760   -4.1780 c1        1 IFC      0.069000
      8 C1M        -1.4280    0.7030   -2.8010 c1        1 IFC     -0.078000
      9 C1P         0.0040    0.5210   -4.7230 c1        1 IFC     -0.092000
     10 C2D         1.1070    0.3940   -3.8910 c1        1 IFC     -0.142000
     11 C2H         2.5030    0.3110   -4.4870 c2        1 IFC      0.467000
     12 F1F         3.1420    1.4750   -4.2910 f         1 IFC     -0.159667
     13 F1G         3.1840   -0.6790   -3.8930 f         1 IFC     -0.159667
     14 F1E         2.4140    0.0660   -5.7980 f         1 IFC     -0.159667
     15 C1O         0.9430    0.4210   -2.5120 c2        1 IFC     -0.076000
     16 C2B        -0.3230    0.5760   -1.9670 c1        1 IFC     -0.105000
     17 C1W        -0.4910    0.7090   -0.4530 c2        1 IFC      0.353000
     18 O1C        -1.5890    0.9250    0.0190 o         1 IFC     -0.337000
     19 N1T         0.6390    0.5480    0.4100 n         1 IFC     -0.315000
     20 C2A         0.4750    0.6420    1.8320 c2        1 IFC      0.094000
     21 C1N         1.1320   -0.2560    2.6710 c2        1 IFC     -0.201000
     22 C1K        -0.3500    1.6180    2.3710 c1        1 IFC     -0.169000
     23 C1J        -0.5230    1.7000    3.7500 c1        1 IFC     -0.082000
     24 C1Z         0.1320    0.8050    4.5860 c1        1 IFC     -0.137000
     25 C1B        -0.1280    0.8350    6.0800 c2        1 IFC     -0.177000
     26 C2E         0.9610   -0.1740    4.0450 c2        1 IFC      0.099000
     27 N1U         1.6060   -1.1190    4.9050 n         1 IFC     -0.319000
     28 C1X         2.2210   -2.2810    4.3520 c2        1 IFC      0.384000
     29 O1D         2.1970   -2.4690    3.1540 o         1 IFC     -0.309000
     30 C2F         2.8610   -3.3180    5.2750 c2        1 IFC     -0.092000
     31 C1I         3.3780   -3.0760    6.5270 c1        1 IFC     -0.186000
     32 C1H         3.7900   -4.2810    7.0590 c1        1 IFC     -0.170000
     33 N1R         3.5310   -5.2490    6.1510 n2        1 IFC      0.005000
     34 O1V         2.9510   -4.6500    5.0370 os        1 IFC     -0.011000
     35 H1A        -5.5450    2.7450   -6.3630 hc        1 IFC      0.090000
     36 H1AA       -5.6120    1.6480   -7.5280 hc        1 IFC      0.090000
     37 H1AB       -4.5000    2.7980   -7.5740 hc        1 IFC      0.090000
     38 H1Q        -2.8100    2.6740   -5.2070 DU        1 IFC      0.191000
     39 H1L        -2.6910   -1.3580   -5.3530 DU        1 IFC      0.191000
     40 H1M        -2.3160    0.8120   -2.4190 ha        1 IFC      0.172000
     41 H1P         0.1220    0.5190   -5.6940 ha        1 IFC      0.165000
     42 H1O         1.7240    0.3310   -1.9230 ha        1 IFC      0.163000
     43 HN1T        1.4540    0.3300    0.0580 hn        1 IFC      0.240000
     44 H1N         1.7110   -0.9400    2.2930 ha        1 IFC      0.169000
     45 H1K        -0.8100    2.2460    1.7840 ha        1 IFC      0.175000
     46 H1J        -1.1010    2.3840    4.1280 ha        1 IFC      0.139000
     47 H1B         0.7250    0.7690    6.5620 ha        1 IFC      0.082667
     48 H1BA       -0.7040    0.0790    6.3270 ha        1 IFC      0.082667
     49 H1BB       -0.5740    1.6780    6.3180 ha        1 IFC      0.082667
     50 HN1U        1.6450   -0.9650    5.8050 hn        1 IFC      0.238000
     51 H1I         3.4420   -2.2040    6.9620 DU        1 IFC      0.191000
     52 H1H         4.1980   -4.4130    7.9390 DU        1 IFC      0.191000
@<TRIPOS>BOND
     1    1    2 1   
     2    1   35 1   
     3    1   36 1   
     4    1   37 1   
     5    2    3 1   
     6    2    4 1   
     7    3    6 1   
     8    4    5 1   
     9    5    6 1   
    10    6    7 1   
    11    7    8 1   
    12    8   40 1   
    13    9   10 1   
    14    9   41 1   
    15   10   15 1   
    16   11   12 1   
    17   11   13 1   
    18   11   14 1   
    19   15   16 1   
    20   15   42 1   
    21   16   17 1   
    22   17   18 1   
    23   17   19 1   
    24   19   20 1   
    25   19   43 1   
    26   20   21 1   
    27   20   22 1   
    28   21   26 1   
    29   21   44 1   
    30   22   45 1   
    31   23   24 1   
    32   23   46 1   
    33   24   26 1   
    34   25   47 1   
    35   25   48 1   
    36   25   49 1   
    37   26   27 1   
    38   27   28 1   
    39   27   50 1   
    40   28   29 1   
    41   28   30 1   
    42   30   31 1   
    43   30   34 1   
    44   31   32 1   
    45   32   33 1   
    46   33   34 1   
@<TRIPOS>SUBSTRUCTURE
     1 IFC         1 TEMP              0 ****  ****    0 ROOT
