@<TRIPOS>MOLECULE
IFC
   52    55     1     0     0
SMALL
bcc


@<TRIPOS>ATOM
      1 C1A         0.3080   -1.6260    0.0350 c3        1 IFC     -0.118400
      2 C1Y         1.6470   -1.0140    0.0360 cc        1 IFC      0.320600
      3 C1Q         2.4730   -0.8160    1.1550 cd        1 IFC     -0.244600
      4 N1S         2.2900   -0.5320   -1.1210 nc        1 IFC     -0.651000
      5 C1L         3.4770   -0.0560   -0.7170 cd        1 IFC      0.413400
      6 N2G         3.6480   -0.2060    0.6790 na        1 IFC     -0.155000
      7 C2C         4.7570    0.1860    1.4400 ca        1 IFC      0.024800
      8 C1M         4.6300    0.4270    2.8270 ca        1 IFC     -0.080000
      9 C1P         6.0220    0.3470    0.8330 ca        1 IFC     -0.094000
     10 C2D         7.1110    0.7490    1.6020 ca        1 IFC     -0.149300
     11 C2H         8.4640    0.9560    0.9250 c3        1 IFC      0.688200
     12 F1F         8.6650    2.2320    0.4600 f         1 IFC     -0.231300
     13 F1G         9.5460    0.7170    1.7380 f         1 IFC     -0.231300
     14 F1E         8.6800    0.1580   -0.1710 f         1 IFC     -0.231300
     15 C1O         6.9900    0.9770    2.9730 ca        1 IFC     -0.077000
     16 C2B         5.7440    0.8020    3.5790 ca        1 IFC     -0.124600
     17 C1W         5.5360    1.0510    5.0430 c         1 IFC      0.678700
     18 O1C         4.5060    1.6230    5.4430 o         1 IFC     -0.575100
     19 N1T         6.5390    0.5940    5.8810 ns        1 IFC     -0.462100
     20 C2A         6.5760    0.6890    7.2850 ca        1 IFC      0.082600
     21 C1N         7.5640   -0.0570    7.9670 ca        1 IFC     -0.201000
     22 C1K         5.6940    1.4980    8.0240 ca        1 IFC     -0.167000
     23 C1J         5.8130    1.5520    9.4080 ca        1 IFC     -0.084000
     24 C1Z         6.7860    0.8350   10.1020 ca        1 IFC     -0.138300
     25 C1B         6.8590    0.9460   11.5780 c3        1 IFC     -0.054800
     26 C2E         7.6840    0.0140    9.3650 ca        1 IFC      0.089600
     27 N1U         8.6540   -0.7290   10.0650 ns        1 IFC     -0.454100
     28 C1X         9.7870   -1.3190    9.5360 c         1 IFC      0.603600
     29 O1D        10.0850   -1.3170    8.3260 o         1 IFC     -0.578100
     30 C2F        10.6850   -1.9990   10.4920 cc        1 IFC      0.186200
     31 C1I        11.8660   -2.6950   10.3200 cd        1 IFC     -0.270600
     32 C1H        12.2370   -3.1040   11.6730 cd        1 IFC      0.295200
     33 N1R        11.3120   -2.6560   12.5370 nc        1 IFC     -0.330300
     34 O1V        10.3800   -1.9990   11.8800 os        1 IFC     -0.124100
     35 H1A         0.0250   -1.9290    1.0730 hc        1 IFC      0.051033
     36 H1AA       -0.4530   -0.9020   -0.3500 hc        1 IFC      0.051033
     37 H1AB        0.2920   -2.5320   -0.6220 hc        1 IFC      0.051033
     38 H1Q         2.3250   -1.0630    2.2040 h4        1 IFC      0.183000
     39 H1L         4.2340    0.4080   -1.3590 h5        1 IFC      0.066100
     40 H1M         3.6510    0.3410    3.3320 ha        1 IFC      0.173000
     41 H1P         6.1630    0.1540   -0.2440 ha        1 IFC      0.164000
     42 H1O         7.8700    1.3040    3.5510 ha        1 IFC      0.164000
     43 HN1T        7.2860    0.0810    5.4660 hn        1 IFC      0.326500
     44 H1N         8.2550   -0.6980    7.3910 ha        1 IFC      0.168000
     45 H1K         4.9080    2.0890    7.5260 ha        1 IFC      0.174000
     46 H1J         5.1130    2.1890    9.9740 ha        1 IFC      0.139000
     47 H1B         7.8680    1.3050   11.9020 hc        1 IFC      0.046033
     48 H1BA        6.6590   -0.0430   12.0620 hc        1 IFC      0.046033
     49 H1BB        6.0990    1.6720   11.9610 hc        1 IFC      0.046033
     50 HN1U        8.5420   -0.7660   11.0570 hn        1 IFC      0.338500
     51 H1I        12.4060   -2.9000    9.4000 ha        1 IFC      0.195000
     52 H1H        13.1140   -3.6790   11.9730 h4        1 IFC      0.062100
@<TRIPOS>BOND
     1    1    2 1   
     2    1   35 1   
     3    1   36 1   
     4    1   37 1   
     5    2    3 2   
     6    2    4 1   
     7    3    6 1   
     8    3   38 1   
     9    4    5 2   
    10    5    6 1   
    11    5   39 1   
    12    6    7 1   
    13    7    8 ar  
    14    7    9 ar  
    15    8   16 ar  
    16    8   40 1   
    17    9   10 ar  
    18    9   41 1   
    19   10   11 1   
    20   10   15 ar  
    21   11   12 1   
    22   11   13 1   
    23   11   14 1   
    24   15   16 ar  
    25   15   42 1   
    26   16   17 1   
    27   17   18 2   
    28   17   19 1   
    29   19   20 1   
    30   19   43 1   
    31   20   21 ar  
    32   20   22 ar  
    33   21   26 ar  
    34   21   44 1   
    35   22   23 ar  
    36   22   45 1   
    37   23   24 ar  
    38   23   46 1   
    39   24   25 1   
    40   24   26 ar  
    41   25   47 1   
    42   25   48 1   
    43   25   49 1   
    44   26   27 1   
    45   27   28 1   
    46   27   50 1   
    47   28   29 2   
    48   28   30 1   
    49   30   31 2   
    50   30   34 1   
    51   31   32 1   
    52   31   51 1   
    53   32   33 2   
    54   32   52 1   
    55   33   34 1   
@<TRIPOS>SUBSTRUCTURE
     1 IFC         1 TEMP              0 ****  ****    0 ROOT
