@<TRIPOS>MOLECULE
IFC
   52    55     1     0     0
SMALL
bcc


@<TRIPOS>ATOM
      1 C1A        -7.6880    3.0600    2.3000 c3        1 IFC     -0.118400
      2 C1Y        -7.0830    1.9600    1.5300 cc        1 IFC      0.320600
      3 C1Q        -5.7230    1.8150    1.2100 cd        1 IFC     -0.244600
      4 N1S        -7.8150    0.8800    0.9980 nc        1 IFC     -0.651000
      5 C1L        -6.9230    0.0970    0.3740 cd        1 IFC      0.413400
      6 N2G        -5.6140    0.6220    0.4720 na        1 IFC     -0.155000
      7 C2C        -4.4420    0.0750   -0.0660 ca        1 IFC      0.024800
      8 C1M        -3.3170    0.8900   -0.3200 ca        1 IFC     -0.080000
      9 C1P        -4.3680   -1.3040   -0.3670 ca        1 IFC     -0.094000
     10 C2D        -3.2000   -1.8300   -0.9140 ca        1 IFC     -0.149300
     11 C2H        -3.1460   -3.3140   -1.2680 c3        1 IFC      0.688200
     12 F1F        -3.5530   -3.5960   -2.5490 f         1 IFC     -0.231300
     13 F1G        -1.8950   -3.8720   -1.1790 f         1 IFC     -0.231300
     14 F1E        -3.9340   -4.1160   -0.4790 f         1 IFC     -0.231300
     15 C1O        -2.0840   -1.0280   -1.1550 ca        1 IFC     -0.077000
     16 C2B        -2.1490    0.3320   -0.8440 ca        1 IFC     -0.124600
     17 C1W        -0.9960    1.2550   -1.0970 c         1 IFC      0.677700
     18 O1C        -1.1930    2.3970   -1.5500 o         1 IFC     -0.575100
     19 N1T         0.2570    0.7580   -0.7810 n         1 IFC     -0.462100
     20 C2A         1.4880    1.4260   -0.9090 ca        1 IFC      0.082600
     21 C1N         2.6210    0.8380   -0.2990 ca        1 IFC     -0.201000
     22 C1K         1.6410    2.6280   -1.6240 ca        1 IFC     -0.167000
     23 C1J         2.8980    3.2120   -1.7210 ca        1 IFC     -0.084000
     24 C1Z         4.0310    2.6460   -1.1380 ca        1 IFC     -0.138300
     25 C1B         5.3420    3.3210   -1.2870 c3        1 IFC     -0.054800
     26 C2E         3.8890    1.4310   -0.4120 ca        1 IFC      0.089600
     27 N1U         5.0280    0.8680    0.1960 n         1 IFC     -0.454100
     28 C1X         5.1650   -0.4280    0.6600 c         1 IFC      0.603600
     29 O1D         4.2580   -1.2810    0.6490 o         1 IFC     -0.578100
     30 C2F         6.4860   -0.7960    1.2100 cc        1 IFC      0.186200
     31 C1I         6.9640   -1.9660    1.7670 cd        1 IFC     -0.270600
     32 C1H         8.3530   -1.6580    2.1010 cd        1 IFC      0.295200
     33 N1R         8.6200   -0.3910    1.7460 nc        1 IFC     -0.330300
     34 O1V         7.5440    0.1520    1.2170 os        1 IFC     -0.124100
     35 H1A        -8.4500    3.5980    1.6820 hc        1 IFC      0.051033
     36 H1AA       -8.1970    2.6640    3.2150 hc        1 IFC      0.051033
     37 H1AB       -6.9000    3.7870    2.6130 hc        1 IFC      0.051033
     38 H1Q        -4.8630    2.4360    1.4500 h4        1 IFC      0.183000
     39 H1L        -7.1500   -0.8300   -0.1650 h5        1 IFC      0.066100
     40 H1M        -3.3470    1.9770   -0.1280 ha        1 IFC      0.173000
     41 H1P        -5.2210   -1.9740   -0.1690 ha        1 IFC      0.164000
     42 H1O        -1.1780   -1.4740   -1.5970 ha        1 IFC      0.164000
     43 HN1T        0.2990   -0.1420   -0.3520 hn        1 IFC      0.326500
     44 H1N         2.5060   -0.1020    0.2680 ha        1 IFC      0.168000
     45 H1K         0.7790    3.1170   -2.1070 ha        1 IFC      0.174000
     46 H1J         3.0010    4.1560   -2.2830 ha        1 IFC      0.139000
     47 H1B         5.7410    3.6410   -0.2910 hc        1 IFC      0.046033
     48 H1BA        6.0890    2.6400   -1.7690 hc        1 IFC      0.046033
     49 H1BB        5.2500    4.2340   -1.9270 hc        1 IFC      0.046033
     50 HN1U        5.8390    1.4500    0.2250 hn        1 IFC      0.338500
     51 H1I         6.4430   -2.9060    1.9270 ha        1 IFC      0.195000
     52 H1H         9.0850   -2.3220    2.5640 h4        1 IFC      0.062100
@<TRIPOS>BOND
     1    1    2 1   
     2    1   35 1   
     3    1   36 1   
     4    1   37 1   
     5    2    3 2   
     6    2    4 1   
     7    3    6 1   
     8    3   38 1   
     9    4    5 2   
    10    5    6 1   
    11    5   39 1   
    12    6    7 1   
    13    7    8 ar  
    14    7    9 ar  
    15    8   16 ar  
    16    8   40 1   
    17    9   10 ar  
    18    9   41 1   
    19   10   11 1   
    20   10   15 ar  
    21   11   12 1   
    22   11   13 1   
    23   11   14 1   
    24   15   16 ar  
    25   15   42 1   
    26   16   17 1   
    27   17   18 2   
    28   17   19 1   
    29   19   20 1   
    30   19   43 1   
    31   20   21 ar  
    32   20   22 ar  
    33   21   26 ar  
    34   21   44 1   
    35   22   23 ar  
    36   22   45 1   
    37   23   24 ar  
    38   23   46 1   
    39   24   25 1   
    40   24   26 ar  
    41   25   47 1   
    42   25   48 1   
    43   25   49 1   
    44   26   27 1   
    45   27   28 1   
    46   27   50 1   
    47   28   29 2   
    48   28   30 1   
    49   30   31 2   
    50   30   34 1   
    51   31   32 1   
    52   31   51 1   
    53   32   33 2   
    54   32   52 1   
    55   33   34 1   
@<TRIPOS>SUBSTRUCTURE
     1 IFC         1 TEMP              0 ****  ****    0 ROOT
