@<TRIPOS>MOLECULE
IFG
   31    29     1     0     0
SMALL
bcc


@<TRIPOS>ATOM
      1 N1         -0.8840   -0.7720    3.4050 n2        1 IFG     -0.333800
      2 C2          1.0240   -0.1700   -0.2760 c3        1 IFG      0.064000
      3 C3          1.6650   -0.1910    1.1300 c3        1 IFG      0.132100
      4 C4          1.1590    1.0530    1.9600 c3        1 IFG      0.031300
      5 C5         -0.3040    1.1810    1.9770 c2        1 IFG      0.244600
      6 C6         -0.9090    2.3920    1.4150 c3        1 IFG      0.086600
      7 C8          2.9080   -2.1510   -2.9270 c3        1 IFG     -0.172100
      8 C9         -1.1490    0.1140    2.5230 ce        1 IFG     -0.049000
      9 N2          1.4590   -1.2120   -1.1430 n         1 IFG     -0.587900
     10 O7          3.2860   -0.0370   -1.8040 o         1 IFG     -0.618100
     11 O3          3.0600   -0.1010    1.1370 oh        1 IFG     -0.580800
     12 O4          1.7130    2.2490    1.4480 oh        1 IFG     -0.596800
     13 O6         -2.3140    2.2950    1.4400 oh        1 IFG     -0.585800
     14 HN1         3.2350    2.1940   -0.5790 ha        1 IFG      0.003000
     15 HC2         3.8110    2.1470   -0.9340 ha        1 IFG      0.003000
     16 HC3         1.2780    0.8310   -0.7430 h1        1 IFG      0.070200
     17 HC4         1.4020   -1.1230    1.7050 h1        1 IFG      0.090700
     18 HC5         1.5270    0.8890    3.0270 h1        1 IFG      0.142700
     19 HC61       -0.5290    3.2820    2.0190 h1        1 IFG      0.152700
     20 HC62       -0.5160    2.5470    0.3580 h1        1 IFG      0.152700
     21 HC81        3.0870   -3.1190   -2.3980 hc        1 IFG      0.085700
     22 HC82        3.8340   -1.8670   -3.4880 hc        1 IFG      0.085700
     23 HC83        2.0690   -2.2790   -3.6540 hc        1 IFG      0.085700
     24 HC91        0.0120   -0.7680    3.8520 hn        1 IFG      0.377800
     25 HC92       -2.1910    0.1090    2.1020 h4        1 IFG      0.236000
     26 HN2        -0.0940   -0.2400   -0.1400 h1        1 IFG      0.070200
     27 HO3         3.3770    0.2310    0.2760 ho        1 IFG      0.468000
     28 HO4         2.6810    2.1370    1.4200 ho        1 IFG      0.473000
     29 HO6        -2.6720    3.1470    1.1440 ho        1 IFG      0.461000
     30 C7          2.5910   -1.0630   -1.9420 c         1 IFG      0.678100
     31 H22         0.9490   -2.0620   -1.1590 hn        1 IFG      0.331500
@<TRIPOS>BOND
     1    1    8 1   
     2    1   24 1   
     3    2    3 1   
     4    2    9 1   
     5    2   16 1   
     6    2   26 1   
     7    3    4 1   
     8    3   11 1   
     9    3   17 1   
    10    4    5 1   
    11    4   12 1   
    12    4   18 1   
    13    5    6 1   
    14    5    8 2   
    15    6   13 1   
    16    6   19 1   
    17    6   20 1   
    18    7   21 1   
    19    7   22 1   
    20    7   23 1   
    21    7   30 1   
    22    8   25 1   
    23    9   30 1   
    24    9   31 1   
    25   10   30 2   
    26   11   27 1   
    27   12   28 1   
    28   13   29 1   
    29   14   15 1   
@<TRIPOS>SUBSTRUCTURE
     1 IFG         1 TEMP              0 ****  ****    0 ROOT
