@<TRIPOS>MOLECULE
IFG
   31    30     1     0     0
SMALL
bcc


@<TRIPOS>ATOM
      1 N1         -1.9470    2.2250   -0.0760 n8        1 IFG     -0.313000
      2 C2          0.9660   -1.6820   -0.3280 c3        1 IFG     -0.057000
      3 C3          0.4670   -0.6510    0.7060 c3        1 IFG      0.013000
      4 C4          0.8200    0.8100    0.2510 c3        1 IFG     -0.047000
      5 C5          0.2080    1.7810    1.2000 c2        1 IFG      0.239000
      6 C6          0.9680    2.0450    2.4410 c3        1 IFG     -0.093000
      7 C8          4.6360   -1.6610   -1.3580 c3        1 IFG     -0.245000
      8 C9         -1.0940    2.4440    1.0370 c3        1 IFG     -0.117000
      9 N2          2.3800   -1.9150   -0.3480 ns        1 IFG     -0.396000
     10 O7          2.8710   -0.0230   -1.5290 o         1 IFG     -0.410000
     11 O3          0.9300   -0.8520    2.0170 oh        1 IFG     -0.331000
     12 O4          0.2960    1.0180   -1.0440 oh        1 IFG     -0.332000
     13 O6          0.2390    2.9500    3.2460 oh        1 IFG     -0.319000
     14 HN1        -2.1620    1.2580   -0.2180 hn        1 IFG      0.184500
     15 HC2        -1.5910    2.6230   -0.9240 hn        1 IFG      0.184500
     16 HC3         0.4450   -2.6550   -0.0860 h1        1 IFG      0.129500
     17 HC4        -0.6580   -0.7380    0.7600 h1        1 IFG      0.138000
     18 HC5         1.9470    0.9200    0.2580 h1        1 IFG      0.166000
     19 HC61        1.1360    1.0550    2.9790 h1        1 IFG      0.175000
     20 HC62        1.9810    2.4750    2.1780 h1        1 IFG      0.175000
     21 HC81        5.1290   -1.9700   -0.4050 hc        1 IFG      0.126000
     22 HC82        4.5920   -2.5400   -2.0480 hc        1 IFG      0.126000
     23 HC83        5.2450   -0.8560   -1.8400 hc        1 IFG      0.126000
     24 HC91       -0.8920    3.5700    1.1460 h1        1 IFG      0.211000
     25 HC92       -1.6770    2.2060    2.0000 h1        1 IFG      0.211000
     26 HN2         0.6120   -1.3290   -1.3420 h1        1 IFG      0.129500
     27 HO3         1.7900   -1.2940    1.9940 ho        1 IFG      0.238000
     28 HO4         1.0230    0.9010   -1.6810 ho        1 IFG      0.279000
     29 HO6         0.7090    3.0340    4.0890 ho        1 IFG      0.255000
     30 C7          3.2480   -1.1390   -1.1100 c2        1 IFG      0.317000
     31 H22         2.6780   -2.8350   -0.1100 hn        1 IFG      0.241000
@<TRIPOS>BOND
     1    1    8 1   
     2    1   14 1   
     3    1   15 1   
     4    2    3 1   
     5    2    9 1   
     6    2   16 1   
     7    2   26 1   
     8    3    4 1   
     9    3   11 1   
    10    3   17 1   
    11    4    5 1   
    12    4   12 1   
    13    4   18 1   
    14    5    6 1   
    15    5    8 1   
    16    6   13 1   
    17    6   19 1   
    18    6   20 1   
    19    7   21 1   
    20    7   22 1   
    21    7   23 1   
    22    7   30 1   
    23    8   24 1   
    24    8   25 1   
    25    9   30 1   
    26    9   31 1   
    27   10   30 1   
    28   11   27 1   
    29   12   28 1   
    30   13   29 1   
@<TRIPOS>SUBSTRUCTURE
     1 IFG         1 TEMP              0 ****  ****    0 ROOT
