@<TRIPOS>MOLECULE
IFG
   30    30     1     0     0
SMALL
bcc


@<TRIPOS>ATOM
      1 N1          1.1840   -0.2420    0.1840 n3        1 IFG     -0.844200
      2 C2         -0.1200    0.0120    0.8240 c3        1 IFG      0.280900
      3 C3         -1.2820   -0.6210   -0.0120 c3        1 IFG      0.111100
      4 C4         -1.2250   -0.1500   -1.4780 c3        1 IFG      0.153100
      5 C5          0.1550   -0.4440   -2.0660 c3        1 IFG     -0.064700
      6 C6          0.2410    0.0900   -3.4910 c3        1 IFG      0.137400
      7 C8          0.6960   -0.5040    4.5260 c3        1 IFG     -0.176100
      8 C9          1.2420    0.1930   -1.1960 c3        1 IFG      0.170800
      9 N2         -0.1800   -0.4780    2.2040 n         1 IFG     -0.549900
     10 O7          1.2170    1.2090    2.9170 o         1 IFG     -0.593100
     11 O3         -2.5450   -0.1800    0.4610 oh        1 IFG     -0.613800
     12 O4         -1.4620    1.2450   -1.5800 oh        1 IFG     -0.604800
     13 O6          1.4340   -0.4250   -4.0630 oh        1 IFG     -0.606800
     14 HN1         1.9060    0.2200    0.7110 hn        1 IFG      0.381800
     15 HC2        -0.3340    1.1310    0.8800 h2        1 IFG      0.075700
     16 HC3        -1.2320   -1.7430    0.0250 h1        1 IFG      0.052700
     17 HC4        -2.0220   -0.6980   -2.0570 h1        1 IFG      0.048700
     18 HC5         0.2980   -1.5600   -2.0880 hc        1 IFG      0.078700
     19 HC61       -0.6450   -0.2610   -4.0850 h1        1 IFG      0.035200
     20 HC62        0.2570    1.2130   -3.4870 h1        1 IFG      0.035200
     21 HC81        1.3210    0.1340    5.1970 hc        1 IFG      0.069033
     22 HC82       -0.3270   -0.5980    4.9640 hc        1 IFG      0.069033
     23 HC83        1.1570   -1.5190    4.4550 hc        1 IFG      0.069033
     24 HC91        1.1480    1.3160   -1.2910 h1        1 IFG      0.052700
     25 HC92        2.2480   -0.1120   -1.6040 h1        1 IFG      0.052700
     26 HN2        -0.2770   -1.4660    2.2940 hn        1 IFG      0.292500
     27 HO3        -2.5740   -0.3130    1.4150 ho        1 IFG      0.422000
     28 HO4        -2.2680    1.4290   -1.0780 ho        1 IFG      0.423000
     29 HO6         1.5160   -0.0190   -4.9340 ho        1 IFG      0.402000
     30 C7          0.6300    0.1390    3.1640 c         1 IFG      0.643100
@<TRIPOS>BOND
     1    1    2 1   
     2    1    8 1   
     3    1   14 1   
     4    2    3 1   
     5    2    9 1   
     6    2   15 1   
     7    3    4 1   
     8    3   11 1   
     9    3   16 1   
    10    4    5 1   
    11    4   12 1   
    12    4   17 1   
    13    5    6 1   
    14    5    8 1   
    15    5   18 1   
    16    6   13 1   
    17    6   19 1   
    18    6   20 1   
    19    7   21 1   
    20    7   22 1   
    21    7   23 1   
    22    7   30 1   
    23    8   24 1   
    24    8   25 1   
    25    9   26 1   
    26    9   30 1   
    27   10   30 2   
    28   11   27 1   
    29   12   28 1   
    30   13   29 1   
@<TRIPOS>SUBSTRUCTURE
     1 IFG         1 TEMP              0 ****  ****    0 ROOT
