@<TRIPOS>MOLECULE
IFG
   30    29     1     0     0
SMALL
bcc


@<TRIPOS>ATOM
      1 N1         -1.1560   -0.4130   -0.7370 n3        1 IFG     -0.321000
      2 C2          0.3170   -0.3630   -0.7270 c3        1 IFG      0.119000
      3 C3          0.8910   -0.3510    0.6820 c3        1 IFG     -0.020000
      4 C4          0.2790    0.7060    1.5340 c3        1 IFG      0.007000
      5 C5         -1.2070    0.6490    1.5200 c3        1 IFG     -0.104000
      6 C6         -1.7600    1.8830    2.2620 c3        1 IFG     -0.012000
      7 C7          1.3440   -1.3410   -2.7170 c1        1 IFG      0.307000
      8 C8          1.8670   -2.5520   -3.4580 c2        1 IFG     -0.242000
      9 C9         -1.7720    0.6330    0.1050 c3        1 IFG     -0.068000
     10 N2          0.8130   -1.4850   -1.4100 n3        1 IFG     -0.375000
     11 O7          1.3700   -0.2480   -3.2460 o         1 IFG     -0.383000
     12 O3          2.3040   -0.1230    0.6050 oh        1 IFG     -0.329000
     13 O4          0.7040    2.0050    1.0470 oh        1 IFG     -0.330000
     14 O6         -2.9800    1.5490    2.8850 oh        1 IFG     -0.333000
     15 HN1        -1.4590   -0.3300   -1.5960 hn        1 IFG      0.192000
     16 HC2         0.6080    0.4450   -1.1940 h2        1 IFG      0.096000
     17 HC3         0.7330   -1.2230    1.0960 h1        1 IFG      0.102000
     18 HC4         0.5920    0.5930    2.4530 h1        1 IFG      0.074000
     19 HC5        -1.4980   -0.1580    1.9860 hc        1 IFG      0.118000
     20 HC61       -1.1150    2.1710    2.9420 h1        1 IFG      0.073500
     21 HC62       -1.9070    2.6100    1.6230 h1        1 IFG      0.073500
     22 HC81        2.2680   -2.2690   -4.3060 ha        1 IFG      0.106000
     23 HC82        1.1280   -3.1710   -3.6370 ha        1 IFG      0.106000
     24 HC83        2.5440   -3.0030   -2.9110 ha        1 IFG      0.106000
     25 HC91       -2.7360    0.4750    0.1520 h1        1 IFG      0.091000
     26 HC92       -1.6140    1.5050   -0.3080 h1        1 IFG      0.091000
     27 HN2         0.7860   -2.3070   -1.0160 hn        1 IFG      0.231000
     28 HO3         2.7070   -0.5210    1.2900 ho        1 IFG      0.206000
     29 HO4         1.1870    2.4130    1.6730 ho        1 IFG      0.218000
     30 HO6        -3.2390    2.2190    3.4090 ho        1 IFG      0.201000
@<TRIPOS>BOND
     1    1    2 1   
     2    1    9 1   
     3    1   15 1   
     4    2    3 1   
     5    2   10 1   
     6    2   16 1   
     7    3    4 1   
     8    3   12 1   
     9    3   17 1   
    10    4    5 1   
    11    4   13 1   
    12    4   18 1   
    13    5    6 1   
    14    5    9 1   
    15    5   19 1   
    16    6   14 1   
    17    6   20 1   
    18    6   21 1   
    19    7   10 1   
    20    7   11 1   
    21    8   22 1   
    22    8   23 1   
    23    8   24 1   
    24    9   25 1   
    25    9   26 1   
    26   10   27 1   
    27   12   28 1   
    28   13   29 1   
    29   14   30 1   
@<TRIPOS>SUBSTRUCTURE
     1 IFG         1 TEMP              0 ****  ****    0 ROOT
