@<TRIPOS>MOLECULE
IFG
   31    29     1     0     0
SMALL
bcc


@<TRIPOS>ATOM
      1 N1         -1.8630    0.8160    1.2200 nh        1 IFG     -0.845600
      2 C2          2.4160   -0.5880   -0.0960 c3        1 IFG      0.108800
      3 C3          2.6450   -0.7040    1.4190 c3        1 IFG      0.082100
      4 C4          1.7800    0.3750    2.1210 c3        1 IFG      0.205300
      5 C5          0.3420    0.0880    1.9040 c2        1 IFG     -0.426200
      6 C6         -2.4790    4.9460    1.4420 c         1 IFG      0.587700
      7 C8          1.9680   -1.9400   -2.9680 c3        1 IFG     -0.186100
      8 C9         -0.5400    1.0320    1.4840 c2        1 IFG      0.157000
      9 N2          3.3500   -1.4450   -0.8840 n4        1 IFG     -0.679800
     10 O7          3.9980   -0.5790   -2.9300 o         1 IFG     -0.396100
     11 O3          4.0330   -0.4950    1.6320 oh        1 IFG     -0.635800
     12 O4          2.1140    1.6490    1.5910 oh        1 IFG     -0.594800
     13 O6         -2.0460    3.8010    1.3180 o         1 IFG     -0.568100
     14 HN1        -2.4440    1.6200    1.1380 hn        1 IFG      0.424800
     15 HC2        -2.2940    0.0010    1.5870 hn        1 IFG      0.424800
     16 HC3         1.3510   -0.8840   -0.3200 hx        1 IFG      0.127700
     17 HC4         2.3570   -1.7240    1.7950 h1        1 IFG      0.064700
     18 HC5         2.0230    0.3370    3.2240 h1        1 IFG      0.054700
     19 HC61        0.0340   -0.9290    2.1810 ha        1 IFG      0.130000
     20 HC62       -1.8070    5.8300    1.4430 h4        1 IFG     -0.008300
     21 HC81        2.0250   -3.0480   -2.8180 hc        1 IFG      0.113367
     22 HC82        1.0190   -1.5540   -2.5140 hc        1 IFG      0.113367
     23 HC83        1.9520   -1.7270   -4.0710 hc        1 IFG      0.113367
     24 HC91        2.5820    0.4870   -0.4060 hx        1 IFG      0.127700
     25 HC92       -0.1930    2.0680    1.2650 h4        1 IFG      0.172000
     26 HN2         3.2080   -2.4270   -0.6330 hn        1 IFG      0.464800
     27 HO3         4.1690   -0.3560    2.5790 ho        1 IFG      0.444000
     28 HO4         2.9530    1.9100    1.9920 ho        1 IFG      0.415000
     29 HO6        -3.5630    5.1550    1.5590 h4        1 IFG     -0.008300
     30 C7          3.1530   -1.2610   -2.3740 c         1 IFG      0.552100
     31 H22         4.3140   -1.1800   -0.6220 hn        1 IFG      0.464800
@<TRIPOS>BOND
     1    1    8 1   
     2    1   14 1   
     3    1   15 1   
     4    2    3 1   
     5    2    9 1   
     6    2   16 1   
     7    2   24 1   
     8    3    4 1   
     9    3   11 1   
    10    3   17 1   
    11    4    5 1   
    12    4   12 1   
    13    4   18 1   
    14    5    8 2   
    15    5   19 1   
    16    6   13 2   
    17    6   20 1   
    18    6   29 1   
    19    7   21 1   
    20    7   22 1   
    21    7   23 1   
    22    7   30 1   
    23    8   25 1   
    24    9   26 1   
    25    9   30 1   
    26    9   31 1   
    27   10   30 2   
    28   11   27 1   
    29   12   28 1   
@<TRIPOS>SUBSTRUCTURE
     1 IFG         1 TEMP              0 ****  ****    0 ROOT
