@<TRIPOS>MOLECULE
IFL
   22    22     1     0     0
SMALL
bcc


@<TRIPOS>ATOM
      1 O4         -0.0660   -0.0960   -0.0590 oh        1 IFL     -0.599800
      2 C4          1.3490   -0.0160   -0.0430 c3        1 IFL      0.150100
      3 C3          1.8590    0.0080    1.4080 c3        1 IFL      0.045100
      4 O3          1.4810    1.2590    1.9500 oh        1 IFL     -0.604800
      5 C2          3.3710   -0.1890    1.5020 c         1 IFL      0.664500
      6 N           4.0170   -0.9190    0.5350 n         1 IFL     -0.555900
      7 C7          3.4310   -1.2240   -0.7410 c3        1 IFL      0.096000
      8 C5          1.8990   -1.2580   -0.7450 c3        1 IFL     -0.077700
      9 C6          1.3850   -1.3210   -2.1800 c3        1 IFL      0.136400
     10 O6          1.8680   -2.5280   -2.7490 oh        1 IFL     -0.607800
     11 O2          3.9890    0.2660    2.4890 o         1 IFL     -0.654500
     12 H4         -0.3880    0.6450    0.4730 ho        1 IFL      0.425000
     13 HA          1.6780    0.9210   -0.5730 h1        1 IFL      0.056700
     14 H3          1.3670   -0.8170    2.0010 h1        1 IFL      0.078700
     15 HB          2.0270    1.4140    2.7370 ho        1 IFL      0.439000
     16 H           5.0020   -1.0340    0.6170 hn        1 IFL      0.325500
     17 H7C1        3.8050   -2.2340   -1.0770 h1        1 IFL      0.055200
     18 H7C2        3.7770   -0.4620   -1.5020 h1        1 IFL      0.055200
     19 H5          1.5410   -2.1760   -0.2020 hc        1 IFL      0.086700
     20 H6C1        0.2620   -1.3020   -2.1720 h1        1 IFL      0.040700
     21 H6C2        1.7660   -0.4490   -2.7770 h1        1 IFL      0.040700
     22 H6          1.3570   -2.6770   -3.5530 ho        1 IFL      0.407000
@<TRIPOS>BOND
     1    1    2 1   
     2    1   12 1   
     3    2    3 1   
     4    2    8 1   
     5    2   13 1   
     6    3    4 1   
     7    3    5 1   
     8    3   14 1   
     9    4   15 1   
    10    5    6 1   
    11    5   11 2   
    12    6    7 1   
    13    6   16 1   
    14    7    8 1   
    15    7   17 1   
    16    7   18 1   
    17    8    9 1   
    18    8   19 1   
    19    9   10 1   
    20    9   20 1   
    21    9   21 1   
    22   10   22 1   
@<TRIPOS>SUBSTRUCTURE
     1 IFL         1 TEMP              0 ****  ****    0 ROOT
