@<TRIPOS>MOLECULE
IFL
   22    22     1     0     0
SMALL
bcc


@<TRIPOS>ATOM
      1 O4         -0.0690   -0.1170   -0.0590 oh        1 IFL     -0.599800
      2 C4          1.3460   -0.0270   -0.0430 c3        1 IFL      0.150100
      3 C3          1.8560   -0.0090    1.4070 c3        1 IFL      0.045100
      4 O3          1.4700    1.2370    1.9580 oh        1 IFL     -0.604800
      5 C2          3.3700   -0.1960    1.4990 c         1 IFL      0.664500
      6 N           4.0200   -0.9160    0.5270 n         1 IFL     -0.555900
      7 C7          3.4350   -1.2160   -0.7510 c3        1 IFL      0.096000
      8 C5          1.9030   -1.2610   -0.7540 c3        1 IFL     -0.077700
      9 C6          1.3880   -1.3180   -2.1880 c3        1 IFL      0.136400
     10 O6          1.8790   -2.5190   -2.7650 oh        1 IFL     -0.607800
     11 O2          3.9860    0.2570    2.4880 o         1 IFL     -0.654500
     12 H4         -0.3960    0.6190    0.4780 ho        1 IFL      0.425000
     13 HA          1.6670    0.9160   -0.5680 h1        1 IFL      0.056700
     14 H3          1.3700   -0.8400    1.9950 h1        1 IFL      0.078700
     15 HB          2.0160    1.3900    2.7450 ho        1 IFL      0.439000
     16 H           5.0060   -1.0250    0.6080 hn        1 IFL      0.325500
     17 H7C1        3.7750   -0.4470   -1.5070 h1        1 IFL      0.055200
     18 H7C2        3.8150   -2.2220   -1.0930 h1        1 IFL      0.055200
     19 H5          1.5520   -2.1840   -0.2160 hc        1 IFL      0.086700
     20 H6C1        0.2650   -1.3070   -2.1790 h1        1 IFL      0.040700
     21 H6C2        1.7630   -0.4400   -2.7810 h1        1 IFL      0.040700
     22 H6          1.3680   -2.6670   -3.5690 ho        1 IFL      0.407000
@<TRIPOS>BOND
     1    1    2 1   
     2    1   12 1   
     3    2    3 1   
     4    2    8 1   
     5    2   13 1   
     6    3    4 1   
     7    3    5 1   
     8    3   14 1   
     9    4   15 1   
    10    5    6 1   
    11    5   11 2   
    12    6    7 1   
    13    6   16 1   
    14    7    8 1   
    15    7   17 1   
    16    7   18 1   
    17    8    9 1   
    18    8   19 1   
    19    9   10 1   
    20    9   20 1   
    21    9   21 1   
    22   10   22 1   
@<TRIPOS>SUBSTRUCTURE
     1 IFL         1 TEMP              0 ****  ****    0 ROOT
