@<TRIPOS>MOLECULE
IFL
   22    22     1     0     0
SMALL
bcc


@<TRIPOS>ATOM
      1 O4         -0.0670   -0.1070   -0.0550 oh        1 IFL     -0.599800
      2 C4          1.3490   -0.0240   -0.0420 c3        1 IFL      0.150100
      3 C3          1.8630   -0.0050    1.4070 c3        1 IFL      0.045100
      4 O3          1.4830    1.2430    1.9560 oh        1 IFL     -0.604800
      5 C2          3.3760   -0.1980    1.4960 c         1 IFL      0.664500
      6 N           4.0210   -0.9230    0.5230 ns        1 IFL     -0.555900
      7 C7          3.4320   -1.2220   -0.7530 c3        1 IFL      0.096000
      8 C5          1.8990   -1.2610   -0.7520 c3        1 IFL     -0.077700
      9 C6          1.3810   -1.3180   -2.1860 c3        1 IFL      0.136400
     10 O6          1.8650   -2.5220   -2.7620 oh        1 IFL     -0.607800
     11 O2          3.9950    0.2540    2.4820 o         1 IFL     -0.654500
     12 H4         -0.3890    0.6300    0.4820 ho        1 IFL      0.425000
     13 HA          1.6730    0.9170   -0.5700 h1        1 IFL      0.056700
     14 H3          1.3740   -0.8340    1.9970 h1        1 IFL      0.078700
     15 HB          2.0300    1.3950    2.7420 ho        1 IFL      0.439000
     16 H           5.0060   -1.0350    0.6020 hn        1 IFL      0.325500
     17 H7C1        3.8070   -2.2300   -1.0950 h1        1 IFL      0.055200
     18 H7C2        3.7730   -0.4560   -1.5110 h1        1 IFL      0.055200
     19 H5          1.5460   -2.1820   -0.2120 hc        1 IFL      0.086700
     20 H6C1        0.2580   -1.3030   -2.1740 h1        1 IFL      0.040700
     21 H6C2        1.7580   -0.4430   -2.7800 h1        1 IFL      0.040700
     22 H6          1.3520   -2.6690   -3.5650 ho        1 IFL      0.407000
@<TRIPOS>BOND
     1    1    2 1   
     2    1   12 1   
     3    2    3 1   
     4    2    8 1   
     5    2   13 1   
     6    3    4 1   
     7    3    5 1   
     8    3   14 1   
     9    4   15 1   
    10    5    6 1   
    11    5   11 2   
    12    6    7 1   
    13    6   16 1   
    14    7    8 1   
    15    7   17 1   
    16    7   18 1   
    17    8    9 1   
    18    8   19 1   
    19    9   10 1   
    20    9   20 1   
    21    9   21 1   
    22   10   22 1   
@<TRIPOS>SUBSTRUCTURE
     1 IFL         1 TEMP              0 ****  ****    0 ROOT
