@<TRIPOS>MOLECULE
IFL
   22    22     1     0     0
SMALL
bcc


@<TRIPOS>ATOM
      1 O4         -2.1360    1.0080   -0.1740 oh        1 IFL     -0.598800
      2 C4         -0.6950    1.0080   -0.1740 c3        1 IFL      0.147100
      3 C3         -0.2230    1.0080    1.2160 c3        1 IFL      0.039100
      4 O3          1.1720    1.3450    1.2920 oh        1 IFL     -0.607800
      5 C2         -0.5520   -0.4090    1.8950 c         1 IFL      0.667500
      6 N          -0.1030   -1.5420    1.1080 n         1 IFL     -0.561900
      7 C7         -0.5220   -1.4700   -0.3200 c3        1 IFL      0.094000
      8 C5         -0.2020   -0.2060   -0.9680 c3        1 IFL     -0.087700
      9 C6          1.3470   -0.1040   -1.1340 c3        1 IFL      0.131400
     10 O6          1.7290   -0.6900   -2.3650 oh        1 IFL     -0.607800
     11 O2         -1.5140   -0.5230    2.6340 o         1 IFL     -0.650500
     12 H4         -2.4320    1.7520   -0.5580 ho        1 IFL      0.423000
     13 HA         -0.3790    1.8210   -0.6130 h1        1 IFL      0.052700
     14 H3         -0.6220    1.7370    1.7280 h1        1 IFL      0.085700
     15 HB          1.3180    1.8400    2.0140 ho        1 IFL      0.441000
     16 H           0.0230   -2.3530    1.5060 hn        1 IFL      0.331500
     17 H7C1       -1.4870   -1.6080   -0.3670 h1        1 IFL      0.064200
     18 H7C2       -0.0810   -2.1910   -0.8090 h1        1 IFL      0.064200
     19 H5         -0.6150   -0.1930   -1.8530 hc        1 IFL      0.101700
     20 H6C1        1.6140    0.8340   -1.1230 h1        1 IFL      0.033200
     21 H6C2        1.7840   -0.5760   -0.3990 h1        1 IFL      0.033200
     22 H6          2.5770   -0.4890   -2.5380 ho        1 IFL      0.407000
@<TRIPOS>BOND
     1    1    2 1   
     2    1   12 1   
     3    2    3 1   
     4    2    8 1   
     5    2   13 1   
     6    3    4 1   
     7    3    5 1   
     8    3   14 1   
     9    4   15 1   
    10    5    6 1   
    11    5   11 2   
    12    6    7 1   
    13    6   16 1   
    14    7    8 1   
    15    7   17 1   
    16    7   18 1   
    17    8    9 1   
    18    8   19 1   
    19    9   10 1   
    20    9   20 1   
    21    9   21 1   
    22   10   22 1   
@<TRIPOS>SUBSTRUCTURE
     1 IFL         1 TEMP              0 ****  ****    0 ROOT
