@<TRIPOS>MOLECULE
IFL
   22    22     1     0     0
SMALL
bcc


@<TRIPOS>ATOM
      1 O4         -2.2530    0.2660    0.4930 oh        1 IFL     -0.599800
      2 C4         -0.9870   -0.2310    0.0930 c3        1 IFL      0.150100
      3 C3         -0.6060    0.3450   -1.2820 c3        1 IFL      0.045100
      4 O3         -1.4760   -0.2510   -2.2260 oh        1 IFL     -0.604800
      5 C2          0.8540    0.0770   -1.6460 c         1 IFL      0.664500
      6 N           1.7860   -0.0450   -0.6450 n         1 IFL     -0.555900
      7 C7          1.4370   -0.2840    0.7280 c3        1 IFL      0.096000
      8 C5          0.0450    0.2200    1.1270 c3        1 IFL     -0.077700
      9 C6         -0.3260   -0.3160    2.5060 c3        1 IFL      0.136400
     10 O6          0.6240    0.1980    3.4280 oh        1 IFL     -0.607800
     11 O2          1.1880    0.0360   -2.8490 o         1 IFL     -0.654500
     12 H4         -2.8690    0.0540   -0.2210 ho        1 IFL      0.425000
     13 HA         -1.0280   -1.3550    0.0320 h1        1 IFL      0.056700
     14 H3         -0.7630    1.4620   -1.2860 h1        1 IFL      0.078700
     15 HB         -1.0780   -0.1350   -3.1030 ho        1 IFL      0.439000
     16 H           2.7310   -0.2190   -0.9060 hn        1 IFL      0.325500
     17 H7C1        2.1960    0.2280    1.3880 h1        1 IFL      0.055200
     18 H7C2        1.4930   -1.3930    0.9410 h1        1 IFL      0.055200
     19 H5          0.0500    1.3440    1.1740 hc        1 IFL      0.086700
     20 H6C1       -0.2890   -1.4380    2.5210 h1        1 IFL      0.040700
     21 H6C2       -1.3630    0.0250    2.7690 h1        1 IFL      0.040700
     22 H6          0.2580    0.0580    4.3080 ho        1 IFL      0.407000
@<TRIPOS>BOND
     1    1    2 1   
     2    1   12 1   
     3    2    3 1   
     4    2    8 1   
     5    2   13 1   
     6    3    4 1   
     7    3    5 1   
     8    3   14 1   
     9    4   15 1   
    10    5    6 1   
    11    5   11 2   
    12    6    7 1   
    13    6   16 1   
    14    7    8 1   
    15    7   17 1   
    16    7   18 1   
    17    8    9 1   
    18    8   19 1   
    19    9   10 1   
    20    9   20 1   
    21    9   21 1   
    22   10   22 1   
@<TRIPOS>SUBSTRUCTURE
     1 IFL         1 TEMP              0 ****  ****    0 ROOT
