@<TRIPOS>MOLECULE
IFM
   23    23     1     0     0
SMALL
bcc


@<TRIPOS>ATOM
      1 O4         -0.0010   -0.0230   -0.1510 oh        1 IFM     -0.603800
      2 C4          1.4150    0.0020   -0.0660 c3        1 IFM      0.151100
      3 C3          1.8650   -0.0050    1.4060 c3        1 IFM      0.102100
      4 O3          1.4360    1.2360    1.9490 oh        1 IFM     -0.610800
      5 C2          3.3950   -0.1300    1.5050 c3        1 IFM      0.132800
      6 N           3.8960   -1.2790    0.7820 n3        1 IFM     -0.818200
      7 C1          3.4720   -1.3300   -0.6030 c3        1 IFM      0.162800
      8 C5          1.9500   -1.2480   -0.7690 c3        1 IFM     -0.064700
      9 C6          1.5840   -1.2030   -2.2490 c3        1 IFM      0.133400
     10 O6          1.9920   -2.4340   -2.8270 oh        1 IFM     -0.604800
     11 H4         -0.3200    0.7070    0.3960 ho        1 IFM      0.418000
     12 HA          1.8010    0.9340   -0.5670 h1        1 IFM      0.046700
     13 H3          1.3610   -0.8510    1.9510 h1        1 IFM      0.063700
     14 HB          1.6920    1.2390    2.8790 ho        1 IFM      0.408000
     15 H2C1        3.6790   -0.2560    2.5870 h1        1 IFM      0.034700
     16 H2C2        3.8410    0.8450    1.1470 h1        1 IFM      0.034700
     17 H           4.8970   -1.3070    0.8360 hn        1 IFM      0.368800
     18 H1C1        3.9380   -0.5050   -1.2200 h1        1 IFM      0.042700
     19 H1C2        3.8150   -2.3150   -1.0310 h1        1 IFM      0.042700
     20 H5          1.4720   -2.1580   -0.3120 hc        1 IFM      0.089700
     21 H6C1        0.4740   -1.0630   -2.3530 h1        1 IFM      0.034200
     22 H6C2        2.1130   -0.3570   -2.7650 h1        1 IFM      0.034200
     23 H6          1.5650   -2.4850   -3.6900 ho        1 IFM      0.401000
@<TRIPOS>BOND
     1    1    2 1   
     2    1   11 1   
     3    2    3 1   
     4    2    8 1   
     5    2   12 1   
     6    3    4 1   
     7    3    5 1   
     8    3   13 1   
     9    4   14 1   
    10    5    6 1   
    11    5   15 1   
    12    5   16 1   
    13    6    7 1   
    14    6   17 1   
    15    7    8 1   
    16    7   18 1   
    17    7   19 1   
    18    8    9 1   
    19    8   20 1   
    20    9   10 1   
    21    9   21 1   
    22    9   22 1   
    23   10   23 1   
@<TRIPOS>SUBSTRUCTURE
     1 IFM         1 TEMP              0 ****  ****    0 ROOT
