@<TRIPOS>MOLECULE
IFM
   23    23     1     0     0
SMALL
bcc


@<TRIPOS>ATOM
      1 O4         -0.0040   -0.0350   -0.1410 oh        1 IFM     -0.603800
      2 C4          1.4120   -0.0030   -0.0610 c3        1 IFM      0.151100
      3 C3          1.8680   -0.0110    1.4090 c3        1 IFM      0.102100
      4 O3          1.4350    1.2260    1.9580 oh        1 IFM     -0.610800
      5 C2          3.3990   -0.1270    1.5010 c3        1 IFM      0.132800
      6 N           3.9040   -1.2720    0.7740 n3        1 IFM     -0.818200
      7 C1          3.4740   -1.3220   -0.6100 c3        1 IFM      0.162800
      8 C5          1.9500   -1.2470   -0.7700 c3        1 IFM     -0.064700
      9 C6          1.5780   -1.2010   -2.2480 c3        1 IFM      0.133400
     10 O6          1.9900   -2.4280   -2.8310 oh        1 IFM     -0.604800
     11 H4         -0.3250    0.6910    0.4100 ho        1 IFM      0.418000
     12 HA          1.7910    0.9330   -0.5610 h1        1 IFM      0.046700
     13 H3          1.3720   -0.8610    1.9540 h1        1 IFM      0.063700
     14 HB          1.6950    1.2280    2.8860 ho        1 IFM      0.408000
     15 H2C1        3.6890   -0.2550    2.5820 h1        1 IFM      0.034700
     16 H2C2        3.8380    0.8510    1.1440 h1        1 IFM      0.034700
     17 H           4.9050   -1.2950    0.8230 hn        1 IFM      0.368800
     18 H1C1        3.9330   -0.4930   -1.2270 h1        1 IFM      0.042700
     19 H1C2        3.8210   -2.3030   -1.0420 h1        1 IFM      0.042700
     20 H5          1.4800   -2.1610   -0.3130 hc        1 IFM      0.089700
     21 H6C1        0.4680   -1.0660   -2.3460 h1        1 IFM      0.034200
     22 H6C2        2.1010   -0.3510   -2.7640 h1        1 IFM      0.034200
     23 H6          1.5600   -2.4790   -3.6920 ho        1 IFM      0.401000
@<TRIPOS>BOND
     1    1    2 1   
     2    1   11 1   
     3    2    3 1   
     4    2    8 1   
     5    2   12 1   
     6    3    4 1   
     7    3    5 1   
     8    3   13 1   
     9    4   14 1   
    10    5    6 1   
    11    5   15 1   
    12    5   16 1   
    13    6    7 1   
    14    6   17 1   
    15    7    8 1   
    16    7   18 1   
    17    7   19 1   
    18    8    9 1   
    19    8   20 1   
    20    9   10 1   
    21    9   21 1   
    22    9   22 1   
    23   10   23 1   
@<TRIPOS>SUBSTRUCTURE
     1 IFM         1 TEMP              0 ****  ****    0 ROOT
