@<TRIPOS>MOLECULE
IFM
   23    23     1     0     0
SMALL
bcc


@<TRIPOS>ATOM
      1 O4          2.1070   -0.2840   -0.2930 oh        1 IFM     -0.603800
      2 C4          0.7900    0.2410   -0.3650 c3        1 IFM      0.151100
      3 C3          0.0680   -0.2890   -1.6160 c3        1 IFM      0.102100
      4 O3          0.7540    0.2710   -2.7280 oh        1 IFM     -0.610800
      5 C2         -1.4050    0.1540   -1.6200 c3        1 IFM      0.132800
      6 N          -2.0910   -0.2200   -0.4020 n3        1 IFM     -0.818200
      7 C1         -1.4280    0.2330    0.8050 c3        1 IFM      0.162800
      8 C5          0.0380   -0.2090    0.8890 c3        1 IFM     -0.064700
      9 C6          0.6970    0.3870    2.1280 c3        1 IFM      0.133400
     10 O6          0.0420   -0.1560    3.2640 oh        1 IFM     -0.604800
     11 H4          2.5240   -0.0880   -1.1430 ho        1 IFM      0.418000
     12 HA          0.8410    1.3650   -0.4140 h1        1 IFM      0.046700
     13 H3          0.1450   -1.4110   -1.6500 h1        1 IFM      0.063700
     14 HB          0.3250   -0.0700   -3.5220 ho        1 IFM      0.408000
     15 H2C1       -1.9330   -0.3490   -2.4780 h1        1 IFM      0.034700
     16 H2C2       -1.4260    1.2680   -1.8140 h1        1 IFM      0.034700
     17 H          -3.0350    0.1180   -0.4230 hn        1 IFM      0.368800
     18 H1C1       -1.9760   -0.2110    1.6850 h1        1 IFM      0.042700
     19 H1C2       -1.4620    1.3580    0.9110 h1        1 IFM      0.042700
     20 H5          0.0880   -1.3300    0.9640 hc        1 IFM      0.089700
     21 H6C1        0.5900    1.5060    2.1370 h1        1 IFM      0.034200
     22 H6C2        1.7880    0.1200    2.1330 h1        1 IFM      0.034200
     23 H6          0.5980    0.0480    4.0240 ho        1 IFM      0.401000
@<TRIPOS>BOND
     1    1    2 1   
     2    1   11 1   
     3    2    3 1   
     4    2    8 1   
     5    2   12 1   
     6    3    4 1   
     7    3    5 1   
     8    3   13 1   
     9    4   14 1   
    10    5    6 1   
    11    5   15 1   
    12    5   16 1   
    13    6    7 1   
    14    6   17 1   
    15    7    8 1   
    16    7   18 1   
    17    7   19 1   
    18    8    9 1   
    19    8   20 1   
    20    9   10 1   
    21    9   21 1   
    22    9   22 1   
    23   10   23 1   
@<TRIPOS>SUBSTRUCTURE
     1 IFM         1 TEMP              0 ****  ****    0 ROOT
