@<TRIPOS>MOLECULE
IFP
   16    12     1     0     0
SMALL
bcc


@<TRIPOS>ATOM
      1 N1A        -0.9440   -0.1150   -1.3330 n1        1 IFP     -0.157000
      2 C2A         0.5180   -0.1150   -1.3330 c1        1 IFP     -0.002000
      3 CM2         1.2740   -0.1170   -2.6440 c3        1 IFP      0.493000
      4 N3A         1.2500   -0.1150   -0.0680 n1        1 IFP     -0.167000
      5 C4A         0.5510    0.0420    1.1560 c1        1 IFP      0.068000
      6 N4A         1.2050    0.0350    2.2870 n1        1 IFP     -0.202000
      7 C5A        -0.9170    0.1240    1.1560 c2        1 IFP     -0.168000
      8 C6A        -1.6530    0.0420   -0.1140 c2        1 IFP      0.021000
      9 C7A        -1.5890    0.1720    2.3220 c1        1 IFP     -0.072000
     10 F1          2.1910   -1.0920   -2.6290 f         1 IFP     -0.146667
     11 F2          1.8810    1.0650   -2.8110 f         1 IFP     -0.146667
     12 F3          0.4180   -0.3250   -3.6520 f         1 IFP     -0.146667
     13 HN4         2.1100   -0.0710    2.2900 DU        1 IFP      0.165000
     14 H6A1       -2.6290    0.0690   -0.1160 h4        1 IFP      0.173000
     15 H7A1       -1.1020    0.1530    3.1680 DU        1 IFP      0.165000
     16 H7A2       -2.5630    0.2440    2.3220 ha        1 IFP      0.123000
@<TRIPOS>BOND
     1    1    8 1   
     2    2    3 1   
     3    2    4 1   
     4    3   10 1   
     5    3   11 1   
     6    3   12 1   
     7    5    6 1   
     8    5    7 1   
     9    7    8 1   
    10    7    9 1   
    11    8   14 1   
    12    9   16 1   
@<TRIPOS>SUBSTRUCTURE
     1 IFP         1 TEMP              0 ****  ****    0 ROOT
