@<TRIPOS>MOLECULE
IFP
   16    16     1     0     0
SMALL
bcc


@<TRIPOS>ATOM
      1 N1A        -0.0410   -0.0020   -0.0130 nc        1 IFP     -0.664000
      2 C2A         1.3850    0.0010    0.0320 cc        1 IFP      0.580300
      3 CM2         2.0340    0.0060   -1.3950 c3        1 IFP      0.631600
      4 N3A         2.1510   -0.0000    1.0840 nd        1 IFP     -0.674000
      5 C4A         1.5360   -0.0050    2.3910 cd        1 IFP      0.661600
      6 N4A         2.2180   -0.0070    3.4900 n2        1 IFP     -0.734100
      7 C5A         0.0390   -0.0090    2.4430 cd        1 IFP     -0.341200
      8 C6A        -0.6400   -0.0070    1.1390 cd        1 IFP      0.524500
      9 C7A        -0.6600   -0.0140    3.5880 c2        1 IFP     -0.072000
     10 F1          1.6730   -1.0840   -2.1400 f         1 IFP     -0.217967
     11 F2          3.4010    0.0090   -1.4200 f         1 IFP     -0.217967
     12 F3          1.6690    1.1000   -2.1330 f         1 IFP     -0.217967
     13 HN4         3.2150   -0.0040    3.4090 hn        1 IFP      0.419400
     14 H6A1       -1.7490   -0.0090    1.1340 h4        1 IFP      0.043800
     15 H7A1       -1.7610   -0.0170    3.5910 ha        1 IFP      0.139000
     16 H7A2       -0.1840   -0.0160    4.5800 ha        1 IFP      0.139000
@<TRIPOS>BOND
     1    1    2 1   
     2    1    8 2   
     3    2    3 1   
     4    2    4 2   
     5    3   10 1   
     6    3   11 1   
     7    3   12 1   
     8    4    5 1   
     9    5    6 2   
    10    5    7 1   
    11    6   13 1   
    12    7    8 1   
    13    7    9 2   
    14    8   14 1   
    15    9   15 1   
    16    9   16 1   
@<TRIPOS>SUBSTRUCTURE
     1 IFP         1 TEMP              0 ****  ****    0 ROOT
