@<TRIPOS>MOLECULE
IFP
   16    16     1     0     0
SMALL
bcc


@<TRIPOS>ATOM
      1 N1A        -1.4220   -0.0000    0.0780 nc        1 IFP     -0.664000
      2 C2A        -0.0710    0.0000   -0.3800 cc        1 IFP      0.580300
      3 CM2         0.0360    0.0000   -1.9440 c3        1 IFP      0.631600
      4 N3A         1.0150    0.0000    0.3370 nd        1 IFP     -0.674000
      5 C4A         0.8970    0.0000    1.7760 cd        1 IFP      0.661600
      6 N4A         1.9220    0.0000    2.5660 n2        1 IFP     -0.734100
      7 C5A        -0.4860   -0.0000    2.3500 cd        1 IFP     -0.341200
      8 C6A        -1.5790   -0.0000    1.3670 cd        1 IFP      0.524500
      9 C7A        -0.7400   -0.0000    3.6680 c2        1 IFP     -0.072000
     10 F1         -0.5630   -1.0920   -2.5110 f         1 IFP     -0.217967
     11 F2          1.3080    0.0000   -2.4470 f         1 IFP     -0.217967
     12 F3         -0.5640    1.0920   -2.5110 f         1 IFP     -0.217967
     13 HN4         2.8260    0.0010    2.1410 hn        1 IFP      0.419400
     14 H6A1       -2.6190   -0.0010    1.7520 h4        1 IFP      0.043800
     15 H7A1       -1.7690   -0.0010    4.0560 ha        1 IFP      0.139000
     16 H7A2        0.0540   -0.0000    4.4300 ha        1 IFP      0.139000
@<TRIPOS>BOND
     1    1    2 1   
     2    1    8 2   
     3    2    3 1   
     4    2    4 2   
     5    3   10 1   
     6    3   11 1   
     7    3   12 1   
     8    4    5 1   
     9    5    6 2   
    10    5    7 1   
    11    6   13 1   
    12    7    8 1   
    13    7    9 2   
    14    8   14 1   
    15    9   15 1   
    16    9   16 1   
@<TRIPOS>SUBSTRUCTURE
     1 IFP         1 TEMP              0 ****  ****    0 ROOT
