@<TRIPOS>MOLECULE
IFS
   39    39     1     0     0
SMALL
bcc


@<TRIPOS>ATOM
      1 C1          1.0220   -0.3710    0.1090 ca        1 IFS     -0.447500
      2 O1         -0.7780    0.8680   -1.3860 o         1 IFS     -0.879300
      3 P1         -0.4660    0.2170   -0.1120 py        1 IFS      1.627600
      4 S1          2.3620    1.3140   -2.8190 sh        1 IFS     -0.382900
      5 C2          1.9890   -0.5600   -0.8890 ca        1 IFS      0.048700
      6 C3          3.2520   -1.0650   -0.5290 ca        1 IFS     -0.152000
      7 C4          3.5530   -1.3750    0.7910 ca        1 IFS     -0.062000
      8 C5          2.5900   -1.1930    1.7870 ca        1 IFS     -0.154000
      9 C6          1.3430   -0.6960    1.4370 ca        1 IFS     -0.034000
     10 C7          1.7700   -0.2830   -2.3370 c3        1 IFS      0.022000
     11 C101       -1.2060    3.5170    1.2460 c3        1 IFS     -0.109100
     12 C102       -3.8630   -1.0700   -0.1700 c3        1 IFS     -0.109100
     13 O21        -1.5050   -0.9730    0.2080 os        1 IFS     -0.600200
     14 O22        -0.7600    1.1720    1.1510 os        1 IFS     -0.600200
     15 C81        -1.7980    2.1330    1.0360 c3        1 IFS      0.183600
     16 C82        -2.4820   -1.3180   -0.7580 c3        1 IFS      0.183600
     17 C91        -2.8560    1.8390    2.0880 c3        1 IFS     -0.109100
     18 C92        -2.3120   -2.7870   -1.1130 c3        1 IFS     -0.109100
     19 HS1         1.2360    2.0140   -2.6810 hs        1 IFS      0.247800
     20 H3          4.0170   -1.2060   -1.3100 ha        1 IFS      0.144000
     21 H4          4.5490   -1.7650    1.0520 ha        1 IFS      0.138000
     22 H5          2.8190   -1.4390    2.8340 ha        1 IFS      0.143000
     23 H6          0.5700   -0.5370    2.2100 ha        1 IFS      0.156000
     24 H7          0.6760   -0.3640   -2.5760 h1        1 IFS      0.098200
     25 H7A         2.3340   -1.0220   -2.9610 h1        1 IFS      0.098200
     26 H101       -0.6700    3.5610    2.2240 hc        1 IFS      0.044283
     27 H10A       -0.4820    3.7610    0.4330 hc        1 IFS      0.044283
     28 H10B       -2.0240    4.2750    1.2420 hc        1 IFS      0.044283
     29 H102       -4.0360    0.0230   -0.0260 hc        1 IFS      0.044283
     30 H10C       -4.6400   -1.4700   -0.8630 hc        1 IFS      0.044283
     31 H10D       -3.9560   -1.5770    0.8200 hc        1 IFS      0.044283
     32 H81        -2.2450    2.0590    0.0000 h1        1 IFS      0.064200
     33 H82        -2.3330   -0.6760   -1.6770 h1        1 IFS      0.064200
     34 H91        -3.6710    2.5980    2.0160 hc        1 IFS      0.044283
     35 H91A       -3.2890    0.8210    1.9350 hc        1 IFS      0.044283
     36 H91B       -2.4050    1.8810    3.1070 hc        1 IFS      0.044283
     37 H92        -3.1000   -3.0870   -1.8430 hc        1 IFS      0.044283
     38 H92A       -1.3100   -2.9690   -1.5680 hc        1 IFS      0.044283
     39 H92B       -2.4020   -3.4170   -0.1960 hc        1 IFS      0.044283
@<TRIPOS>BOND
     1    1    3 1   
     2    1    5 ar  
     3    1    9 ar  
     4    2    3 2   
     5    3   13 1   
     6    3   14 1   
     7    4   10 1   
     8    4   19 1   
     9    5    6 ar  
    10    5   10 1   
    11    6    7 ar  
    12    6   20 1   
    13    7    8 ar  
    14    7   21 1   
    15    8    9 ar  
    16    8   22 1   
    17    9   23 1   
    18   10   24 1   
    19   10   25 1   
    20   11   15 1   
    21   11   26 1   
    22   11   27 1   
    23   11   28 1   
    24   12   16 1   
    25   12   29 1   
    26   12   30 1   
    27   12   31 1   
    28   13   16 1   
    29   14   15 1   
    30   15   17 1   
    31   15   32 1   
    32   16   18 1   
    33   16   33 1   
    34   17   34 1   
    35   17   35 1   
    36   17   36 1   
    37   18   37 1   
    38   18   38 1   
    39   18   39 1   
@<TRIPOS>SUBSTRUCTURE
     1 IFS         1 TEMP              0 ****  ****    0 ROOT
