@<TRIPOS>MOLECULE
IFS
   39    39     1     0     0
SMALL
bcc


@<TRIPOS>ATOM
      1 C1          0.0120    0.3010   -0.4970 ca        1 IFS     -0.422500
      2 O1         -0.8900   -0.8650   -2.7150 o         1 IFS     -0.868300
      3 P1         -0.9190    0.2970   -1.8250 py        1 IFS      1.621600
      4 S1          3.0540   -0.6430   -2.2380 sh        1 IFS     -0.342900
      5 C2          1.1680   -0.4650   -0.2940 ca        1 IFS      0.039700
      6 C3          1.8430   -0.3740    0.9370 ca        1 IFS     -0.170000
      7 C4          1.3980    0.4770    1.9420 ca        1 IFS     -0.063000
      8 C5          0.2610    1.2600    1.7340 ca        1 IFS     -0.152000
      9 C6         -0.4150    1.1630    0.5250 ca        1 IFS     -0.036000
     10 C7          1.7570   -1.3920   -1.3010 c3        1 IFS     -0.007000
     11 C101        1.2690    2.0980   -4.0370 c3        1 IFS     -0.110850
     12 C102       -4.3260    1.3370   -2.5420 c3        1 IFS     -0.110850
     13 O21        -2.4140    0.6050   -1.3070 os        1 IFS     -0.600700
     14 O22        -0.6120    1.6660   -2.6140 os        1 IFS     -0.600700
     15 C81        -0.1660    1.6000   -3.9590 c3        1 IFS      0.181600
     16 C82        -3.5060    0.1410   -2.0830 c3        1 IFS      0.181600
     17 C91        -1.0810    2.4730   -4.8040 c3        1 IFS     -0.110850
     18 C92        -4.3520   -0.7860   -1.2240 c3        1 IFS     -0.110850
     19 HS1         3.8740   -0.3060   -1.2590 hs        1 IFS      0.193800
     20 H3          2.7400   -0.9910    1.1070 ha        1 IFS      0.137000
     21 H4          1.9410    0.5340    2.8980 ha        1 IFS      0.138000
     22 H5         -0.0960    1.9430    2.5190 ha        1 IFS      0.144000
     23 H6         -1.3230    1.7700    0.3500 ha        1 IFS      0.162000
     24 H7          0.9810   -1.6820   -2.0700 h1        1 IFS      0.117200
     25 H7A         2.1160   -2.3240   -0.8000 h1        1 IFS      0.117200
     26 H101        1.5730    2.1830   -5.1070 hc        1 IFS      0.044283
     27 H10A        1.9640    1.3880   -3.5200 hc        1 IFS      0.044283
     28 H10B        1.3550    3.0990   -3.5510 hc        1 IFS      0.044283
     29 H102       -5.2020    0.9810   -3.1330 hc        1 IFS      0.044283
     30 H10C       -4.6890    1.9140   -1.6590 hc        1 IFS      0.044283
     31 H10D       -3.7090    2.0170   -3.1770 hc        1 IFS      0.044283
     32 H81        -0.2240    0.5270   -4.3110 h1        1 IFS      0.069700
     33 H82        -3.1040   -0.4250   -2.9760 h1        1 IFS      0.069700
     34 H91        -0.7370    2.4540   -5.8640 hc        1 IFS      0.044283
     35 H91A       -1.0630    3.5230   -4.4290 hc        1 IFS      0.044283
     36 H91B       -2.1310    2.0990   -4.7550 hc        1 IFS      0.044283
     37 H92        -3.7720   -1.6960   -0.9420 hc        1 IFS      0.044283
     38 H92A       -5.2570   -1.0980   -1.7970 hc        1 IFS      0.044283
     39 H92B       -4.6700   -0.2630   -0.2920 hc        1 IFS      0.044283
@<TRIPOS>BOND
     1    1    3 1   
     2    1    5 ar  
     3    1    9 ar  
     4    2    3 2   
     5    3   13 1   
     6    3   14 1   
     7    4   10 1   
     8    4   19 1   
     9    5    6 ar  
    10    5   10 1   
    11    6    7 ar  
    12    6   20 1   
    13    7    8 ar  
    14    7   21 1   
    15    8    9 ar  
    16    8   22 1   
    17    9   23 1   
    18   10   24 1   
    19   10   25 1   
    20   11   15 1   
    21   11   26 1   
    22   11   27 1   
    23   11   28 1   
    24   12   16 1   
    25   12   29 1   
    26   12   30 1   
    27   12   31 1   
    28   13   16 1   
    29   14   15 1   
    30   15   17 1   
    31   15   32 1   
    32   16   18 1   
    33   16   33 1   
    34   17   34 1   
    35   17   35 1   
    36   17   36 1   
    37   18   37 1   
    38   18   38 1   
    39   18   39 1   
@<TRIPOS>SUBSTRUCTURE
     1 IFS         1 TEMP              0 ****  ****    0 ROOT
