@<TRIPOS>MOLECULE
IFS
   39    39     1     0     0
SMALL
bcc


@<TRIPOS>ATOM
      1 C1          0.0180    0.3120   -0.4980 ca        1 IFS     -0.422500
      2 O1         -0.8530   -0.8640   -2.7230 o         1 IFS     -0.868300
      3 P1         -0.9110    0.2920   -1.8280 py        1 IFS      1.621600
      4 S1          3.0840   -0.5530   -2.2390 sh        1 IFS     -0.342900
      5 C2          1.1910   -0.4280   -0.2970 ca        1 IFS      0.039700
      6 C3          1.8620   -0.3270    0.9360 ca        1 IFS     -0.170000
      7 C4          1.3950    0.5090    1.9430 ca        1 IFS     -0.063000
      8 C5          0.2400    1.2660    1.7370 ca        1 IFS     -0.152000
      9 C6         -0.4310    1.1600    0.5270 ca        1 IFS     -0.036000
     10 C7          1.8030   -1.3350   -1.3070 c3        1 IFS     -0.007000
     11 C101        1.2380    2.1550   -4.0280 c3        1 IFS     -0.110850
     12 C102       -4.3410    1.2530   -2.5460 c3        1 IFS     -0.110850
     13 O21        -2.4130    0.5630   -1.3110 os        1 IFS     -0.600700
     14 O22        -0.6340    1.6720   -2.6100 os        1 IFS     -0.600700
     15 C81        -0.1850    1.6230   -3.9540 c3        1 IFS      0.181600
     16 C82        -3.4930    0.0750   -2.0900 c3        1 IFS      0.181600
     17 C91        -1.1190    2.4780   -4.7970 c3        1 IFS     -0.110850
     18 C92        -4.3180   -0.8750   -1.2360 c3        1 IFS     -0.110850
     19 HS1         3.8940   -0.2010   -1.2560 hs        1 IFS      0.193800
     20 H3          2.7720   -0.9230    1.1040 ha        1 IFS      0.137000
     21 H4          1.9350    0.5740    2.9010 ha        1 IFS      0.138000
     22 H5         -0.1340    1.9370    2.5250 ha        1 IFS      0.144000
     23 H6         -1.3530    1.7450    0.3530 ha        1 IFS      0.162000
     24 H7          1.0350   -1.6400   -2.0790 h1        1 IFS      0.117200
     25 H7A         2.1830   -2.2610   -0.8110 h1        1 IFS      0.117200
     26 H101        1.3000    3.1550   -3.5370 hc        1 IFS      0.044283
     27 H10A        1.5410    2.2520   -5.0970 hc        1 IFS      0.044283
     28 H10B        1.9490    1.4590   -3.5140 hc        1 IFS      0.044283
     29 H102       -3.7400    1.9500   -3.1780 hc        1 IFS      0.044283
     30 H10C       -4.7190    1.8180   -1.6610 hc        1 IFS      0.044283
     31 H10D       -5.2080    0.8780   -3.1390 hc        1 IFS      0.044283
     32 H81        -0.2180    0.5500   -4.3120 h1        1 IFS      0.070200
     33 H82        -3.0770   -0.4780   -2.9840 h1        1 IFS      0.070200
     34 H91        -0.7730    2.4720   -5.8570 hc        1 IFS      0.044283
     35 H91A       -2.1600    2.0800   -4.7520 hc        1 IFS      0.044283
     36 H91B       -1.1260    3.5270   -4.4170 hc        1 IFS      0.044283
     37 H92        -3.7160   -1.7720   -0.9550 hc        1 IFS      0.044283
     38 H92A       -4.6490   -0.3630   -0.3020 hc        1 IFS      0.044283
     39 H92B       -5.2150   -1.2060   -1.8100 hc        1 IFS      0.044283
@<TRIPOS>BOND
     1    1    3 1   
     2    1    5 ar  
     3    1    9 ar  
     4    2    3 2   
     5    3   13 1   
     6    3   14 1   
     7    4   10 1   
     8    4   19 1   
     9    5    6 ar  
    10    5   10 1   
    11    6    7 ar  
    12    6   20 1   
    13    7    8 ar  
    14    7   21 1   
    15    8    9 ar  
    16    8   22 1   
    17    9   23 1   
    18   10   24 1   
    19   10   25 1   
    20   11   15 1   
    21   11   26 1   
    22   11   27 1   
    23   11   28 1   
    24   12   16 1   
    25   12   29 1   
    26   12   30 1   
    27   12   31 1   
    28   13   16 1   
    29   14   15 1   
    30   15   17 1   
    31   15   32 1   
    32   16   18 1   
    33   16   33 1   
    34   17   34 1   
    35   17   35 1   
    36   17   36 1   
    37   18   37 1   
    38   18   38 1   
    39   18   39 1   
@<TRIPOS>SUBSTRUCTURE
     1 IFS         1 TEMP              0 ****  ****    0 ROOT
