@<TRIPOS>MOLECULE
IFS
   39    36     1     0     0
SMALL
bcc


@<TRIPOS>ATOM
      1 C1          1.0280    0.3180    1.0070 c1        1 IFS     -0.836000
      2 O1          0.2350   -0.0500   -1.5690 o         1 IFS     -1.150000
      3 P1         -0.3110   -0.0510   -0.1620 p3        1 IFS      2.754000
      4 S1          4.3500    2.0600    0.0130 sh        1 IFS     -0.032000
      5 C2          2.4040    0.4900    0.9970 c2        1 IFS      0.058000
      6 C3          3.1190    0.4250    2.1820 c1        1 IFS     -0.152000
      7 C4          2.4590    0.1880    3.3780 c1        1 IFS     -0.108000
      8 C5          1.0830    0.0160    3.3880 c1        1 IFS     -0.108000
      9 C6          0.3680    0.0810    2.2020 c1        1 IFS     -0.035000
     10 C7          3.1140    0.8270   -0.2960 c3        1 IFS     -0.245000
     11 C101       -2.3390   -3.1700   -0.7220 c3        1 IFS     -0.227250
     12 C102       -3.3450    1.8010   -1.2520 c3        1 IFS     -0.227250
     13 O21        -1.4390    1.0480   -0.0340 os        1 IFS     -0.762500
     14 O22        -0.9200   -1.4720    0.1660 os        1 IFS     -0.762500
     15 C81        -1.0420   -2.4060   -0.8780 c3        1 IFS      0.073000
     16 C82        -1.8350    1.7400   -1.1920 c3        1 IFS      0.073000
     17 C91         0.1210   -3.3720   -0.8290 c3        1 IFS     -0.227250
     18 C92        -1.2750    3.1450   -1.1560 c3        1 IFS     -0.227250
     19 HS1         4.9060    2.3190   -0.9930 hs        1 IFS      0.077000
     20 H3          4.0870    0.5450    2.1760 ha        1 IFS      0.145000
     21 H4          2.9620    0.1420    4.2130 ha        1 IFS      0.140500
     22 H5          0.6190   -0.1510    4.2290 ha        1 IFS      0.140500
     23 H6         -0.6000   -0.0400    2.2090 ha        1 IFS      0.155000
     24 H7          3.5380    0.0220   -0.6540 h1        1 IFS      0.138500
     25 H7A         2.4660    1.1700   -0.9440 h1        1 IFS      0.138500
     26 H101       -2.3950   -3.8630   -1.4130 hc        1 IFS      0.083667
     27 H10A       -3.0950   -2.5530   -0.8160 hc        1 IFS      0.083667
     28 H10B       -2.3670   -3.5880    0.1630 hc        1 IFS      0.083667
     29 H102       -3.7110    0.8940   -1.1850 hc        1 IFS      0.083667
     30 H10C       -3.6220    2.2030   -2.1020 hc        1 IFS      0.083667
     31 H10D       -3.6800    2.3440   -0.5080 hc        1 IFS      0.083667
     32 H81        -1.0410   -1.9380   -1.7360 h1        1 IFS      0.101500
     33 H82        -1.4960    1.2740   -1.9820 h1        1 IFS      0.101500
     34 H91         0.2850   -3.6400    0.0990 hc        1 IFS      0.083667
     35 H91A        0.9220   -2.9380   -1.1900 hc        1 IFS      0.083667
     36 H91B       -0.0900   -4.1650   -1.3650 hc        1 IFS      0.083667
     37 H92        -0.2950    3.1060   -1.1430 hc        1 IFS      0.083667
     38 H92A       -1.5720    3.6360   -1.9500 hc        1 IFS      0.083667
     39 H92B       -1.5940    3.6030   -0.3500 hc        1 IFS      0.083667
@<TRIPOS>BOND
     1    1    5 1   
     2    1    9 1   
     3    2    3 1   
     4    3   13 1   
     5    3   14 1   
     6    4   10 1   
     7    4   19 1   
     8    5    6 1   
     9    5   10 1   
    10    6   20 1   
    11    7    8 1   
    12    7   21 1   
    13    8   22 1   
    14    9   23 1   
    15   10   24 1   
    16   10   25 1   
    17   11   15 1   
    18   11   26 1   
    19   11   27 1   
    20   11   28 1   
    21   12   16 1   
    22   12   29 1   
    23   12   30 1   
    24   12   31 1   
    25   13   16 1   
    26   14   15 1   
    27   15   17 1   
    28   15   32 1   
    29   16   18 1   
    30   16   33 1   
    31   17   34 1   
    32   17   35 1   
    33   17   36 1   
    34   18   37 1   
    35   18   38 1   
    36   18   39 1   
@<TRIPOS>SUBSTRUCTURE
     1 IFS         1 TEMP              0 ****  ****    0 ROOT
