@<TRIPOS>MOLECULE
IG
   36    34     1     0     0
SMALL
bcc


@<TRIPOS>ATOM
      1 P          -0.5340   -4.0000    3.0930 p3        1 IG       2.506000
      2 OP1         0.9760   -4.0000    3.0930 o         1 IG      -1.249000
      3 OP2        -1.0380   -4.0000    4.5200 os        1 IG      -1.223000
      4 OP3        -1.0380   -5.2340    2.3810 o         1 IG      -1.249000
      5 O5'        -1.0660   -2.6970    2.3410 os        1 IG      -0.716000
      6 O3'        -1.5640   -2.8330   -2.1020 oh        1 IG      -0.359000
      7 C1'        -1.5440    0.2690   -0.2580 c3        1 IG       0.128000
      8 C2'        -1.3840   -0.6030   -1.5970 c3        1 IG      -0.019000
      9 C3'        -0.9860   -1.7760   -1.2160 c3        1 IG      -0.029000
     10 C4'        -1.5240   -1.9290    0.2150 c3        1 IG      -0.088000
     11 C5'        -0.5080   -2.3700    1.0720 c3        1 IG       0.075000
     12 O4'        -2.0080   -0.5220    0.6350 os        1 IG      -0.247000
     13 O2'        -2.6740   -0.7100   -2.2860 oh        1 IG      -0.319000
     14 N6          2.7650    4.4280    0.9920 n3        1 IG      -0.327000
     15 O2          1.8020    3.1740   -3.6720 o         1 IG      -0.408000
     16 C6          2.3100    3.5200   -0.0180 c2        1 IG       0.194000
     17 C5          1.3780    2.4870    0.3140 c1        1 IG      -0.250000
     18 N7          1.0850    1.9800    1.5640 n1        1 IG      -0.184000
     19 C8          0.1540    1.0110    1.4950 c1        1 IG       0.050000
     20 N9         -0.2650    0.7840    0.1520 n2        1 IG      -0.227000
     21 C4          0.5850    1.8000   -0.6180 c2        1 IG       0.156000
     22 N3          0.5990    2.0310   -1.9700 n1        1 IG      -0.249000
     23 C2          1.5430    3.1070   -2.4840 c1        1 IG       0.345000
     24 N1          2.4360    3.8790   -1.4390 n3        1 IG      -0.333000
     25 HO3'       -0.9070   -3.2610   -2.5190 ho        1 IG       0.216000
     26 H1'        -2.1680    1.0050   -0.4110 h2        1 IG       0.116000
     27 H2'        -0.7200   -0.1980   -2.1870 h1        1 IG       0.127000
     28 H3'        -0.0110   -1.8220   -1.2190 h1        1 IG       0.123000
     29 H4'        -2.2710   -2.5570    0.2260 h1        1 IG       0.219000
     30 H5'         0.1560   -1.6630    1.1810 h1        1 IG       0.034500
     31 H5''       -0.0820   -3.1610    0.6910 h1        1 IG       0.034500
     32 HO2'       -2.6670   -0.1960   -3.0090 ho        1 IG       0.207000
     33 H61         2.6090    4.2450    1.8720 hn        1 IG       0.195500
     34 H62         3.2420    5.1680    0.7580 hn        1 IG       0.195500
     35 H8          0.1690    0.2730    2.1340 ha        1 IG       0.322000
     36 H1          3.1490    4.3720   -1.7230 hn        1 IG       0.231000
@<TRIPOS>BOND
     1    1    2 1   
     2    1    4 1   
     3    1    5 1   
     4    5   11 1   
     5    6    9 1   
     6    6   25 1   
     7    7    8 1   
     8    7   12 1   
     9    7   20 1   
    10    7   26 1   
    11    8    9 1   
    12    8   13 1   
    13    8   27 1   
    14    9   10 1   
    15    9   28 1   
    16   10   11 1   
    17   10   12 1   
    18   10   29 1   
    19   11   30 1   
    20   11   31 1   
    21   13   32 1   
    22   14   16 1   
    23   14   33 1   
    24   14   34 1   
    25   15   23 1   
    26   16   17 1   
    27   16   24 1   
    28   17   21 1   
    29   18   19 1   
    30   19   35 1   
    31   20   21 1   
    32   21   22 1   
    33   23   24 1   
    34   24   36 1   
@<TRIPOS>SUBSTRUCTURE
     1 IG          1 TEMP              0 ****  ****    0 ROOT
