@<TRIPOS>MOLECULE
IG
   36    38     1     0     0
SMALL
bcc


@<TRIPOS>ATOM
      1 P          -0.4390   -1.4950   -3.4960 p5        1 IG       1.348900
      2 OP1        -0.6380   -1.9160   -2.0500 o         1 IG      -0.923500
      3 OP2        -1.5200   -1.8130   -4.4730 o         1 IG      -0.923500
      4 OP3         1.0120   -1.6390   -3.8910 o         1 IG      -0.923500
      5 O5'        -0.4570    0.2320   -3.3400 os        1 IG      -0.568200
      6 O3'         2.9480   -0.0020   -2.5360 oh        1 IG      -0.664800
      7 C1'         1.5300    0.6640    0.6880 c3        1 IG       0.223800
      8 C2'         2.5320   -0.1940   -0.1570 c3        1 IG       0.110100
      9 C3'         1.9330   -0.1360   -1.5700 c3        1 IG       0.076100
     10 C4'         0.9880    1.0850   -1.5750 c3        1 IG       0.062100
     11 C5'        -0.4400    0.7680   -2.0840 c3        1 IG       0.224400
     12 O4'         0.8970    1.5680   -0.2130 os        1 IG      -0.436600
     13 O2'         3.8200    0.3730   -0.0270 oh        1 IG      -0.617800
     14 C6         -1.4720   -1.0370    4.2330 cc        1 IG       0.262600
     15 C5         -0.9000   -0.9520    2.9710 cd        1 IG       0.087300
     16 N7         -1.1650   -1.6540    1.7700 nd        1 IG      -0.713000
     17 C8         -0.3200   -1.1580    0.8680 cc        1 IG       0.524400
     18 N9          0.5580   -0.1500    1.4010 na        1 IG      -0.274900
     19 C4          0.1970    0.0320    2.7400 cd        1 IG       0.070400
     20 N3          0.6800    0.8590    3.6800 nc        1 IG      -0.398400
     21 C2          0.0770    0.7600    4.9360 c         1 IG       0.826900
     22 N1         -0.9990   -0.1570    5.2020 n         1 IG      -0.487100
     23 HO3'        2.6160   -0.5000   -3.3180 ho        1 IG       0.495000
     24 H1'         2.0720    1.3080    1.4400 h2        1 IG       0.098700
     25 H2'         2.6210   -1.2460    0.2190 h1        1 IG       0.076700
     26 H3'         1.3210   -1.0770   -1.7800 h1        1 IG       0.163700
     27 H4'         1.4360    1.9290   -2.1620 h1        1 IG       0.050700
     28 H5'        -0.9460    0.0930   -1.3390 h1        1 IG      -0.001300
     29 H5''       -0.9920    1.7550   -2.1020 h1        1 IG      -0.001300
     30 HO2'        3.9920    0.8810   -0.8310 ho        1 IG       0.423000
     31 H61        -3.2550   -1.6210    5.0000 hn        1 IG       0.395300
     32 H62        -2.6880   -2.5630    3.7620 hn        1 IG       0.395300
     33 H8         -0.2900   -1.4760   -0.2340 h5        1 IG       0.212100
     34 H1         -1.3430   -0.2020    6.1330 hn        1 IG       0.316500
     35 O2          0.4050    1.4580    5.9280 o         1 IG      -0.691500
     36 N6         -2.4460   -2.0080    4.5600 nh        1 IG      -0.814600
@<TRIPOS>BOND
     1    1    2 1   
     2    1    3 1   
     3    1    4 1   
     4    1    5 1   
     5    5   11 1   
     6    6    9 1   
     7    6   23 1   
     8    7    8 1   
     9    7   12 1   
    10    7   18 1   
    11    7   24 1   
    12    8    9 1   
    13    8   13 1   
    14    8   25 1   
    15    9   10 1   
    16    9   26 1   
    17   10   11 1   
    18   10   12 1   
    19   10   27 1   
    20   11   28 1   
    21   11   29 1   
    22   13   30 1   
    23   14   15 2   
    24   14   22 1   
    25   14   36 1   
    26   15   16 1   
    27   15   19 1   
    28   16   17 2   
    29   17   18 1   
    30   17   33 1   
    31   18   19 1   
    32   19   20 2   
    33   20   21 1   
    34   21   22 1   
    35   21   35 2   
    36   22   34 1   
    37   31   36 1   
    38   32   36 1   
@<TRIPOS>SUBSTRUCTURE
     1 IG          1 TEMP              0 ****  ****    0 ROOT
