@<TRIPOS>MOLECULE
IG2
   24    24     1     0     0
SMALL
bcc


@<TRIPOS>ATOM
      1 O4          2.2810   -0.8450   -1.3750 o         1 IG2     -0.845000
      2 P6          2.2770    0.1950   -0.3220 p5        1 IG2      1.432800
      3 O6          1.8600    0.0070    1.0810 o         1 IG2     -0.845000
      4 O5          3.8020    0.7800   -0.3880 oh        1 IG2     -0.782400
      5 O3          1.4780    1.5120   -0.9120 os        1 IG2     -0.593200
      6 C1          1.4910    1.7120   -2.2950 c3        1 IG2      0.149400
      7 C2          1.8800    3.1690   -2.6030 c3        1 IG2      0.100100
      8 O2          1.1340    4.0690   -1.7900 oh        1 IG2     -0.626800
      9 C3          1.5680    3.5060   -4.0800 c3        1 IG2      0.150800
     10 O1          0.1770    3.7940   -4.2120 oh        1 IG2     -0.628800
     11 C4          2.4070    4.6170   -4.5950 cc        1 IG2     -0.177700
     12 N1          3.0250    4.6300   -5.8330 n1        1 IG2     -0.223000
     13 C6          3.6390    5.8620   -5.8810 cd        1 IG2      0.126900
     14 N3          3.4550    6.6480   -4.7520 nd        1 IG2     -0.788000
     15 C5          2.6790    5.8670   -3.9380 cc        1 IG2      0.161900
     16 H3          2.2090    1.0030   -2.7880 h1        1 IG2      0.034200
     17 H4          0.4520    1.5350   -2.6960 h1        1 IG2      0.034200
     18 H5          2.9730    3.3300   -2.3960 h1        1 IG2      0.047700
     19 H6          1.0490    3.6450   -0.9250 ho        1 IG2      0.416000
     20 H7          1.7080    2.5710   -4.6960 h1        1 IG2      0.056700
     21 H8          0.0300    4.6210   -3.7390 ho        1 IG2      0.402000
     22 H9          4.2080    0.6170   -1.2320 ho        1 IG2      0.423000
     23 H10         4.2260    6.1940   -6.7370 h5        1 IG2     -0.017900
     24 H12         2.3490    6.1660   -2.9460 h4        1 IG2     -0.008900
@<TRIPOS>BOND
     1    1    2 1   
     2    2    3 1   
     3    2    4 1   
     4    2    5 1   
     5    4   22 1   
     6    5    6 1   
     7    6    7 1   
     8    6   16 1   
     9    6   17 1   
    10    7    8 1   
    11    7    9 1   
    12    7   18 1   
    13    8   19 1   
    14    9   10 1   
    15    9   11 1   
    16    9   20 1   
    17   10   21 1   
    18   11   12 2   
    19   11   15 1   
    20   12   13 2   
    21   13   14 1   
    22   13   23 1   
    23   14   15 2   
    24   15   24 1   
@<TRIPOS>SUBSTRUCTURE
     1 IG2         1 TEMP              0 ****  ****    0 ROOT
