@<TRIPOS>MOLECULE
IG2
   24    24     1     0     0
SMALL
bcc


@<TRIPOS>ATOM
      1 O4          2.3350   -0.8580   -1.4160 o         1 IG2     -0.845000
      2 P6          2.3330    0.1720   -0.3520 p5        1 IG2      1.432800
      3 O6          1.9330   -0.0340    1.0530 o         1 IG2     -0.845000
      4 O5          3.8520    0.7710   -0.4290 oh        1 IG2     -0.782400
      5 O3          1.5160    1.4860   -0.9200 os        1 IG2     -0.593200
      6 C1          1.5100    1.7000   -2.3010 c3        1 IG2      0.149400
      7 C2          1.8830    3.1640   -2.5990 c3        1 IG2      0.100100
      8 O2          1.1390    4.0490   -1.7680 oh        1 IG2     -0.626800
      9 C3          1.5500    3.5120   -4.0690 c3        1 IG2      0.150800
     10 O1          0.1560    3.7890   -4.1820 oh        1 IG2     -0.628800
     11 C4          2.3740    4.6340   -4.5830 cc        1 IG2     -0.177700
     12 N1          2.9740    4.6670   -5.8300 n1        1 IG2     -0.223000
     13 C6          3.5790    5.9040   -5.8720 cd        1 IG2      0.126900
     14 N3          3.4050    6.6750   -4.7320 nd        1 IG2     -0.788000
     15 C5          2.6470    5.8790   -3.9150 cc        1 IG2      0.161900
     16 H3          0.4690    1.5180   -2.6920 h1        1 IG2      0.034200
     17 H4          2.2290    1.0020   -2.8090 h1        1 IG2      0.034200
     18 H5          2.9770    3.3310   -2.4030 h1        1 IG2      0.047700
     19 H6          1.0680    3.6160   -0.9070 ho        1 IG2      0.416000
     20 H7          1.6910    2.5840   -4.6960 h1        1 IG2      0.056700
     21 H8          0.0070    4.6110   -3.6990 ho        1 IG2      0.402000
     22 H9          4.2500    0.6210   -1.2790 ho        1 IG2      0.423000
     23 H10         4.1510    6.2490   -6.7320 h5        1 IG2     -0.017900
     24 H12         2.3290    6.1640   -2.9160 h4        1 IG2     -0.008900
@<TRIPOS>BOND
     1    1    2 1   
     2    2    3 1   
     3    2    4 1   
     4    2    5 1   
     5    4   22 1   
     6    5    6 1   
     7    6    7 1   
     8    6   16 1   
     9    6   17 1   
    10    7    8 1   
    11    7    9 1   
    12    7   18 1   
    13    8   19 1   
    14    9   10 1   
    15    9   11 1   
    16    9   20 1   
    17   10   21 1   
    18   11   12 2   
    19   11   15 1   
    20   12   13 2   
    21   13   14 1   
    22   13   23 1   
    23   14   15 2   
    24   15   24 1   
@<TRIPOS>SUBSTRUCTURE
     1 IG2         1 TEMP              0 ****  ****    0 ROOT
