@<TRIPOS>MOLECULE
IGA
   16    13     1     0     0
SMALL
bcc


@<TRIPOS>ATOM
      1 N1         -0.2440   -0.0090   -2.0740 n1        1 IGA     -0.597800
      2 C2          1.1790   -0.0090   -2.0740 c1        1 IGA      0.591500
      3 O2          1.7860   -0.0150   -3.1270 o         1 IGA     -0.565500
      4 N3          1.9010   -0.0090   -0.8260 nh        1 IGA     -0.314600
      5 C4          1.1740   -0.0090    0.4390 ce        1 IGA      0.150400
      6 C5         -0.1880   -0.0090    0.4410 c1        1 IGA     -0.192900
      7 C6         -0.9430   -0.0090   -0.8630 c1        1 IGA      0.622600
      8 N6         -2.3610    0.0380   -0.8620 n3        1 IGA     -0.797400
      9 N7         -0.6030   -0.0090    1.7300 n1        1 IGA     -0.186000
     10 C8          0.4980   -0.0090    2.5250 c1        1 IGA      0.198400
     11 N9          1.5940   -0.0090    1.7260 ne        1 IGA     -0.528000
     12 HN3         2.8130   -0.0090   -0.8270 hn        1 IGA      0.315700
     13 HN6        -2.8170    0.0640   -1.6510 hn        1 IGA      0.417300
     14 HN6A       -2.8170    0.0270   -0.0720 hn        1 IGA      0.417300
     15 H8          0.5000   -0.0100    3.5010 DU        1 IGA      0.234500
     16 HN7        -1.4700   -0.0090    2.0140 DU        1 IGA      0.234500
@<TRIPOS>BOND
     1    1    7 3   
     2    2    3 2   
     3    2    4 2   
     4    4    5 1   
     5    4   12 1   
     6    5    6 2   
     7    5   11 1   
     8    6    9 2   
     9    7    8 1   
    10    8   13 1   
    11    8   14 1   
    12    9   10 2   
    13   10   11 2   
@<TRIPOS>SUBSTRUCTURE
     1 IGA         1 TEMP              0 ****  ****    0 ROOT
