@<TRIPOS>MOLECULE
IGA
   17    18     1     0     0
SMALL
bcc


@<TRIPOS>ATOM
      1 N1         -0.0490    0.0070   -0.0380 nc        1 IGA     -0.621100
      2 C2          1.3790    0.0140   -0.0550 c         1 IGA      0.836900
      3 O2          2.0130    0.0180   -1.1160 o         1 IGA     -0.499500
      4 N3          2.1090    0.0160    1.1790 n         1 IGA     -0.485400
      5 C4          1.4290    0.0110    2.3590 cc        1 IGA      0.573200
      6 C5         -0.0360    0.0040    2.3740 cd        1 IGA     -0.456500
      7 C6         -0.6880    0.0020    1.1150 cd        1 IGA      0.639800
      8 N6         -2.1740   -0.0050    1.0700 n4        1 IGA     -0.803600
      9 N7         -0.4030    0.0000    3.7280 na        1 IGA     -0.325900
     10 C8          0.7890    0.0050    4.4540 cd        1 IGA      0.551400
     11 N9          1.9030    0.0120    3.6830 nc        1 IGA     -0.662000
     12 HN3         3.1110    0.0210    1.1490 hn        1 IGA      0.391500
     13 HN6        -2.5110   -0.0050    0.0930 hn        1 IGA      0.478800
     14 HN6A       -2.5250    0.8340    1.5440 hn        1 IGA      0.478800
     15 H8          0.8080    0.0040    5.5590 h5        1 IGA      0.105100
     16 HN7        -1.3170   -0.0050    4.0930 hn        1 IGA      0.320700
     17 H63        -2.5170   -0.8480    1.5420 hn        1 IGA      0.478800
@<TRIPOS>BOND
     1    1    2 1   
     2    1    7 2   
     3    2    3 2   
     4    2    4 1   
     5    4    5 1   
     6    4   12 1   
     7    5    6 2   
     8    5   11 1   
     9    6    7 1   
    10    6    9 1   
    11    7    8 1   
    12    8   13 1   
    13    8   14 1   
    14    8   17 1   
    15    9   10 1   
    16    9   16 1   
    17   10   11 2   
    18   10   15 1   
@<TRIPOS>SUBSTRUCTURE
     1 IGA         1 TEMP              0 ****  ****    0 ROOT
