@<TRIPOS>MOLECULE
IGA
   16    17     1     0     0
SMALL
bcc


@<TRIPOS>ATOM
      1 N1         -1.6130    0.8750   -0.0000 nc        1 IGA     -0.717100
      2 C2         -1.8410   -0.5120   -0.0000 c         1 IGA      0.842900
      3 O2         -2.9870   -1.0040   -0.0000 o         1 IGA     -0.612500
      4 N3         -0.7590   -1.4560   -0.0000 n         1 IGA     -0.529400
      5 C4          0.5230   -0.9790   -0.0000 cc        1 IGA      0.513200
      6 C5          0.7670    0.4430    0.0000 cd        1 IGA     -0.439500
      7 C6         -0.3600    1.3570    0.0000 cd        1 IGA      0.801800
      8 N6         -0.1340    2.7130    0.0000 nh        1 IGA     -0.942800
      9 N7          2.1570    0.5960   -0.0000 na        1 IGA     -0.303900
     10 C8          2.6930   -0.6900   -0.0000 cd        1 IGA      0.466400
     11 N9          1.7540   -1.6680   -0.0000 nc        1 IGA     -0.694000
     12 HN3        -0.9530   -2.4320    0.0000 hn        1 IGA      0.351500
     13 HN6        -0.8930    3.3490   -0.0000 hn        1 IGA      0.443300
     14 HN6A        0.7880    3.0570   -0.0000 hn        1 IGA      0.443300
     15 H8          3.7750   -0.8770   -0.0000 h5        1 IGA      0.070100
     16 HN7         2.6490    1.4480    0.0000 hn        1 IGA      0.307700
@<TRIPOS>BOND
     1    1    2 1   
     2    1    7 2   
     3    2    3 2   
     4    2    4 1   
     5    4    5 1   
     6    4   12 1   
     7    5    6 2   
     8    5   11 1   
     9    6    7 1   
    10    6    9 1   
    11    7    8 1   
    12    8   13 1   
    13    8   14 1   
    14    9   10 1   
    15    9   16 1   
    16   10   11 2   
    17   10   15 1   
@<TRIPOS>SUBSTRUCTURE
     1 IGA         1 TEMP              0 ****  ****    0 ROOT
