@<TRIPOS>MOLECULE
IGL
   26    27     1     0     0
SMALL
bcc


@<TRIPOS>ATOM
      1 N           1.8900    0.4090   -2.4930 n3        1 IGL     -0.891800
      2 CA          0.5740    0.4890   -1.8670 c3        1 IGL      0.020500
      3 C          -0.5980    0.1990   -2.8660 c         1 IGL      0.885600
      4 O          -0.3730   -0.5950   -3.8230 o         1 IGL     -0.841800
      5 OXT        -1.6940    0.7920   -2.6680 o         1 IGL     -0.841800
      6 CB          0.4470   -0.4620   -0.6710 c3        1 IGL     -0.036700
      7 CG1         1.5090   -0.1960    0.4160 c3        1 IGL     -0.044100
      8 CG2        -0.9300   -0.3230    0.0100 c3        1 IGL     -0.044100
      9 CD1         0.7520   -0.0740    1.6960 ca        1 IGL     -0.070800
     10 CE1         1.2420    0.0930    2.9810 ca        1 IGL     -0.133000
     11 CH1         0.3350    0.1960    4.0440 ca        1 IGL     -0.149000
     12 CH2        -1.0360    0.1330    3.8140 ca        1 IGL     -0.149000
     13 CE2        -1.5360   -0.0350    2.5160 ca        1 IGL     -0.133000
     14 CD2        -0.6440   -0.1400    1.4610 ca        1 IGL     -0.070800
     15 H           1.8750    1.0110   -3.2980 hn        1 IGL      0.331800
     16 H2          2.0100   -0.5260   -2.8440 hn        1 IGL      0.331800
     17 HA          0.4470    1.5460   -1.4940 h1        1 IGL      0.046700
     18 HB          0.5600   -1.5160   -1.0430 hc        1 IGL      0.048700
     19 HG12        2.2500   -1.0320    0.4620 hc        1 IGL      0.068200
     20 HG13        2.0720    0.7490    0.2060 hc        1 IGL      0.068200
     21 HG22       -1.4960    0.5500   -0.4170 hc        1 IGL      0.068200
     22 HG23       -1.5510   -1.2360   -0.1680 hc        1 IGL      0.068200
     23 HE1         2.3230    0.1460    3.1680 ha        1 IGL      0.123500
     24 HH1         0.7130    0.3290    5.0670 ha        1 IGL      0.110500
     25 HH2        -1.7370    0.2180    4.6570 ha        1 IGL      0.110500
     26 HE2        -2.6190   -0.0800    2.3390 ha        1 IGL      0.123500
@<TRIPOS>BOND
     1    1    2 1   
     2    1   15 1   
     3    1   16 1   
     4    2    3 1   
     5    2    6 1   
     6    2   17 1   
     7    3    4 1   
     8    3    5 1   
     9    6    7 1   
    10    6    8 1   
    11    6   18 1   
    12    7    9 1   
    13    7   19 1   
    14    7   20 1   
    15    8   14 1   
    16    8   21 1   
    17    8   22 1   
    18    9   10 ar  
    19    9   14 ar  
    20   10   11 ar  
    21   10   23 1   
    22   11   12 ar  
    23   11   24 1   
    24   12   13 ar  
    25   12   25 1   
    26   13   14 ar  
    27   13   26 1   
@<TRIPOS>SUBSTRUCTURE
     1 IGL         1 TEMP              0 ****  ****    0 ROOT
