@<TRIPOS>MOLECULE
IGM
   64    68     1     0     0
SMALL
bcc


@<TRIPOS>ATOM
      1 O25         1.0330    0.9470    0.7700 o         1 IGM     -0.635300
      2 S21         2.0240    0.6420   -0.1920 sy        1 IGM      1.496200
      3 O24         3.3560    0.6290    0.2450 o         1 IGM     -0.635300
      4 N23         1.6480   -0.6850   -1.0060 n3        1 IGM     -0.824500
      5 C27         2.6180   -1.6970   -1.3680 c3        1 IGM      0.184300
      6 C29         2.1840   -3.1120   -0.9560 c3        1 IGM      0.114400
      7 O31         0.8740   -3.4050   -1.4250 os        1 IGM     -0.398600
      8 C30        -0.0880   -2.4690   -0.9590 c3        1 IGM      0.114400
      9 C28         0.2870   -1.0310   -1.3520 c3        1 IGM      0.184300
     10 C18         1.8650    1.9310   -1.3670 ca        1 IGM     -0.313500
     11 C22         2.5970    2.0550   -2.5560 ca        1 IGM      0.171400
     12 CL2         3.7310    0.8910   -3.0070 cl        1 IGM     -0.008400
     13 C19         2.4190    3.1560   -3.4080 ca        1 IGM     -0.148000
     14 C17         1.5150    4.1630   -3.0730 ca        1 IGM      0.124400
     15 CL1         1.3080    5.4710   -4.1200 cl        1 IGM     -0.021400
     16 C16         0.9690    2.9540   -1.0440 ca        1 IGM      0.012000
     17 C14         0.7860    4.0650   -1.8700 ca        1 IGM     -0.216600
     18 C13        -0.1090    5.1460   -1.4360 c         1 IGM      0.589700
     19 O15         0.1410    6.3230   -1.2350 o         1 IGM     -0.403100
     20 N10        -1.5440    4.7190   -1.1480 n4        1 IGM     -0.497600
     21 C5         -2.3800    4.8310   -2.3150 ce        1 IGM      0.007700
     22 C2         -2.7690    3.7370   -3.0820 cf        1 IGM      0.014300
     23 C6         -2.3960    2.3970   -2.8370 ch        1 IGM      0.182500
     24 N11        -2.0850    1.2940   -2.6350 n1        1 IGM     -0.342800
     25 S7         -3.0680    6.3220   -2.9150 sx        1 IGM     -0.053400
     26 C3         -3.8470    5.4750   -4.1710 ce        1 IGM      0.044500
     27 C1         -3.6290    4.1190   -4.1740 cf        1 IGM     -0.015200
     28 C8         -4.6650    6.3070   -5.0920 c3        1 IGM      0.233000
     29 N12        -4.5710    7.7050   -4.6260 nh        1 IGM     -0.489400
     30 C9         -3.8110    7.8630   -3.5680 c2        1 IGM     -0.191000
     31 C4         -4.1770    3.1590   -5.1440 c3        1 IGM     -0.057900
     32 C32        -5.2710    8.7420   -5.3740 c3        1 IGM      0.223100
     33 C33        -4.6500    9.0550   -6.6970 ca        1 IGM     -0.189300
     34 C38        -5.0130    8.3200   -7.8340 ca        1 IGM     -0.069500
     35 C37        -4.4740    8.6250   -9.0760 ca        1 IGM     -0.183500
     36 C36        -3.5550    9.6880   -9.1810 ca        1 IGM      0.162100
     37 O39        -3.0560    9.9350  -10.4310 oh        1 IGM     -0.479100
     38 C35        -3.1870   10.4320   -8.0490 ca        1 IGM     -0.183500
     39 C34        -3.7380   10.1090   -6.8130 ca        1 IGM     -0.069500
     40 H271        3.6070   -1.4620   -0.8810 h1        1 IGM      0.067950
     41 H272        2.7530   -1.6830   -2.4880 h1        1 IGM      0.067950
     42 H281       -0.4210   -0.3250   -0.8320 h1        1 IGM      0.067950
     43 H282        0.1550   -0.9190   -2.4670 h1        1 IGM      0.067950
     44 H291        2.2260   -3.2370    0.1580 h1        1 IGM      0.067200
     45 H292        2.8390   -3.8730   -1.4570 h1        1 IGM      0.067200
     46 H301       -1.0420   -2.7660   -1.4690 h1        1 IGM      0.067200
     47 H302       -0.1980   -2.5610    0.1540 h1        1 IGM      0.067200
     48 H16         0.4160    2.8810   -0.0850 ha        1 IGM      0.176000
     49 H19         3.0020    3.2290   -4.3440 ha        1 IGM      0.189000
     50 H10        -1.5420    3.7520   -0.7980 hn        1 IGM      0.451800
     51 H81C       -5.7470    5.9890   -5.0780 h1        1 IGM      0.104700
     52 H82C       -4.2850    6.2550   -6.1530 h1        1 IGM      0.104700
     53 H41C       -4.3020    2.1480   -4.6810 hc        1 IGM      0.063033
     54 H42C       -5.1730    3.5040   -5.5190 hc        1 IGM      0.063033
     55 H91C       -3.4860    3.0600   -6.0210 hc        1 IGM      0.063033
     56 H92C       -3.6510    8.8600   -3.1300 h5        1 IGM      0.169000
     57 H321       -5.2970    9.6710   -4.7340 h1        1 IGM      0.085700
     58 H322       -6.3330    8.3880   -5.5260 h1        1 IGM      0.085700
     59 H38        -5.7420    7.4990   -7.7480 ha        1 IGM      0.135000
     60 H34        -3.4570   10.6980   -5.9260 ha        1 IGM      0.135000
     61 H37        -4.7550    8.0610   -9.9780 ha        1 IGM      0.159000
     62 H39        -2.4720   10.7080  -10.3840 ho        1 IGM      0.434000
     63 H35        -2.4760   11.2660   -8.1400 ha        1 IGM      0.159000
     64 H102       -1.9360    5.3380   -0.4240 hn        1 IGM      0.451800
@<TRIPOS>BOND
     1    1    2 2   
     2    2    3 2   
     3    2    4 1   
     4    2   10 1   
     5    4    5 1   
     6    4    9 1   
     7    5    6 1   
     8    5   40 1   
     9    5   41 1   
    10    6    7 1   
    11    6   44 1   
    12    6   45 1   
    13    7    8 1   
    14    8    9 1   
    15    8   46 1   
    16    8   47 1   
    17    9   42 1   
    18    9   43 1   
    19   10   11 ar  
    20   10   16 ar  
    21   11   12 1   
    22   11   13 ar  
    23   13   14 ar  
    24   13   49 1   
    25   14   15 1   
    26   14   17 ar  
    27   16   17 ar  
    28   16   48 1   
    29   17   18 1   
    30   18   19 2   
    31   18   20 1   
    32   20   21 1   
    33   20   50 1   
    34   20   64 1   
    35   21   22 2   
    36   21   25 1   
    37   22   23 1   
    38   22   27 1   
    39   23   24 3   
    40   25   26 1   
    41   25   30 2   
    42   26   27 2   
    43   26   28 1   
    44   27   31 1   
    45   28   29 1   
    46   28   51 1   
    47   28   52 1   
    48   29   30 1   
    49   29   32 1   
    50   30   56 1   
    51   31   53 1   
    52   31   54 1   
    53   31   55 1   
    54   32   33 1   
    55   32   57 1   
    56   32   58 1   
    57   33   34 ar  
    58   33   39 ar  
    59   34   35 ar  
    60   34   59 1   
    61   35   36 ar  
    62   35   61 1   
    63   36   37 1   
    64   36   38 ar  
    65   37   62 1   
    66   38   39 ar  
    67   38   63 1   
    68   39   60 1   
@<TRIPOS>SUBSTRUCTURE
     1 IGM         1 TEMP              0 ****  ****    0 ROOT
