@<TRIPOS>MOLECULE
IGM
   63    67     1     0     0
SMALL
bcc


@<TRIPOS>ATOM
      1 O25        -4.1350   -2.0810    2.1760 o         1 IGM     -0.640300
      2 S21        -5.1440   -1.7110    1.2600 sy        1 IGM      1.502200
      3 O24        -5.9640   -2.7520    0.7900 o         1 IGM     -0.640300
      4 N23        -6.0360   -0.5070    1.8700 n3        1 IGM     -0.818500
      5 C27        -7.4680   -0.4200    1.7170 c3        1 IGM      0.187300
      6 C29        -8.1940   -0.1460    3.0420 c3        1 IGM      0.114900
      7 O31        -7.6330    0.9700    3.7230 os        1 IGM     -0.407600
      8 C30        -6.2410    0.8120    3.9660 c3        1 IGM      0.114900
      9 C28        -5.4640    0.5520    2.6670 c3        1 IGM      0.187300
     10 C18        -4.3360   -0.9780   -0.0720 ca        1 IGM     -0.350500
     11 C22        -4.9450   -0.5480   -1.2590 ca        1 IGM      0.152400
     12 CL2        -6.6220   -0.6670   -1.4730 cl        1 IGM     -0.049400
     13 C19        -4.1980   -0.0010   -2.3080 ca        1 IGM     -0.157000
     14 C17        -2.8120    0.1240   -2.1820 ca        1 IGM      0.097400
     15 CL1        -1.9380    0.8070   -3.4610 cl        1 IGM     -0.046400
     16 C16        -2.9470   -0.8320    0.0330 ca        1 IGM      0.027000
     17 C14        -2.1790   -0.2970   -1.0040 ca        1 IGM     -0.167600
     18 C13        -0.7120   -0.1570   -0.7730 c         1 IGM      0.676700
     19 O15        -0.2600    0.4350    0.2250 o         1 IGM     -0.568100
     20 N10         0.1250   -0.7560   -1.7040 n         1 IGM     -0.425100
     21 C5          1.5090   -0.7150   -1.6480 cc        1 IGM      0.057500
     22 C2          2.3470   -1.2520   -2.6450 cd        1 IGM     -0.118000
     23 C6          1.8860   -1.8770   -3.8170 ch        1 IGM      0.261800
     24 N11         1.5040   -2.3930   -4.7890 n1        1 IGM     -0.382800
     25 S7          2.4240   -0.0380   -0.3950 ss        1 IGM      0.166200
     26 C3          3.8810   -0.4170   -1.1080 cc        1 IGM     -0.181400
     27 C1          3.7260   -1.0760   -2.3150 cd        1 IGM     -0.034300
     28 C8          5.2140   -0.0910   -0.5390 c3        1 IGM      0.251100
     29 N12         6.3190   -0.7690   -1.2150 n3        1 IGM     -0.725600
     30 C9          6.1670   -0.8360   -2.6630 c3        1 IGM      0.172800
     31 C4          4.8790   -1.5380   -3.1080 c3        1 IGM     -0.019100
     32 C32         7.6160   -0.2160   -0.8380 c3        1 IGM      0.221100
     33 C33         7.9030   -0.2700    0.6330 ca        1 IGM     -0.128300
     34 C38         7.7520   -1.4670    1.3460 ca        1 IGM     -0.082500
     35 C37         8.0670   -1.5330    2.6980 ca        1 IGM     -0.188500
     36 C36         8.5450   -0.3800    3.3440 ca        1 IGM      0.126100
     37 O39         8.8430   -0.5050    4.6820 oh        1 IGM     -0.496100
     38 C35         8.7030    0.8230    2.6430 ca        1 IGM     -0.188500
     39 C34         8.3780    0.8690    1.2890 ca        1 IGM     -0.082500
     40 H271       -7.7100    0.4190    1.0020 h1        1 IGM      0.064700
     41 H272       -7.8570   -1.3860    1.2820 h1        1 IGM      0.064700
     42 H281       -4.4020    0.2830    2.9340 h1        1 IGM      0.064700
     43 H282       -5.4560    1.5040    2.0610 h1        1 IGM      0.064700
     44 H291       -9.2560    0.1530    2.8420 h1        1 IGM      0.060700
     45 H292       -8.1650   -1.0480    3.7090 h1        1 IGM      0.060700
     46 H301       -5.9210    1.7900    4.4130 h1        1 IGM      0.060700
     47 H302       -6.0780   -0.0210    4.7000 h1        1 IGM      0.060700
     48 H16        -2.4330   -1.1480    0.9660 ha        1 IGM      0.194000
     49 H19        -4.7010    0.3310   -3.2320 ha        1 IGM      0.175000
     50 H10        -0.2760   -1.2130   -2.4950 hn        1 IGM      0.341500
     51 H81C        5.3430    1.0340   -0.5650 h1        1 IGM      0.048700
     52 H82C        5.2610   -0.4150    0.5420 h1        1 IGM      0.048700
     53 H41C        4.9890   -2.6500   -2.9800 hc        1 IGM      0.066200
     54 H42C        4.7180   -1.3340   -4.2000 hc        1 IGM      0.066200
     55 H91C        6.1910    0.1930   -3.1290 h1        1 IGM      0.035200
     56 H92C        7.0420   -1.4160   -3.0720 h1        1 IGM      0.035200
     57 H321        8.4030   -0.8320   -1.3650 h1        1 IGM      0.039700
     58 H322        7.7270    0.8520   -1.1960 h1        1 IGM      0.039700
     59 H38         7.3750   -2.3640    0.8290 ha        1 IGM      0.142000
     60 H34         8.5000    1.8140    0.7370 ha        1 IGM      0.142000
     61 H37         7.9500   -2.4650    3.2670 ha        1 IGM      0.143000
     62 H39         9.1610    0.3530    4.9980 ho        1 IGM      0.419000
     63 H35         9.0780    1.7200    3.1550 ha        1 IGM      0.143000
@<TRIPOS>BOND
     1    1    2 2   
     2    2    3 2   
     3    2    4 1   
     4    2   10 1   
     5    4    5 1   
     6    4    9 1   
     7    5    6 1   
     8    5   40 1   
     9    5   41 1   
    10    6    7 1   
    11    6   44 1   
    12    6   45 1   
    13    7    8 1   
    14    8    9 1   
    15    8   46 1   
    16    8   47 1   
    17    9   42 1   
    18    9   43 1   
    19   10   11 ar  
    20   10   16 ar  
    21   11   12 1   
    22   11   13 ar  
    23   13   14 ar  
    24   13   49 1   
    25   14   15 1   
    26   14   17 ar  
    27   16   17 ar  
    28   16   48 1   
    29   17   18 1   
    30   18   19 2   
    31   18   20 1   
    32   20   21 1   
    33   20   50 1   
    34   21   22 2   
    35   21   25 1   
    36   22   23 1   
    37   22   27 1   
    38   23   24 3   
    39   25   26 1   
    40   26   27 2   
    41   26   28 1   
    42   27   31 1   
    43   28   29 1   
    44   28   51 1   
    45   28   52 1   
    46   29   30 1   
    47   29   32 1   
    48   30   31 1   
    49   30   55 1   
    50   30   56 1   
    51   31   53 1   
    52   31   54 1   
    53   32   33 1   
    54   32   57 1   
    55   32   58 1   
    56   33   34 ar  
    57   33   39 ar  
    58   34   35 ar  
    59   34   59 1   
    60   35   36 ar  
    61   35   61 1   
    62   36   37 1   
    63   36   38 ar  
    64   37   62 1   
    65   38   39 ar  
    66   38   63 1   
    67   39   60 1   
@<TRIPOS>SUBSTRUCTURE
     1 IGM         1 TEMP              0 ****  ****    0 ROOT
