@<TRIPOS>MOLECULE
IGM
   63    67     1     0     0
SMALL
bcc


@<TRIPOS>ATOM
      1 O25        -0.1440   -1.2260   -2.3650 o         1 IGM     -0.640300
      2 S21         0.6840   -1.2490   -1.2220 sy        1 IGM      1.502200
      3 O24         0.2250   -2.0220   -0.1410 o         1 IGM     -0.640300
      4 N23         2.1900   -1.6720   -1.6330 n3        1 IGM     -0.818500
      5 C27         3.0190   -2.5440   -0.8360 c3        1 IGM      0.187300
      6 C29         3.6640   -3.6700   -1.6580 c3        1 IGM      0.114900
      7 O31         4.3280   -3.1610   -2.8080 os        1 IGM     -0.407600
      8 C30         3.4630   -2.3980   -3.6400 c3        1 IGM      0.114900
      9 C28         2.8030   -1.2460   -2.8680 c3        1 IGM      0.187300
     10 C18         0.8510    0.3900   -0.7190 ca        1 IGM     -0.350500
     11 C22         1.5130    0.8260    0.4370 ca        1 IGM      0.152400
     12 Cl2         2.2950   -0.2740    1.4620 cl        1 IGM     -0.049400
     13 C19         1.5590    2.1790    0.7880 ca        1 IGM     -0.157000
     14 C17         0.9340    3.1290   -0.0250 ca        1 IGM      0.097400
     15 Cl1         1.0240    4.7620    0.4160 cl        1 IGM     -0.046400
     16 C16         0.2410    1.3630   -1.5220 ca        1 IGM      0.027000
     17 C14         0.2660    2.7190   -1.1880 ca        1 IGM     -0.167600
     18 C13        -0.3870    3.6730   -2.1310 c         1 IGM      0.676700
     19 O15        -0.1050    3.6910   -3.3430 o         1 IGM     -0.568100
     20 N10        -1.3570    4.5100   -1.5970 ns        1 IGM     -0.425100
     21 C5         -2.0560    5.4580   -2.3280 cc        1 IGM      0.057500
     22 C2         -2.9820    6.3550   -1.7600 cd        1 IGM     -0.118000
     23 C6         -3.2980    6.4090   -0.3910 ch        1 IGM      0.261800
     24 N11        -3.5580    6.4540    0.7430 n1        1 IGM     -0.382800
     25 S7         -1.9350    5.6970   -3.9990 ss        1 IGM      0.166200
     26 C3         -3.0490    6.9360   -4.0120 cc        1 IGM     -0.181400
     27 C1         -3.5560    7.2070   -2.7530 cd        1 IGM     -0.034300
     28 C8         -3.4660    7.6900   -5.2220 c3        1 IGM      0.250100
     29 N12        -4.6480    8.5230   -5.0110 n3        1 IGM     -0.726600
     30 C9         -4.6620    9.2010   -3.7200 c3        1 IGM      0.172800
     31 C4         -4.5810    8.2420   -2.5280 c3        1 IGM     -0.019100
     32 C32        -4.8640    9.4580   -6.1100 c3        1 IGM      0.220100
     33 C33        -5.0330    8.8040   -7.4490 ca        1 IGM     -0.129300
     34 C38        -5.9430    7.7550   -7.6210 ca        1 IGM     -0.082000
     35 C37        -6.1340    7.1840   -8.8760 ca        1 IGM     -0.188500
     36 C36        -5.4070    7.6730   -9.9700 ca        1 IGM      0.126100
     37 O39        -5.5410    7.1620  -11.2410 oh        1 IGM     -0.497100
     38 C35        -4.4910    8.7260   -9.8130 ca        1 IGM     -0.188500
     39 C34        -4.3120    9.2810   -8.5500 ca        1 IGM     -0.082000
     40 H271        2.3960   -3.0040   -0.0150 h1        1 IGM      0.064700
     41 H272        3.8430   -1.9350   -0.3630 h1        1 IGM      0.064700
     42 H281        2.0190   -0.7770   -3.5290 h1        1 IGM      0.064700
     43 H282        3.5930   -0.4730   -2.6390 h1        1 IGM      0.064700
     44 H291        4.4750   -4.1620   -1.0600 h1        1 IGM      0.060950
     45 H292        2.8980   -4.4270   -1.9690 h1        1 IGM      0.060950
     46 H301        4.1330   -1.9880   -4.4410 h1        1 IGM      0.060950
     47 H302        2.6860   -3.0700   -4.0920 h1        1 IGM      0.060950
     48 H16        -0.2790    1.0550   -2.4530 ha        1 IGM      0.194000
     49 H19         2.0870    2.4970    1.7020 ha        1 IGM      0.175000
     50 H10        -1.5480    4.4710   -0.6180 hn        1 IGM      0.341500
     51 H81C       -2.5830    8.3080   -5.5740 h1        1 IGM      0.048200
     52 H82C       -3.7310    6.9710   -6.0510 h1        1 IGM      0.048200
     53 H41C       -5.5760    7.7440   -2.3730 hc        1 IGM      0.066200
     54 H42C       -4.3490    8.8370   -1.6050 hc        1 IGM      0.066200
     55 H91C       -5.6300    9.7730   -3.6450 h1        1 IGM      0.035200
     56 H92C       -3.8170    9.9470   -3.6370 h1        1 IGM      0.035200
     57 H321       -4.0280   10.2180   -6.1740 h1        1 IGM      0.040200
     58 H322       -5.8160   10.0240   -5.8810 h1        1 IGM      0.040200
     59 H38        -6.5100    7.3770   -6.7560 ha        1 IGM      0.142000
     60 H34        -3.5940   10.1060   -8.4220 ha        1 IGM      0.142000
     61 H37        -6.8480    6.3590   -9.0080 ha        1 IGM      0.143000
     62 H39        -6.1960    6.4490  -11.2080 ho        1 IGM      0.420000
     63 H35        -3.9320    9.0950  -10.6830 ha        1 IGM      0.143000
@<TRIPOS>BOND
     1    1    2 2   
     2    2    3 2   
     3    2    4 1   
     4    2   10 1   
     5    4    5 1   
     6    4    9 1   
     7    5    6 1   
     8    5   40 1   
     9    5   41 1   
    10    6    7 1   
    11    6   44 1   
    12    6   45 1   
    13    7    8 1   
    14    8    9 1   
    15    8   46 1   
    16    8   47 1   
    17    9   42 1   
    18    9   43 1   
    19   10   11 ar  
    20   10   16 ar  
    21   11   12 1   
    22   11   13 ar  
    23   13   14 ar  
    24   13   49 1   
    25   14   15 1   
    26   14   17 ar  
    27   16   17 ar  
    28   16   48 1   
    29   17   18 1   
    30   18   19 2   
    31   18   20 1   
    32   20   21 1   
    33   20   50 1   
    34   21   22 2   
    35   21   25 1   
    36   22   23 1   
    37   22   27 1   
    38   23   24 3   
    39   25   26 1   
    40   26   27 2   
    41   26   28 1   
    42   27   31 1   
    43   28   29 1   
    44   28   51 1   
    45   28   52 1   
    46   29   30 1   
    47   29   32 1   
    48   30   31 1   
    49   30   55 1   
    50   30   56 1   
    51   31   53 1   
    52   31   54 1   
    53   32   33 1   
    54   32   57 1   
    55   32   58 1   
    56   33   34 ar  
    57   33   39 ar  
    58   34   35 ar  
    59   34   59 1   
    60   35   36 ar  
    61   35   61 1   
    62   36   37 1   
    63   36   38 ar  
    64   37   62 1   
    65   38   39 ar  
    66   38   63 1   
    67   39   60 1   
@<TRIPOS>SUBSTRUCTURE
     1 IGM         1 TEMP              0 ****  ****    0 ROOT
