@<TRIPOS>MOLECULE
IGN
   68    69     1     0     0
SMALL
bcc


@<TRIPOS>ATOM
      1 C1          0.5880   -1.2520    0.0060 c         1 IGN      0.641100
      2 O2          0.8940   -2.4490    0.2180 o         1 IGN     -0.657100
      3 N3         -0.6660   -0.8660   -0.3810 n         1 IGN     -0.541900
      4 C4         -1.6880   -1.8220   -0.7220 c3        1 IGN      0.088000
      5 C5         -1.8610   -2.0800   -2.2190 c3        1 IGN     -0.155400
      6 C6         -3.3100   -2.4330   -2.5610 c3        1 IGN      0.186800
      7 N7         -4.2120   -1.3290   -2.8040 nh        1 IGN     -0.834200
      8 C8         -4.7090   -0.6500   -1.6150 c2        1 IGN      0.761100
      9 N9         -5.4350   -1.2420   -0.6880 n2        1 IGN     -0.924100
     10 N10        -4.5170    0.7530   -1.5610 nh        1 IGN     -0.911800
     11 N11         1.5300    1.0930   -0.3480 n         1 IGN     -0.461800
     12 C12         1.6560   -0.1790    0.3410 c3        1 IGN      0.038700
     13 C13         1.6330   -0.0400    1.8750 c3        1 IGN     -0.083400
     14 C14         2.3200    1.2270    2.3290 c3        1 IGN     -0.072400
     15 C15         1.6320    2.4470    1.7530 c3        1 IGN     -0.099400
     16 C16         0.9340    2.1610    0.4140 c3        1 IGN      0.094000
     17 O31         2.6820    0.2720   -2.1320 o         1 IGN     -0.622100
     18 C32         2.0860    1.2390   -1.6110 c         1 IGN      0.626100
     19 C33         1.9620    2.5840   -2.3770 c3        1 IGN      0.134500
     20 C34         2.9670    2.5270   -3.5420 c3        1 IGN     -0.062400
     21 C51         4.1180    4.7510   -3.3200 c3        1 IGN     -0.072900
     22 C52         3.2080    3.8850   -4.1820 c3        1 IGN     -0.063700
     23 C53         3.8270    3.6960   -5.5620 c3        1 IGN     -0.072900
     24 C54         4.1140    5.0260   -6.2270 c3        1 IGN     -0.075400
     25 C55         5.0020    5.8970   -5.3610 c3        1 IGN     -0.074400
     26 C56         4.4020    6.0830   -3.9830 c3        1 IGN     -0.075400
     27 N21         0.6240    2.9360   -2.8000 n3        1 IGN     -0.809200
     28 C22        -0.1020    1.9410   -3.5640 c3        1 IGN      0.036800
     29 C23        -1.4070    1.4520   -2.9100 c         1 IGN      0.892600
     30 O24        -1.6250    1.6860   -1.6770 o         1 IGN     -0.857800
     31 O25        -2.2300    0.8110   -3.6230 o         1 IGN     -0.857800
     32 H31        -0.8260    0.0690   -0.7120 hn        1 IGN      0.361500
     33 H41        -1.4630   -2.7980   -0.2040 h1        1 IGN      0.053700
     34 H42        -2.6550   -1.4160   -0.3040 h1        1 IGN      0.053700
     35 H51        -1.5470   -1.1790   -2.8190 hc        1 IGN      0.069700
     36 H52        -1.2010   -2.9320   -2.5240 hc        1 IGN      0.069700
     37 H61        -3.3000   -3.0300   -3.5200 h1        1 IGN      0.035700
     38 H62        -3.7290   -3.0990   -1.7560 h1        1 IGN      0.035700
     39 H71        -3.8040   -0.6810   -3.4630 hn        1 IGN      0.427800
     40 H91        -5.6060   -2.2090   -0.8560 hn        1 IGN      0.370400
     41 H101       -4.6560    1.1480   -0.6570 hn        1 IGN      0.423300
     42 H102       -3.6760    1.0820   -2.0100 hn        1 IGN      0.423300
     43 H121        2.6430   -0.6430    0.0270 h1        1 IGN      0.096700
     44 H131        2.1390   -0.9430    2.3060 hc        1 IGN      0.057700
     45 H132        0.5720   -0.0370    2.2370 hc        1 IGN      0.057700
     46 H141        2.3150    1.2790    3.4480 hc        1 IGN      0.036200
     47 H142        3.3930    1.2060    2.0010 hc        1 IGN      0.036200
     48 H151        0.8540    2.8230    2.4660 hc        1 IGN      0.037200
     49 H152        2.3850    3.2670    1.6170 hc        1 IGN      0.037200
     50 H161        0.9290    3.1210   -0.1690 h1        1 IGN      0.066200
     51 H162       -0.1460    1.8850    0.6050 h1        1 IGN      0.066200
     52 H331        2.3140    3.4010   -1.6750 h1        1 IGN      0.049700
     53 H341        3.9350    2.1180   -3.1510 hc        1 IGN      0.056200
     54 H342        2.5910    1.8050   -4.3140 hc        1 IGN      0.056200
     55 H511        3.6360    4.9290   -2.3240 hc        1 IGN      0.037950
     56 H512        5.0840    4.2110   -3.1360 hc        1 IGN      0.037950
     57 H521        2.2240    4.4180   -4.3080 hc        1 IGN      0.074700
     58 H531        4.7770    3.1090   -5.4660 hc        1 IGN      0.037950
     59 H532        3.1260    3.1030   -6.2050 hc        1 IGN      0.037950
     60 H541        3.1480    5.5600   -6.4240 hc        1 IGN      0.034200
     61 H542        4.6110    4.8510   -7.2170 hc        1 IGN      0.034200
     62 H551        5.1430    6.8960   -5.8500 hc        1 IGN      0.030200
     63 H552        6.0130    5.4210   -5.2670 hc        1 IGN      0.030200
     64 H561        3.4480    6.6670   -4.0680 hc        1 IGN      0.034200
     65 H562        5.1050    6.6780   -3.3440 hc        1 IGN      0.034200
     66 H211        0.0690    3.1910   -1.9960 hn        1 IGN      0.382800
     67 H221       -0.3650    2.4130   -4.5520 h1        1 IGN      0.052200
     68 H222        0.5270    1.0310   -3.7730 h1        1 IGN      0.052200
@<TRIPOS>BOND
     1    1    2 2   
     2    1    3 1   
     3    1   12 1   
     4    3    4 1   
     5    3   32 1   
     6    4    5 1   
     7    4   33 1   
     8    4   34 1   
     9    5    6 1   
    10    5   35 1   
    11    5   36 1   
    12    6    7 1   
    13    6   37 1   
    14    6   38 1   
    15    7    8 1   
    16    7   39 1   
    17    8    9 2   
    18    8   10 1   
    19    9   40 1   
    20   10   41 1   
    21   10   42 1   
    22   11   12 1   
    23   11   16 1   
    24   11   18 1   
    25   12   13 1   
    26   12   43 1   
    27   13   14 1   
    28   13   44 1   
    29   13   45 1   
    30   14   15 1   
    31   14   46 1   
    32   14   47 1   
    33   15   16 1   
    34   15   48 1   
    35   15   49 1   
    36   16   50 1   
    37   16   51 1   
    38   17   18 2   
    39   18   19 1   
    40   19   20 1   
    41   19   27 1   
    42   19   52 1   
    43   20   22 1   
    44   20   53 1   
    45   20   54 1   
    46   21   22 1   
    47   21   26 1   
    48   21   55 1   
    49   21   56 1   
    50   22   23 1   
    51   22   57 1   
    52   23   24 1   
    53   23   58 1   
    54   23   59 1   
    55   24   25 1   
    56   24   60 1   
    57   24   61 1   
    58   25   26 1   
    59   25   62 1   
    60   25   63 1   
    61   26   64 1   
    62   26   65 1   
    63   27   28 1   
    64   27   66 1   
    65   28   29 1   
    66   28   67 1   
    67   28   68 1   
    68   29   30 1   
    69   29   31 1   
@<TRIPOS>SUBSTRUCTURE
     1 IGN         1 TEMP              0 ****  ****    0 ROOT
