@<TRIPOS>MOLECULE
IGN
   68    69     1     0     0
SMALL
bcc


@<TRIPOS>ATOM
      1 C1          2.9470   -0.4140    1.7470 c         1 IGN      0.641100
      2 O2          3.8240   -1.1050    2.3170 o         1 IGN     -0.657100
      3 N3          1.8510    0.0780    2.4010 n         1 IGN     -0.541900
      4 C4          1.5420   -0.2900    3.7590 c3        1 IGN      0.088000
      5 C5          0.4990   -1.3990    3.9090 c3        1 IGN     -0.155400
      6 C6         -0.3120   -1.2310    5.1950 c3        1 IGN      0.186800
      7 N7         -1.4680   -0.3640    5.1310 nh        1 IGN     -0.834200
      8 C8         -1.1860    1.0640    5.1790 c2        1 IGN      0.761100
      9 N9         -0.6060    1.6570    6.2030 n2        1 IGN     -0.924100
     10 N10        -1.7170    1.8500    4.1260 nh        1 IGN     -0.911800
     11 N11         2.0550    0.3320   -0.5240 n         1 IGN     -0.461800
     12 C12         3.2190    0.0000    0.2780 c3        1 IGN      0.038700
     13 C13         4.2450    1.1460    0.3560 c3        1 IGN     -0.083400
     14 C14         4.3170    1.9170   -0.9410 c3        1 IGN     -0.072400
     15 C15         2.9740    2.5340   -1.2760 c3        1 IGN     -0.099400
     16 C16         1.7940    1.7390   -0.6970 c3        1 IGN      0.094000
     17 O31         1.7430   -1.8650   -1.0320 o         1 IGN     -0.622100
     18 C32         1.3570   -0.6840   -1.1620 c         1 IGN      0.626100
     19 C33         0.1050   -0.3630   -2.0210 c3        1 IGN      0.134500
     20 C34        -0.1990   -1.6210   -2.8550 c3        1 IGN     -0.062400
     21 C51        -0.5140   -0.6390   -5.1470 c3        1 IGN     -0.072900
     22 C52        -1.1830   -1.3590   -3.9840 c3        1 IGN     -0.063700
     23 C53        -1.7740   -2.6800   -4.4630 c3        1 IGN     -0.072900
     24 C54        -2.7390   -2.4720   -5.6110 c3        1 IGN     -0.075400
     25 C55        -2.0800   -1.7370   -6.7600 c3        1 IGN     -0.074400
     26 C56        -1.4800   -0.4260   -6.2940 c3        1 IGN     -0.075400
     27 N21        -1.0450    0.1200   -1.2850 n3        1 IGN     -0.809200
     28 C22        -1.4890   -0.6880   -0.1670 c3        1 IGN      0.036800
     29 C23        -1.4460    0.0240    1.1980 c         1 IGN      0.892600
     30 O24        -0.7810    1.1010    1.3320 o         1 IGN     -0.857800
     31 O25        -2.0710   -0.4980    2.1650 o         1 IGN     -0.857800
     32 H31         1.0870    0.4710    1.8800 hn        1 IGN      0.361500
     33 H41         1.1610    0.6450    4.2630 h1        1 IGN      0.053700
     34 H42         2.4920   -0.6070    4.2760 h1        1 IGN      0.053700
     35 H51         1.0190   -2.3910    3.9380 hc        1 IGN      0.069700
     36 H52        -0.2020   -1.4110    3.0270 hc        1 IGN      0.069700
     37 H61         0.3720   -0.8950    6.0240 h1        1 IGN      0.035700
     38 H62        -0.7140   -2.2470    5.4810 h1        1 IGN      0.035700
     39 H71        -2.0440   -0.6070    4.3370 hn        1 IGN      0.427800
     40 H91        -0.3530    1.0420    6.9450 hn        1 IGN      0.370400
     41 H101       -1.3250    2.7620    4.0630 hn        1 IGN      0.423300
     42 H102       -1.7710    1.3810    3.2350 hn        1 IGN      0.423300
     43 H121        3.7120   -0.9060   -0.1940 h1        1 IGN      0.096700
     44 H131        3.9670    1.8440    1.1890 hc        1 IGN      0.057700
     45 H132        5.2400    0.6950    0.6060 hc        1 IGN      0.057700
     46 H141        5.0960    2.7200   -0.8610 hc        1 IGN      0.036200
     47 H142        4.6340    1.2280   -1.7670 hc        1 IGN      0.036200
     48 H151        2.9160    3.5750   -0.8650 hc        1 IGN      0.037200
     49 H152        2.8680    2.6080   -2.3890 hc        1 IGN      0.037200
     50 H161        1.5160    2.1630    0.3150 h1        1 IGN      0.066200
     51 H162        0.9150    1.9080   -1.3750 h1        1 IGN      0.066200
     52 H331        0.4000    0.4540   -2.7480 h1        1 IGN      0.049700
     53 H341        0.7670   -2.0020   -3.2780 hc        1 IGN      0.056200
     54 H342       -0.6010   -2.4200   -2.1780 hc        1 IGN      0.056200
     55 H511       -0.1260    0.3540   -4.8020 hc        1 IGN      0.037950
     56 H512        0.3640   -1.2400   -5.5040 hc        1 IGN      0.037950
     57 H521       -2.0250   -0.7150   -3.6030 hc        1 IGN      0.074700
     58 H531       -0.9440   -3.3630   -4.7850 hc        1 IGN      0.037950
     59 H532       -2.3090   -3.1770   -3.6120 hc        1 IGN      0.037950
     60 H541       -3.6230   -1.8840   -5.2510 hc        1 IGN      0.034200
     61 H542       -3.1160   -3.4650   -5.9680 hc        1 IGN      0.034200
     62 H551       -2.8350   -1.5410   -7.5660 hc        1 IGN      0.030200
     63 H552       -1.2740   -2.3800   -7.2020 hc        1 IGN      0.030200
     64 H561       -2.3020    0.2630   -5.9650 hc        1 IGN      0.034200
     65 H562       -0.9470    0.0680   -7.1480 hc        1 IGN      0.034200
     66 H211       -0.8680    1.0570   -0.9540 hn        1 IGN      0.382800
     67 H221       -2.5580   -0.9760   -0.3730 h1        1 IGN      0.052200
     68 H222       -0.8890   -1.6350   -0.0680 h1        1 IGN      0.052200
@<TRIPOS>BOND
     1    1    2 2   
     2    1    3 1   
     3    1   12 1   
     4    3    4 1   
     5    3   32 1   
     6    4    5 1   
     7    4   33 1   
     8    4   34 1   
     9    5    6 1   
    10    5   35 1   
    11    5   36 1   
    12    6    7 1   
    13    6   37 1   
    14    6   38 1   
    15    7    8 1   
    16    7   39 1   
    17    8    9 2   
    18    8   10 1   
    19    9   40 1   
    20   10   41 1   
    21   10   42 1   
    22   11   12 1   
    23   11   16 1   
    24   11   18 1   
    25   12   13 1   
    26   12   43 1   
    27   13   14 1   
    28   13   44 1   
    29   13   45 1   
    30   14   15 1   
    31   14   46 1   
    32   14   47 1   
    33   15   16 1   
    34   15   48 1   
    35   15   49 1   
    36   16   50 1   
    37   16   51 1   
    38   17   18 2   
    39   18   19 1   
    40   19   20 1   
    41   19   27 1   
    42   19   52 1   
    43   20   22 1   
    44   20   53 1   
    45   20   54 1   
    46   21   22 1   
    47   21   26 1   
    48   21   55 1   
    49   21   56 1   
    50   22   23 1   
    51   22   57 1   
    52   23   24 1   
    53   23   58 1   
    54   23   59 1   
    55   24   25 1   
    56   24   60 1   
    57   24   61 1   
    58   25   26 1   
    59   25   62 1   
    60   25   63 1   
    61   26   64 1   
    62   26   65 1   
    63   27   28 1   
    64   27   66 1   
    65   28   29 1   
    66   28   67 1   
    67   28   68 1   
    68   29   30 1   
    69   29   31 1   
@<TRIPOS>SUBSTRUCTURE
     1 IGN         1 TEMP              0 ****  ****    0 ROOT
