@<TRIPOS>MOLECULE
IGN
   72    73     1     0     0
SMALL
bcc


@<TRIPOS>ATOM
      1 C1          0.0000    0.0000    0.0000 c         1 IGN      0.347100
      2 O2         -0.6060    0.8330    0.6400 o         1 IGN     -0.380100
      3 N3         -0.6750   -0.9260   -0.7090 ny        1 IGN      0.178200
      4 C4         -2.1390   -0.9270   -0.7090 c3        1 IGN     -0.009200
      5 C5         -2.6500   -2.0710   -1.5850 c3        1 IGN     -0.032400
      6 C6         -4.1790   -2.0730   -1.5850 c3        1 IGN     -0.041200
      7 N7         -4.6680   -3.1690   -2.4250 ny        1 IGN      0.134000
      8 C8         -6.0200   -3.3680   -2.5770 c2        1 IGN     -0.190900
      9 N9         -6.4780   -4.3970   -3.3650 n2        1 IGN     -0.285100
     10 N10        -6.8660   -2.5830   -1.9740 nz        1 IGN      0.258400
     11 N11         1.9980    1.2050   -0.6810 n         1 IGN     -0.086800
     12 C12         1.5070    0.0000    0.0000 c3        1 IGN     -0.024300
     13 C13         2.0210    0.0000    1.4420 c3        1 IGN     -0.033400
     14 C14         3.5450    0.1410    1.4380 c3        1 IGN     -0.019400
     15 C15         3.9340    1.4690    0.7850 c3        1 IGN     -0.039400
     16 C16         3.4410    1.4860   -0.6640 c3        1 IGN      0.009000
     17 O31        -0.0290    1.7460   -1.4000 o         1 IGN     -0.744100
     18 C32         1.1430    2.0400   -1.3030 c         1 IGN      0.620100
     19 C33         1.6450    3.3390   -1.8790 c3        1 IGN     -0.136500
     20 C34         2.5830    3.0490   -3.0520 c3        1 IGN     -0.077400
     21 C51         4.0760    4.9770   -2.5100 c3        1 IGN     -0.019900
     22 C52         3.1660    4.3620   -3.5750 c3        1 IGN     -0.067700
     23 C53         3.9780    4.0910   -4.8430 c3        1 IGN     -0.019900
     24 C54         4.5610    5.4050   -5.3670 c3        1 IGN     -0.019900
     25 C55         5.4700    6.0200   -4.3010 c3        1 IGN     -0.025400
     26 C56         4.6590    6.2910   -3.0340 c3        1 IGN     -0.019900
     27 N21         0.5050    4.1370   -2.3500 ny        1 IGN      0.084000
     28 C22        -0.0590    3.4260   -3.5060 c3        1 IGN     -0.213200
     29 C23        -1.1900    4.2340   -4.0890 c         1 IGN      0.939600
     30 O24        -1.4950    5.2930   -3.5930 o         1 IGN     -0.688300
     31 O25        -1.8590    3.7770   -5.1600 o         1 IGN     -0.688300
     32 H31        -0.3840   -0.8320   -1.6620 hn        1 IGN      0.261800
     33 H41        -2.5000   -1.0600    0.3040 hx        1 IGN      0.105700
     34 H42        -2.5000    0.0160   -1.1000 hx        1 IGN      0.105700
     35 H51        -2.2890   -1.9380   -2.5980 hc        1 IGN      0.056200
     36 H52        -2.2880   -3.0150   -1.1940 hc        1 IGN      0.056200
     37 H61        -4.5410   -1.1300   -1.9760 hx        1 IGN      0.093700
     38 H62        -4.5400   -2.2060   -0.5720 hx        1 IGN      0.093700
     39 H71        -4.2910   -3.0250   -3.3400 hn        1 IGN      0.249300
     40 H91        -5.8290   -5.0010   -3.8290 hn        1 IGN      0.378400
     41 H101       -6.7260   -1.6410   -2.2820 hn        1 IGN      0.226800
     42 H102       -7.8000   -2.8690   -2.1930 hn        1 IGN      0.226800
     43 H121        1.8750   -0.8800   -0.5140 h1        1 IGN      0.045700
     44 H131        1.5840    0.8320    1.9800 hc        1 IGN      0.048200
     45 H132        1.7470   -0.9320    1.9220 hc        1 IGN      0.048200
     46 H141        3.9110    0.1200    2.4570 hc        1 IGN      0.049200
     47 H142        3.9800   -0.6770    0.8760 hc        1 IGN      0.049200
     48 H151        5.0120    1.5750    0.8000 hc        1 IGN      0.053700
     49 H152        3.4770    2.2860    1.3310 hc        1 IGN      0.053700
     50 H161        3.6250    2.4620   -1.0970 h1        1 IGN      0.062200
     51 H162        3.9640    0.7270   -1.2330 h1        1 IGN      0.062200
     52 H331        2.1810    3.8900   -1.1160 hx        1 IGN      0.115700
     53 H341        3.3870    2.4030   -2.7200 hc        1 IGN      0.060200
     54 H342        2.0300    2.5580   -3.8440 hc        1 IGN      0.060200
     55 H511        3.4990    5.1710   -1.6130 hc        1 IGN      0.013450
     56 H512        4.8820    4.2900   -2.2850 hc        1 IGN      0.013450
     57 H521        2.3640    5.0530   -3.8040 hc        1 IGN      0.032700
     58 H531        4.7850    3.4050   -4.6130 hc        1 IGN      0.013450
     59 H532        3.3330    3.6570   -5.5970 hc        1 IGN      0.013450
     60 H541        3.7550    6.0920   -5.5920 hc        1 IGN      0.031450
     61 H542        5.1380    5.2110   -6.2630 hc        1 IGN      0.031450
     62 H551        6.2750    5.3310   -4.0730 hc        1 IGN      0.032700
     63 H552        5.8800    6.9520   -4.6720 hc        1 IGN      0.032700
     64 H561        3.8520    6.9770   -3.2630 hc        1 IGN      0.031450
     65 H562        5.3040    6.7250   -2.2790 hc        1 IGN      0.031450
     66 H211       -0.1820    4.2130   -1.6270 hn        1 IGN      0.262800
     67 H221       -0.4310    2.4590   -3.1890 hx        1 IGN      0.095200
     68 H222        0.7110    3.2880   -4.2560 hx        1 IGN      0.095200
     69 H32        -0.3830   -1.8210   -0.3690 hn        1 IGN      0.261800
     70 H72        -4.2890   -4.0150   -2.0490 hn        1 IGN      0.249300
     71 H103       -6.7230   -2.6330   -0.9850 hn        1 IGN      0.226800
     72 H212        0.8150    5.0470   -2.6260 hn        1 IGN      0.262800
@<TRIPOS>BOND
     1    1    2 2   
     2    1    3 1   
     3    1   12 1   
     4    3    4 1   
     5    3   32 1   
     6    3   69 1   
     7    4    5 1   
     8    4   33 1   
     9    4   34 1   
    10    5    6 1   
    11    5   35 1   
    12    5   36 1   
    13    6    7 1   
    14    6   37 1   
    15    6   38 1   
    16    7    8 1   
    17    7   39 1   
    18    7   70 1   
    19    8    9 2   
    20    8   10 1   
    21    9   40 1   
    22   10   41 1   
    23   10   42 1   
    24   10   71 1   
    25   11   12 1   
    26   11   16 1   
    27   11   18 1   
    28   12   13 1   
    29   12   43 1   
    30   13   14 1   
    31   13   44 1   
    32   13   45 1   
    33   14   15 1   
    34   14   46 1   
    35   14   47 1   
    36   15   16 1   
    37   15   48 1   
    38   15   49 1   
    39   16   50 1   
    40   16   51 1   
    41   17   18 2   
    42   18   19 1   
    43   19   20 1   
    44   19   27 1   
    45   19   52 1   
    46   20   22 1   
    47   20   53 1   
    48   20   54 1   
    49   21   22 1   
    50   21   26 1   
    51   21   55 1   
    52   21   56 1   
    53   22   23 1   
    54   22   57 1   
    55   23   24 1   
    56   23   58 1   
    57   23   59 1   
    58   24   25 1   
    59   24   60 1   
    60   24   61 1   
    61   25   26 1   
    62   25   62 1   
    63   25   63 1   
    64   26   64 1   
    65   26   65 1   
    66   27   28 1   
    67   27   66 1   
    68   27   72 1   
    69   28   29 1   
    70   28   67 1   
    71   28   68 1   
    72   29   30 1   
    73   29   31 1   
@<TRIPOS>SUBSTRUCTURE
     1 IGN         1 TEMP              0 ****  ****    0 ROOT
