@<TRIPOS>MOLECULE
IGP
   31    32     1     0     0
SMALL
bcc


@<TRIPOS>ATOM
      1 C1          0.1240    0.5280   -0.4900 c3        1 IGP      0.194400
      2 P          -1.7150    0.2990    1.3510 p5        1 IGP      1.315900
      3 OP1        -2.4230    1.3190    2.1880 o         1 IGP     -0.919167
      4 OP2        -2.4720   -0.3040    0.2010 o         1 IGP     -0.919167
      5 OP3        -0.7790   -0.6540    2.0630 o         1 IGP     -0.919167
      6 OP4        -0.4800    1.2180    0.5220 os        1 IGP     -0.554200
      7 C2          1.6090    0.2100   -0.1610 c3        1 IGP      0.112100
      8 O2          1.8250   -0.0390    1.2030 oh        1 IGP     -0.679800
      9 C3          2.0760   -1.0350   -0.9660 c3        1 IGP      0.163300
     10 O3          1.7370   -0.9280   -2.3530 oh        1 IGP     -0.648800
     11 CG          3.5430   -1.2560   -0.9110 cc        1 IGP     -0.043400
     12 CD2         4.2960   -1.7180    0.2500 ca        1 IGP     -0.066800
     13 CE2         5.6700   -1.8420   -0.1770 ca        1 IGP     -0.077200
     14 CE3         3.9450   -2.0110    1.5640 ca        1 IGP     -0.040000
     15 CD1         4.4500   -1.1160   -1.9470 cd        1 IGP     -0.167100
     16 NE1         5.7490   -1.5500   -1.5600 na        1 IGP     -0.190400
     17 CZ2         6.6600   -2.2670    0.7150 ca        1 IGP     -0.175000
     18 CZ3         4.9440   -2.4340    2.4380 ca        1 IGP     -0.178000
     19 CH2         6.2750   -2.5610    2.0200 ca        1 IGP     -0.133000
     20 H11        -0.4250   -0.4380   -0.6970 h1        1 IGP     -0.006300
     21 H12         0.1330    1.1530   -1.4340 h1        1 IGP     -0.006300
     22 H2          2.2630    1.0810   -0.4420 h1        1 IGP      0.012700
     23 HO2         0.9310   -0.1430    1.6390 ho        1 IGP      0.503000
     24 H3          1.5540   -1.9400   -0.5340 h1        1 IGP      0.063700
     25 HO3         0.7980   -0.7050   -2.3850 ho        1 IGP      0.423000
     26 HE3         2.8970   -1.8640    1.8910 ha        1 IGP      0.204000
     27 HD1         4.2600   -0.7990   -2.9730 h4        1 IGP      0.164000
     28 HN1         6.5370   -1.0490   -1.8910 hn        1 IGP      0.242700
     29 HZ2         7.7060   -2.3630    0.3990 ha        1 IGP      0.105000
     30 HZ3         4.6840   -2.6630    3.4820 ha        1 IGP      0.120000
     31 HH2         7.0360   -2.8930    2.7400 ha        1 IGP      0.100000
@<TRIPOS>BOND
     1    1    6 1   
     2    1    7 1   
     3    1   20 1   
     4    1   21 1   
     5    2    3 1   
     6    2    4 1   
     7    2    5 1   
     8    2    6 1   
     9    7    8 1   
    10    7    9 1   
    11    7   22 1   
    12    8   23 1   
    13    9   10 1   
    14    9   11 1   
    15    9   24 1   
    16   10   25 1   
    17   11   12 1   
    18   11   15 2   
    19   12   13 ar  
    20   12   14 ar  
    21   13   16 1   
    22   13   17 ar  
    23   14   18 ar  
    24   14   26 1   
    25   15   16 1   
    26   15   27 1   
    27   16   28 1   
    28   17   19 ar  
    29   17   29 1   
    30   18   19 ar  
    31   18   30 1   
    32   19   31 1   
@<TRIPOS>SUBSTRUCTURE
     1 IGP         1 TEMP              0 ****  ****    0 ROOT
