@<TRIPOS>MOLECULE
IGP
   31    32     1     0     0
SMALL
bcc


@<TRIPOS>ATOM
      1 C1          0.1380    0.5450   -0.5020 c3        1 IGP      0.194400
      2 P          -1.7040    0.3450    1.3410 p5        1 IGP      1.315900
      3 OP1        -2.4030    1.3780    2.1690 o         1 IGP     -0.919167
      4 OP2        -2.4650   -0.2600    0.1950 o         1 IGP     -0.919167
      5 OP3        -0.7750   -0.6100    2.0600 o         1 IGP     -0.919167
      6 OP4        -0.4600    1.2480    0.5050 os        1 IGP     -0.554200
      7 C2          1.6210    0.2170   -0.1700 c3        1 IGP      0.112100
      8 O2          1.8340   -0.0240    1.1950 oh        1 IGP     -0.679800
      9 C3          2.0770   -1.0390   -0.9650 c3        1 IGP      0.163300
     10 O3          1.7380   -0.9400   -2.3540 oh        1 IGP     -0.648800
     11 CG          3.5410   -1.2720   -0.9090 cc        1 IGP     -0.043400
     12 CD2         4.2900   -1.7310    0.2560 ca        1 IGP     -0.066800
     13 CE2         5.6640   -1.8700   -0.1700 ca        1 IGP     -0.077200
     14 CE3         3.9370   -2.0110    1.5720 ca        1 IGP     -0.040000
     15 CD1         4.4500   -1.1470   -1.9460 cd        1 IGP     -0.167100
     16 NE1         5.7450   -1.5900   -1.5550 na        1 IGP     -0.190400
     17 CZ2         6.6500   -2.2970    0.7250 ca        1 IGP     -0.175000
     18 CZ3         4.9330   -2.4370    2.4500 ca        1 IGP     -0.178000
     19 CH2         6.2620   -2.5780    2.0320 ca        1 IGP     -0.133000
     20 H11        -0.4190   -0.4180   -0.7020 h1        1 IGP     -0.006300
     21 H12         0.1520    1.1620   -1.4510 h1        1 IGP     -0.006300
     22 H2          2.2810    1.0800   -0.4580 h1        1 IGP      0.012700
     23 HO2         0.9390   -0.1170    1.6330 ho        1 IGP      0.503000
     24 H3          1.5470   -1.9350   -0.5270 h1        1 IGP      0.063700
     25 HO3         0.8020   -0.7090   -2.3880 ho        1 IGP      0.423000
     26 HE3         2.8900   -1.8530    1.8980 ha        1 IGP      0.204000
     27 HD1         4.2620   -0.8370   -2.9740 h4        1 IGP      0.164000
     28 HN1         6.5380   -1.0980   -1.8900 hn        1 IGP      0.242700
     29 HZ2         7.6940   -2.4050    0.4100 ha        1 IGP      0.105000
     30 HZ3         4.6700   -2.6540    3.4940 ha        1 IGP      0.120000
     31 HH2         7.0200   -2.9100    2.7550 ha        1 IGP      0.100000
@<TRIPOS>BOND
     1    1    6 1   
     2    1    7 1   
     3    1   20 1   
     4    1   21 1   
     5    2    3 1   
     6    2    4 1   
     7    2    5 1   
     8    2    6 1   
     9    7    8 1   
    10    7    9 1   
    11    7   22 1   
    12    8   23 1   
    13    9   10 1   
    14    9   11 1   
    15    9   24 1   
    16   10   25 1   
    17   11   12 1   
    18   11   15 2   
    19   12   13 ar  
    20   12   14 ar  
    21   13   16 1   
    22   13   17 ar  
    23   14   18 ar  
    24   14   26 1   
    25   15   16 1   
    26   15   27 1   
    27   16   28 1   
    28   17   19 ar  
    29   17   29 1   
    30   18   19 ar  
    31   18   30 1   
    32   19   31 1   
@<TRIPOS>SUBSTRUCTURE
     1 IGP         1 TEMP              0 ****  ****    0 ROOT
