@<TRIPOS>MOLECULE
IGP
   31    25     1     0     0
SMALL
bcc


@<TRIPOS>ATOM
      1 C1         -2.0820    0.3050    2.0770 c3        1 IGP      0.061000
      2 P          -3.6600    1.4970    3.7610 p3        1 IGP      2.518000
      3 OP1        -4.7710    1.9080    2.8190 os        1 IGP     -1.253000
      4 OP2        -4.0030    0.0990    4.3940 o         1 IGP     -1.234000
      5 OP3        -3.5250    2.5340    4.8590 o         1 IGP     -1.234000
      6 OP4        -2.2760    1.3960    2.9580 os        1 IGP     -0.729000
      7 C2         -1.0310    0.6770    1.0140 c3        1 IGP     -0.036000
      8 O2          0.0570    1.3110    1.6320 oh        1 IGP     -0.374000
      9 C3         -0.5560   -0.5840    0.3100 c3        1 IGP      0.113000
     10 O3         -1.6560   -1.3340   -0.0790 oh        1 IGP     -0.396000
     11 CG          0.2580   -0.2020   -0.9230 c2        1 IGP     -0.234000
     12 CD2         1.5320   -0.5820   -1.2760 c1        1 IGP     -0.034000
     13 CE2         1.7940   -0.0850   -2.5460 c1        1 IGP     -0.037000
     14 CE3         2.4670   -1.3680   -0.6350 c1        1 IGP     -0.109000
     15 CD1        -0.2780    0.5320   -1.9700 c1        1 IGP      0.017000
     16 NE1         0.6730    0.6030   -2.9720 n1        1 IGP     -0.213000
     17 CZ2         3.0190   -0.3860   -3.1810 c1        1 IGP     -0.150000
     18 CZ3         3.6830   -1.6670   -1.2660 c1        1 IGP     -0.174500
     19 CH2         3.9490   -1.1700   -2.5400 c1        1 IGP     -0.174500
     20 H11        -1.7940   -0.4060    2.5440 h1        1 IGP      0.036500
     21 H12        -2.9640    0.0780    1.6200 h1        1 IGP      0.036500
     22 H2         -1.4460    1.3040    0.3340 h1        1 IGP      0.105000
     23 HO2         0.0660    2.1750    1.4060 ho        1 IGP      0.186000
     24 H3         -0.0090   -1.1010    0.9100 h1        1 IGP      0.064000
     25 HO3        -1.5230   -2.1900    0.1320 ho        1 IGP      0.288000
     26 HE3         2.2340   -1.8110    0.1810 ha        1 IGP      0.122000
     27 HD1        -1.1740    1.0040   -1.9660 DU        1 IGP      0.272500
     28 HN1         0.5780    1.0270   -3.7640 DU        1 IGP      0.272500
     29 HZ2         3.2050   -0.0400   -4.0760 ha        1 IGP      0.105000
     30 HZ3         4.3540   -2.2310   -0.8080 ha        1 IGP      0.092500
     31 HH2         4.8820   -1.2910   -2.9480 ha        1 IGP      0.092500
@<TRIPOS>BOND
     1    1    6 1   
     2    1    7 1   
     3    1   20 1   
     4    1   21 1   
     5    2    4 1   
     6    2    5 1   
     7    2    6 1   
     8    7    8 1   
     9    7    9 1   
    10    7   22 1   
    11    8   23 1   
    12    9   10 1   
    13    9   11 1   
    14    9   24 1   
    15   10   25 1   
    16   11   12 1   
    17   11   15 1   
    18   12   14 1   
    19   13   17 1   
    20   14   26 1   
    21   15   16 1   
    22   17   29 1   
    23   18   19 1   
    24   18   30 1   
    25   19   31 1   
@<TRIPOS>SUBSTRUCTURE
     1 IGP         1 TEMP              0 ****  ****    0 ROOT
