@<TRIPOS>MOLECULE
IGP
   31    32     1     0     0
SMALL
bcc


@<TRIPOS>ATOM
      1 C1         -0.7870    0.2790    1.8850 c3        1 IGP      0.194400
      2 P           1.1100   -0.4240    3.5390 p5        1 IGP      1.315900
      3 OP1         1.8590    0.3440    4.5820 o         1 IGP     -0.919167
      4 OP2         0.0410   -1.3720    4.0060 o         1 IGP     -0.919167
      5 OP3         1.8880   -0.8940    2.3290 o         1 IGP     -0.919167
      6 OP4         0.1670    0.7960    2.7140 os        1 IGP     -0.554200
      7 C2         -0.4640    0.5600    0.3910 c3        1 IGP      0.112100
      8 O2          0.9130    0.5420    0.1190 oh        1 IGP     -0.679800
      9 C3         -1.1540   -0.5020   -0.5100 c3        1 IGP      0.163300
     10 O3         -2.5370   -0.6640   -0.1750 oh        1 IGP     -0.648800
     11 CG         -1.1130   -0.1650   -1.9550 cc        1 IGP     -0.043400
     12 CD2         0.0700   -0.2020   -2.8080 ca        1 IGP     -0.066800
     13 CE2        -0.3750    0.1430   -4.1390 ca        1 IGP     -0.077200
     14 CE3         1.4140   -0.4720   -2.5710 ca        1 IGP     -0.040000
     15 CD1        -2.1780    0.1940   -2.7630 cd        1 IGP     -0.167100
     16 NE1        -1.7810    0.3050   -4.1250 na        1 IGP     -0.190400
     17 CZ2         0.5300    0.2000   -5.2030 ca        1 IGP     -0.175000
     18 CZ3         2.3020   -0.4130   -3.6440 ca        1 IGP     -0.178000
     19 CH2         1.8670   -0.0850   -4.9340 ca        1 IGP     -0.133000
     20 H11        -1.7880    0.7670    2.0920 h1        1 IGP     -0.006300
     21 H12        -0.8870   -0.8360    2.0400 h1        1 IGP     -0.006300
     22 H2         -0.8430    1.5770    0.0980 h1        1 IGP      0.012700
     23 HO2         1.3780    0.1630    0.9180 ho        1 IGP      0.503000
     24 H3         -0.6250   -1.4870   -0.3500 h1        1 IGP      0.063700
     25 HO3        -2.5690   -0.8030    0.7800 ho        1 IGP      0.423000
     26 HE3         1.7500   -0.6870   -1.5370 ha        1 IGP      0.204000
     27 HD1        -3.2250    0.3170   -2.4830 h4        1 IGP      0.164000
     28 HN1        -2.1780    1.0240   -4.6800 hn        1 IGP      0.242700
     29 HZ2         0.2020    0.4610   -6.2150 ha        1 IGP      0.105000
     30 HZ3         3.3680   -0.6160   -3.4700 ha        1 IGP      0.120000
     31 HH2         2.5980   -0.0420   -5.7530 ha        1 IGP      0.100000
@<TRIPOS>BOND
     1    1    6 1   
     2    1    7 1   
     3    1   20 1   
     4    1   21 1   
     5    2    3 1   
     6    2    4 1   
     7    2    5 1   
     8    2    6 1   
     9    7    8 1   
    10    7    9 1   
    11    7   22 1   
    12    8   23 1   
    13    9   10 1   
    14    9   11 1   
    15    9   24 1   
    16   10   25 1   
    17   11   12 1   
    18   11   15 2   
    19   12   13 ar  
    20   12   14 ar  
    21   13   16 1   
    22   13   17 ar  
    23   14   18 ar  
    24   14   26 1   
    25   15   16 1   
    26   15   27 1   
    27   16   28 1   
    28   17   19 ar  
    29   17   29 1   
    30   18   19 ar  
    31   18   30 1   
    32   19   31 1   
@<TRIPOS>SUBSTRUCTURE
     1 IGP         1 TEMP              0 ****  ****    0 ROOT
