@<TRIPOS>MOLECULE
IGU
   35    37     1     0     0
SMALL
bcc


@<TRIPOS>ATOM
      1 P           2.3550   -1.7900   -4.4500 p5        1 IGU      1.427800
      2 OP1         3.3490   -2.6550   -5.1190 o         1 IGU     -0.841000
      3 OP2         2.2120   -0.5250   -5.4770 oh        1 IGU     -0.781400
      4 OP3         1.0210   -2.1780   -3.9490 o         1 IGU     -0.841000
      5 O5'         3.1270   -0.9950   -3.2260 os        1 IGU     -0.581200
      6 C5'         2.3440   -0.2020   -2.3880 c3        1 IGU      0.184400
      7 C4'         2.3540   -0.7770   -0.9630 c3        1 IGU      0.087100
      8 O4'         2.4490    0.2920   -0.0060 os        1 IGU     -0.464600
      9 C3'         1.0860   -1.5880   -0.6270 c3        1 IGU      0.097100
     10 O3'         1.4000   -2.7520    0.1230 oh        1 IGU     -0.604800
     11 C2'         0.2260   -0.6230    0.1940 c3        1 IGU     -0.126400
     12 C1'         1.2310    0.3930    0.7770 c3        1 IGU      0.268800
     13 N9          0.7540    1.7410    0.8460 nh        1 IGU     -0.175600
     14 C8         -0.6250    2.1440    1.0410 c1        1 IGU      0.033400
     15 N7         -0.6990    3.4560    1.2850 ne        1 IGU     -0.659000
     16 C6          1.1710    5.2640    1.4510 cc        1 IGU      0.735500
     17 N6          0.3050    6.3210    1.7830 nh        1 IGU     -0.885800
     18 C5          0.6190    3.9600    1.2740 cc        1 IGU     -0.197000
     19 N1          2.5060    5.4980    1.3520 nd        1 IGU     -0.777100
     20 C2          3.3700    4.4330    1.1070 c         1 IGU      0.824900
     21 O2          4.6210    4.5820    1.0290 o         1 IGU     -0.726500
     22 N3          2.9000    3.0940    0.9380 n         1 IGU     -0.445100
     23 C4          1.5460    2.8780    1.0040 cd        1 IGU      0.043500
     24 H5'         2.8000    0.8280   -2.3510 h1        1 IGU      0.043200
     25 H5''        1.2920   -0.1350   -2.7800 h1        1 IGU      0.043200
     26 H4'         3.2810   -1.3950   -0.8150 h1        1 IGU      0.070700
     27 H3'         0.5720   -1.9740   -1.5520 h1        1 IGU      0.149700
     28 HO3'        1.9100   -2.4610    0.8870 ho        1 IGU      0.380000
     29 H2'        -0.5310   -0.1170   -0.4540 hc        1 IGU      0.078200
     30 H2''       -0.3120   -1.1490    1.0180 hc        1 IGU      0.078200
     31 H1'         1.5460    0.0680    1.8200 h2        1 IGU      0.019700
     32 H8          2.9670   -0.4510   -6.0480 ho        1 IGU      0.420000
     33 HN61        0.6200    7.2270    1.5170 hn        1 IGU      0.391300
     34 HN62       -0.6420    6.1340    1.5350 hn        1 IGU      0.391300
     35 HN3         3.5250    2.3720    0.6610 hn        1 IGU      0.337500
@<TRIPOS>BOND
     1    1    2 1   
     2    1    3 1   
     3    1    4 1   
     4    1    5 1   
     5    3   32 1   
     6    5    6 1   
     7    6    7 1   
     8    6   24 1   
     9    6   25 1   
    10    7    8 1   
    11    7    9 1   
    12    7   26 1   
    13    8   12 1   
    14    9   10 1   
    15    9   11 1   
    16    9   27 1   
    17   10   28 1   
    18   11   12 1   
    19   11   29 1   
    20   11   30 1   
    21   12   13 1   
    22   12   31 1   
    23   13   14 2   
    24   13   23 1   
    25   14   15 2   
    26   15   18 1   
    27   16   17 1   
    28   16   18 1   
    29   16   19 2   
    30   17   33 1   
    31   17   34 1   
    32   18   23 2   
    33   19   20 1   
    34   20   21 2   
    35   20   22 1   
    36   22   23 1   
    37   22   35 1   
@<TRIPOS>SUBSTRUCTURE
     1 IGU         1 TEMP              0 ****  ****    0 ROOT
