@<TRIPOS>MOLECULE
IGU
   35    33     1     0     0
SMALL
bcc


@<TRIPOS>ATOM
      1 P          -0.3760   -4.1920    1.7030 p3        1 IGU      2.524000
      2 OP1        -0.5640   -5.3610    0.7510 o         1 IGU     -1.250000
      3 OP2         1.1080   -3.9240    1.8920 os        1 IGU     -1.246000
      4 OP3        -1.0140   -4.5340    3.0660 o         1 IGU     -1.250000
      5 O5'        -1.0780   -2.8830    1.0880 os        1 IGU     -0.713000
      6 C5'        -0.4260   -2.2100    0.0190 c3        1 IGU      0.077000
      7 C4'        -1.4470   -1.8060   -1.0230 c3        1 IGU     -0.059000
      8 O4'        -2.1000   -0.3590   -0.6420 os        1 IGU     -0.285000
      9 C3'        -0.8790   -1.6580   -2.1610 c3        1 IGU      0.048000
     10 O3'        -1.8350   -2.0090   -3.2690 oh        1 IGU     -0.399000
     11 C2'        -0.5030   -0.1390   -2.2320 c3        1 IGU     -0.213000
     12 C1'        -1.2630    0.5320   -1.0520 c3        1 IGU      0.162000
     13 N9         -0.3310    0.8920    0.0200 n3        1 IGU     -0.189000
     14 C8         -1.1600    1.0110    1.1040 c1        1 IGU     -0.024000
     15 N7         -0.6320    1.9470    1.9370 n2        1 IGU     -0.136000
     16 C6          1.5270    3.4500    1.8390 c1        1 IGU      0.280000
     17 N6          1.3430    4.1290    3.0870 n2        1 IGU     -0.353000
     18 C5          0.5110    2.4060    1.3790 c2        1 IGU     -0.277000
     19 N1          2.6550    3.7280    1.0460 n1        1 IGU     -0.338000
     20 C2          2.8420    3.0430   -0.2020 c1        1 IGU      0.367000
     21 O2          3.8330    3.2860   -0.8980 o         1 IGU     -0.399000
     22 N3          1.8630    2.0440   -0.6440 n3        1 IGU     -0.312000
     23 C4          0.6950    1.7460    0.1850 c2        1 IGU      0.105000
     24 H5'         0.0150   -1.4230    0.3560 h1        1 IGU      0.035500
     25 H5''        0.2600   -2.8290   -0.3970 h1        1 IGU      0.035500
     26 H4'        -2.1210   -2.4580   -1.0830 h1        1 IGU      0.123000
     27 H3'        -0.0500   -2.2280   -2.2170 h1        1 IGU      0.150000
     28 HO3'       -1.4290   -2.5520   -3.8540 ho        1 IGU      0.301000
     29 H2'         0.4810   -0.0240   -2.1210 hc        1 IGU      0.093500
     30 H2''       -0.8010    0.2500   -3.0980 hc        1 IGU      0.093500
     31 H1'        -1.7620    1.3620   -1.3810 h2        1 IGU      0.084000
     32 H8         -1.9790    0.5140    1.2530 DU        1 IGU      0.259000
     33 HN61        2.0300    4.6530    3.4390 hn        1 IGU      0.228500
     34 HN62        0.5630    4.0560    3.5260 hn        1 IGU      0.228500
     35 HN3         2.0230    1.5420   -1.4180 hn        1 IGU      0.247000
@<TRIPOS>BOND
     1    1    2 1   
     2    1    4 1   
     3    1    5 1   
     4    5    6 1   
     5    6    7 1   
     6    6   24 1   
     7    6   25 1   
     8    7    8 1   
     9    7    9 1   
    10    7   26 1   
    11    8   12 1   
    12    9   10 1   
    13    9   11 1   
    14    9   27 1   
    15   10   28 1   
    16   11   12 1   
    17   11   29 1   
    18   11   30 1   
    19   12   13 1   
    20   12   31 1   
    21   13   14 1   
    22   13   23 1   
    23   14   15 1   
    24   15   18 1   
    25   16   18 1   
    26   16   19 1   
    27   17   33 1   
    28   17   34 1   
    29   18   23 1   
    30   20   21 1   
    31   20   22 1   
    32   22   23 1   
    33   22   35 1   
@<TRIPOS>SUBSTRUCTURE
     1 IGU         1 TEMP              0 ****  ****    0 ROOT
