@<TRIPOS>MOLECULE
IH1
   67    63     1     0     0
SMALL
bcc


@<TRIPOS>ATOM
      1 C27        94.8830  -86.6500    0.2430 c1        1 IH1     -0.231000
      2 C28        97.1540  -83.9500   -0.1070 c2        1 IH1     -0.164000
      3 C29        97.1950  -83.7450    1.2100 c2        1 IH1     -0.155000
      4 C24        96.0500  -83.8160    2.1050 c2        1 IH1     -0.806000
      5 C25        95.0710  -84.7430    2.0000 c2        1 IH1      0.132000
      6 C26        94.9890  -85.7560    1.0410 c1        1 IH1     -0.108000
      7 BR         94.7230  -87.9390   -0.9100 br        1 IH1      0.270000
      8 S          96.0400  -82.6800    3.3380 s6        1 IH1      2.870000
      9 O1         97.3320  -82.5500    3.9080 o         1 IH1     -0.968500
     10 O2         95.0210  -82.9650    4.2580 o         1 IH1     -0.968500
     11 C23        95.6780  -81.2810    2.4780 c3        1 IH1     -0.948000
     12 C22        99.8710  -83.1400    3.3650 c1        1 IH1     -0.072000
     13 C13       106.0970  -88.5500    3.8430 c2        1 IH1     -0.191000
     14 C14       105.5950  -89.4040    4.6970 c1        1 IH1     -0.102000
     15 C15       105.1230  -90.3260    5.4760 c2        1 IH1     -0.122000
     16 C16       102.9960  -85.8030    4.5430 c1        1 IH1      0.087000
     17 C19       100.4970  -85.2780    4.1270 c2        1 IH1      0.499000
     18 C21        99.9310  -83.6310    5.8430 c2        1 IH1      0.350000
     19 N17       101.8710  -85.5500    4.3260 n2        1 IH1     -0.257000
     20 N18        99.1410  -82.5910    6.2480 n         1 IH1     -0.373000
     21 O21       100.6040  -84.3250    6.6420 o         1 IH1     -0.406000
     22 O19        99.7540  -86.1710    3.7320 o         1 IH1     -0.187000
     23 N20       100.0620  -83.9190    4.4090 n         1 IH1     -0.203000
     24 C1        106.3590  -85.4270    5.8650 c3        1 IH1     -0.123000
     25 C2        105.8490  -84.9960    7.2460 c3        1 IH1     -0.088000
     26 C3        106.6740  -83.8040    7.6990 c3        1 IH1     -0.211000
     27 C4       -456.9770  427.1810   10.5070 c1        1 IH1      0.173000
     28 C5       -460.3700  425.5340    9.7280 c3        1 IH1     -0.246000
     29 C6        103.5080  -85.0430    8.0980 c2        1 IH1     -0.168000
     30 C7        104.4020  -84.6470    7.1940 c2        1 IH1     -0.236000
     31 C8       -459.4280  426.3660   10.5490 c2        1 IH1     -0.028000
     32 N11      -458.1220  426.6470    9.8380 n4        1 IH1     -0.096000
     33 N10      -459.5480  426.8670   11.7170 n2        1 IH1     -0.198000
     34 HC28       98.0560  -83.8750   -0.7310 ha        1 IH1      0.124500
     35 HC29       98.1560  -83.5070    1.7130 ha        1 IH1      0.156000
     36 HC25       94.2350  -84.7420    2.7390 ha        1 IH1      0.174000
     37 HC26       96.2300  -84.2000   -0.6460 ha        1 IH1      0.124500
     38 H231       96.2070  -81.2040    1.4950 h1        1 IH1      0.168333
     39 H232       94.5860  -81.1810    2.2510 h1        1 IH1      0.168333
     40 H221       99.5310  -82.1020    3.5450 ha        1 IH1      0.111000
     41 H222       95.9570  -80.3580    3.0500 h1        1 IH1      0.168333
     42 HC13       98.9980  -82.4970    7.2270 hn        1 IH1      0.263500
     43 HC14       98.4770  -82.1770    5.6300 hn        1 IH1      0.263500
     44 HC15      104.0650  -90.6420    5.4460 ha        1 IH1      0.178500
     45 H161      106.5060  -88.8850    2.8660 ha        1 IH1      0.210000
     46 H162      105.7530  -90.8570    6.2120 ha        1 IH1      0.178500
     47 HC11      105.4290  -87.2690    5.9670 hn        1 IH1      0.280000
     48 HC12      107.4300  -85.7680    5.9500 hx        1 IH1      0.141000
     49 HC2       106.0140  -85.8400    7.9750 hc        1 IH1      0.102000
     50 HC31      106.5240  -82.9350    7.0140 hc        1 IH1      0.096667
     51 HC32      107.7590  -84.0650    7.7200 hc        1 IH1      0.096667
     52 HC41     -457.0670  427.3970   11.5950 hx        1 IH1      0.132000
     53 HC42      106.3590  -83.5010    8.7270 hc        1 IH1      0.096667
     54 HC5      -459.9460  424.5130    9.5510 hc        1 IH1      0.137333
     55 HC61      103.7650  -85.6820    8.9550 ha        1 IH1      0.138500
     56 HC62     -461.3440  425.4130   10.2690 hc        1 IH1      0.137333
     57 HN9       106.3230  -84.5580    5.1470 hx        1 IH1      0.141000
     58 HC71      102.4490  -84.7420    8.0390 ha        1 IH1      0.138500
     59 HC72      104.1160  -83.9780    6.3650 ha        1 IH1      0.128000
     60 H111     -460.5840  426.0190    8.7420 hc        1 IH1      0.137333
     61 H112     -457.8080  425.7590    9.3980 hn        1 IH1      0.301500
     62 HN10     -460.3930  426.7170   12.2300 hn        1 IH1      0.248000
     63 H113     -458.3270  427.3070    9.0600 hn        1 IH1      0.301500
     64 H92       104.5720  -86.1580    4.9990 hn        1 IH1      0.280000
     65 C12       106.2000  -87.1040    4.0430 c2        1 IH1      0.300000
     66 O12       106.7470  -86.3120    3.2820 o         1 IH1     -0.196000
     67 N9        105.5590  -86.5320    5.2720 n4        1 IH1     -0.150000
@<TRIPOS>BOND
     1    1    6 1   
     2    1    7 1   
     3    2    3 1   
     4    2   34 1   
     5    2   37 1   
     6    3    4 1   
     7    3   35 1   
     8    4    5 1   
     9    4    8 1   
    10    5    6 1   
    11    5   36 1   
    12    8    9 1   
    13    8   10 1   
    14    8   11 1   
    15   11   38 1   
    16   11   39 1   
    17   11   41 1   
    18   12   23 1   
    19   12   40 1   
    20   13   14 1   
    21   13   45 1   
    22   13   65 1   
    23   14   15 1   
    24   15   44 1   
    25   15   46 1   
    26   16   19 1   
    27   17   19 1   
    28   17   22 1   
    29   17   23 1   
    30   18   20 1   
    31   18   21 1   
    32   18   23 1   
    33   20   42 1   
    34   20   43 1   
    35   24   25 1   
    36   24   48 1   
    37   24   57 1   
    38   24   67 1   
    39   25   26 1   
    40   25   30 1   
    41   25   49 1   
    42   26   50 1   
    43   26   51 1   
    44   26   53 1   
    45   27   32 1   
    46   27   52 1   
    47   28   31 1   
    48   28   54 1   
    49   28   56 1   
    50   28   60 1   
    51   29   30 1   
    52   29   55 1   
    53   29   58 1   
    54   30   59 1   
    55   31   32 1   
    56   31   33 1   
    57   32   61 1   
    58   32   63 1   
    59   33   62 1   
    60   47   67 1   
    61   64   67 1   
    62   65   66 1   
    63   65   67 1   
@<TRIPOS>SUBSTRUCTURE
     1 IH1         1 TEMP              0 ****  ****    0 ROOT
