@<TRIPOS>MOLECULE
IH1
   65    60     1     0     0
SMALL
bcc


@<TRIPOS>ATOM
      1 C27         3.0450   -9.3550    2.7660 c1        1 IH1     -0.104000
      2 C28         3.9100   -9.2780    1.6900 c1        1 IH1     -0.071500
      3 C29         3.6210   -8.4390    0.6300 c1        1 IH1     -0.071500
      4 C24         2.4470   -7.6630    0.6470 c1        1 IH1     -0.829000
      5 C25         1.5890   -7.7390    1.7140 c1        1 IH1     -0.017000
      6 C26         1.8800   -8.5840    2.7810 c1        1 IH1     -0.133000
      7 BR          3.5280  -10.3910    4.3090 br        1 IH1      0.078000
      8 S           2.0210   -6.6990   -0.7420 s4        1 IH1      2.071800
      9 O1          0.6190   -6.7680   -1.0150 o         1 IH1     -0.535400
     10 O2          2.5590   -7.2460   -1.9350 o         1 IH1     -0.535400
     11 C23         2.5510   -5.0090   -0.5070 c2        1 IH1     -0.886000
     12 C22         1.7720   -4.0660   -1.5110 c3        1 IH1      0.040000
     13 C13         1.2080    0.7250    0.1110 c3        1 IH1     -0.031000
     14 C14         2.3010    1.7110    0.4760 c2        1 IH1     -0.147000
     15 C15         3.6460    1.5740   -0.1160 c1        1 IH1     -0.179000
     16 C16         3.9350    0.4450   -1.0680 c2        1 IH1     -0.050000
     17 C19         3.2350   -2.0300   -1.1750 c1        1 IH1      0.339000
     18 C21         1.0860   -1.7130   -0.8580 c1        1 IH1      0.339000
     19 N17         3.0380   -0.7170   -0.8920 n2        1 IH1     -0.151000
     20 N18         1.7090   -0.5240   -0.6970 n2        1 IH1     -0.135000
     21 O21        -0.0970   -1.9290   -0.6640 o         1 IH1     -0.311500
     22 O19         4.3090   -2.5670   -1.3570 o         1 IH1     -0.311500
     23 N20         2.0300   -2.6470   -1.1540 n3        1 IH1     -0.332000
     24 C12         0.0510    1.4300   -0.6160 c2        1 IH1      0.322000
     25 O12        -0.2140    1.1380   -1.7540 o         1 IH1     -0.367000
     26 C1         -1.7190    3.1930   -0.6510 c3        1 IH1     -0.026000
     27 C2         -2.2490    4.3760    0.2380 c3        1 IH1     -0.125000
     28 C3         -2.1730    5.6390   -0.5560 c3        1 IH1     -0.157000
     29 C4         -2.8280    6.8230    0.1460 c3        1 IH1     -0.149500
     30 C5         -4.2940    6.5370    0.6000 c3        1 IH1     -0.108000
     31 C6         -4.3210    5.2150    1.4210 c3        1 IH1     -0.149500
     32 N9         -0.6790    2.4880    0.0480 n         1 IH1     -0.362000
     33 C7         -3.6460    4.0500    0.6990 c3        1 IH1     -0.157000
     34 C8         -5.2710    6.5160   -0.5670 c2        1 IH1      0.079000
     35 N11        -5.0510    7.3890   -1.7210 n3        1 IH1     -0.337000
     36 N10        -6.2910    5.7290   -0.5390 n1        1 IH1     -0.314000
     37 HC28        4.7360   -9.8250    1.6790 ha        1 IH1      0.161000
     38 HC29        4.2270   -8.3850   -0.1210 ha        1 IH1      0.161000
     39 HC25        0.7970   -7.2160    1.7260 ha        1 IH1      0.164000
     40 HC26        1.2760   -8.6360    3.5320 ha        1 IH1      0.158000
     41 H231        2.3610   -4.7250    0.4310 ha        1 IH1      0.164500
     42 H232        3.5010   -4.9440   -0.6760 ha        1 IH1      0.164500
     43 H221        0.8090   -4.2460   -1.4510 h1        1 IH1      0.129500
     44 H222        2.0790   -4.2360   -2.4250 h1        1 IH1      0.129500
     45 HC13        0.7550    0.4300    0.9150 h1        1 IH1      0.126000
     46 HC14        2.1110    2.4510    1.1000 ha        1 IH1      0.167000
     47 HC15        4.3230    2.2770    0.0330 ha        1 IH1      0.153000
     48 H161        4.8910    0.1510   -1.1070 h4        1 IH1      0.132500
     49 H162        3.7560    0.8170   -1.9430 h4        1 IH1      0.132500
     50 HC11       -2.4640    2.5700   -0.8490 h1        1 IH1      0.103500
     51 HC12       -1.3590    3.5560   -1.4960 h1        1 IH1      0.103500
     52 HC2        -1.6610    4.4670    1.0390 hc        1 IH1      0.096000
     53 HC31       -2.6270    5.4940   -1.4310 hc        1 IH1      0.088000
     54 HC32       -1.2350    5.8520   -0.7230 hc        1 IH1      0.088000
     55 HC41       -2.8320    7.5790   -0.4580 hc        1 IH1      0.087250
     56 HC42       -2.2840    7.0580    0.9530 hc        1 IH1      0.087250
     57 HC5        -4.6470    7.2860    1.1310 hc        1 IH1      0.090000
     58 HC61       -5.2460    4.9770    1.6040 hc        1 IH1      0.087250
     59 HC62       -3.8760    5.3610    2.2460 hc        1 IH1      0.087250
     60 HN9        -0.5170    2.6680    0.9250 hn        1 IH1      0.247000
     61 HC71       -3.6100    3.3060    1.2830 hc        1 IH1      0.088000
     62 HC72       -4.1850    3.8100   -0.0840 hc        1 IH1      0.088000
     63 H111       -5.5110    7.2350   -2.5110 hn        1 IH1      0.188000
     64 H112       -4.3980    8.0700   -1.6810 hn        1 IH1      0.188000
     65 HN10       -6.4270    5.1860    0.1790 DU        1 IH1      0.151000
@<TRIPOS>BOND
     1    1    6 1   
     2    1    7 1   
     3    2    3 1   
     4    2   37 1   
     5    3   38 1   
     6    4    5 1   
     7    4    8 1   
     8    5   39 1   
     9    6   40 1   
    10    8    9 1   
    11    8   10 1   
    12   11   12 1   
    13   11   41 1   
    14   11   42 1   
    15   12   23 1   
    16   12   43 1   
    17   12   44 1   
    18   13   14 1   
    19   13   20 1   
    20   13   24 1   
    21   13   45 1   
    22   14   15 1   
    23   14   46 1   
    24   15   47 1   
    25   16   19 1   
    26   16   48 1   
    27   16   49 1   
    28   17   22 1   
    29   17   23 1   
    30   18   21 1   
    31   18   23 1   
    32   19   20 1   
    33   24   25 1   
    34   24   32 1   
    35   26   27 1   
    36   26   32 1   
    37   26   50 1   
    38   26   51 1   
    39   27   28 1   
    40   27   33 1   
    41   27   52 1   
    42   28   29 1   
    43   28   53 1   
    44   28   54 1   
    45   29   30 1   
    46   29   55 1   
    47   29   56 1   
    48   30   31 1   
    49   30   34 1   
    50   30   57 1   
    51   31   33 1   
    52   31   58 1   
    53   31   59 1   
    54   32   60 1   
    55   33   61 1   
    56   33   62 1   
    57   34   35 1   
    58   34   36 1   
    59   35   63 1   
    60   35   64 1   
@<TRIPOS>SUBSTRUCTURE
     1 IH1         1 TEMP              0 ****  ****    0 ROOT
