@<TRIPOS>MOLECULE
IH1
   65    68     1     0     0
SMALL
bcc


@<TRIPOS>ATOM
      1 C27        -1.1090    1.7220   -5.7380 ca        1 IH1      0.035100
      2 C28        -0.0780    0.7820   -5.8240 ca        1 IH1     -0.129500
      3 C29         0.0950   -0.1510   -4.8050 ca        1 IH1     -0.017000
      4 C24        -0.7480   -0.1650   -3.6870 ca        1 IH1     -0.375500
      5 C25        -1.7820    0.7780   -3.6210 ca        1 IH1     -0.017000
      6 C26        -1.9660    1.7160   -4.6320 ca        1 IH1     -0.129500
      7 BR         -1.3470    2.9820   -7.1010 br        1 IH1     -0.067100
      8 S          -0.5510   -1.3070   -2.4730 sy        1 IH1      1.391300
      9 O1          0.1080   -2.4340   -2.9830 o         1 IH1     -0.651300
     10 O2         -1.7680   -1.5070   -1.8070 o         1 IH1     -0.651300
     11 C23         0.4970   -0.4620   -1.4200 c3        1 IH1     -0.369600
     12 C22         1.9750   -0.5950   -1.7660 c3        1 IH1      0.151000
     13 C13         3.4010    0.0790    2.6510 c3        1 IH1     -0.008100
     14 C14         3.4460    1.2920    3.5330 c2        1 IH1     -0.185200
     15 C15         3.3470    2.5190    3.0130 c2        1 IH1     -0.140200
     16 C16         3.2040    2.7370    1.5440 c3        1 IH1      0.079200
     17 C19         2.8580    1.4110   -0.5240 c         1 IH1      0.749500
     18 C21         3.4200   -0.6650    0.2980 c         1 IH1      0.754500
     19 N17         3.6270    1.6040    0.7130 n         1 IH1     -0.286400
     20 N18         3.8920    0.3560    1.2820 n         1 IH1     -0.205400
     21 O21         3.6070   -1.8790    0.4070 o         1 IH1     -0.556500
     22 O19         2.3890    2.3180   -1.2210 o         1 IH1     -0.585500
     23 N20         2.8850    0.0170   -0.8390 n         1 IH1     -0.464400
     24 C1          0.2600   -1.5960    4.1270 c3        1 IH1      0.086000
     25 C2         -0.5840   -0.8130    5.1450 c3        1 IH1     -0.090700
     26 C3         -2.0080   -1.3520    5.1060 c3        1 IH1     -0.075400
     27 C4         -2.8880   -0.6530    6.1230 c3        1 IH1     -0.073900
     28 C5         -2.3050   -0.7910    7.5210 c3        1 IH1     -0.152000
     29 C6         -0.8890   -0.2350    7.5660 c3        1 IH1     -0.073900
     30 C7         -0.0070   -0.9280    6.5470 c3        1 IH1     -0.075400
     31 C8         -3.1850   -0.0590    8.5420 c2        1 IH1      0.589200
     32 N11        -3.6250   -0.8600    9.6180 nh        1 IH1     -0.891800
     33 N10        -3.4660    1.2100    8.4970 n2        1 IH1     -0.839100
     34 HC28        0.6000    0.7710   -6.6930 ha        1 IH1      0.157000
     35 HC29        0.9000   -0.9030   -4.8840 ha        1 IH1      0.159500
     36 HC25       -2.4700    0.7640   -2.7560 ha        1 IH1      0.159500
     37 HC26       -2.7870    2.4460   -4.5550 ha        1 IH1      0.157000
     38 H231        0.3370   -0.8350   -0.3640 h1        1 IH1      0.140200
     39 H232        0.2410    0.6320   -1.3700 h1        1 IH1      0.140200
     40 H221        2.1570   -0.1050   -2.7680 h1        1 IH1      0.088200
     41 H222        2.2490   -1.6900   -1.8300 h1        1 IH1      0.088200
     42 HC13        4.1190   -0.7130    3.0270 h1        1 IH1      0.120700
     43 HC14        3.5660    1.0980    4.6070 ha        1 IH1      0.144000
     44 HC15        3.3700    3.4320    3.6260 ha        1 IH1      0.151000
     45 H161        2.1360    3.0270    1.3150 h1        1 IH1      0.085700
     46 H162        3.8700    3.5910    1.2190 h1        1 IH1      0.085700
     47 HC11        0.3700   -2.6590    4.4910 h1        1 IH1      0.069700
     48 HC12       -0.2890   -1.6160    3.1410 h1        1 IH1      0.069700
     49 HC2        -0.6080    0.2740    4.8530 hc        1 IH1      0.059700
     50 HC31       -1.9960   -2.4540    5.3120 hc        1 IH1      0.044700
     51 HC32       -2.4360   -1.2030    4.0800 hc        1 IH1      0.044700
     52 HC41       -3.9160   -1.0990    6.0970 hc        1 IH1      0.050200
     53 HC42       -2.9820    0.4310    5.8470 hc        1 IH1      0.050200
     54 HC5        -2.2490   -1.8890    7.7660 hc        1 IH1      0.064700
     55 HC61       -0.9020    0.8670    7.3560 hc        1 IH1      0.050200
     56 HC62       -0.4640   -0.3790    8.5940 hc        1 IH1      0.050200
     57 HN9         2.1870   -1.0100    4.6870 hn        1 IH1      0.313500
     58 HC71        0.1020   -2.0110    6.8190 hc        1 IH1      0.044700
     59 HC72        1.0140   -0.4680    6.5810 hc        1 IH1      0.044700
     60 H111       -4.2890   -0.4300   10.2270 hn        1 IH1      0.394300
     61 H112       -3.8920   -1.7780    9.3390 hn        1 IH1      0.394300
     62 HN10       -3.0190    1.7000    7.7530 hn        1 IH1      0.389400
     63 C12         1.9580   -0.4860    2.7230 c         1 IH1      0.646100
     64 O12         1.2010   -0.4240    1.7300 o         1 IH1     -0.636100
     65 N9          1.5790   -1.0680    3.9050 n         1 IH1     -0.545900
@<TRIPOS>BOND
     1    1    2 ar  
     2    1    6 ar  
     3    1    7 1   
     4    2    3 ar  
     5    2   34 1   
     6    3    4 ar  
     7    3   35 1   
     8    4    5 ar  
     9    4    8 1   
    10    5    6 ar  
    11    5   36 1   
    12    6   37 1   
    13    8    9 2   
    14    8   10 2   
    15    8   11 1   
    16   11   12 1   
    17   11   38 1   
    18   11   39 1   
    19   12   23 1   
    20   12   40 1   
    21   12   41 1   
    22   13   14 1   
    23   13   20 1   
    24   13   42 1   
    25   13   63 1   
    26   14   15 2   
    27   14   43 1   
    28   15   16 1   
    29   15   44 1   
    30   16   19 1   
    31   16   45 1   
    32   16   46 1   
    33   17   19 1   
    34   17   22 2   
    35   17   23 1   
    36   18   20 1   
    37   18   21 2   
    38   18   23 1   
    39   19   20 1   
    40   24   25 1   
    41   24   47 1   
    42   24   48 1   
    43   24   65 1   
    44   25   26 1   
    45   25   30 1   
    46   25   49 1   
    47   26   27 1   
    48   26   50 1   
    49   26   51 1   
    50   27   28 1   
    51   27   52 1   
    52   27   53 1   
    53   28   29 1   
    54   28   31 1   
    55   28   54 1   
    56   29   30 1   
    57   29   55 1   
    58   29   56 1   
    59   30   58 1   
    60   30   59 1   
    61   31   32 1   
    62   31   33 2   
    63   32   60 1   
    64   32   61 1   
    65   33   62 1   
    66   57   65 1   
    67   63   64 2   
    68   63   65 1   
@<TRIPOS>SUBSTRUCTURE
     1 IH1         1 TEMP              0 ****  ****    0 ROOT
