@<TRIPOS>MOLECULE
IH2
   75    70     1     0     0
SMALL
bcc


@<TRIPOS>ATOM
      1 N9          2.0440   -1.4770    0.5890 n         1 IH2     -0.367000
      2 C1          3.2160   -1.4760    1.4530 c3        1 IH2     -0.032000
      3 N10         5.9960   -4.5870    5.9960 n3        1 IH2     -0.406000
      4 N11         3.8510   -3.4710    5.9060 n1        1 IH2     -0.304000
      5 C8          5.0250   -3.7730    5.3090 c2        1 IH2      0.091000
      6 C2          2.8220   -1.9810    2.8660 c3        1 IH2     -0.127000
      7 C7          3.6650   -1.2770    3.8780 c3        1 IH2     -0.151000
      8 C6          5.1310   -1.7020    3.8240 c3        1 IH2     -0.142500
      9 C5          5.3210   -3.2500    3.9090 c3        1 IH2     -0.054000
     10 C4          4.4190   -3.9380    2.8440 c3        1 IH2     -0.142500
     11 C3          2.9810   -3.4950    2.9100 c3        1 IH2     -0.151000
     12 C17         1.0930    0.8040   -4.2850 c3        1 IH2      0.003000
     13 N18         0.3880    1.1350   -3.0270 n         1 IH2     -0.219000
     14 C20        -0.5710    2.0840   -2.9050 c2        1 IH2      0.392000
     15 O20        -0.6540    3.1230   -3.5690 o         1 IH2     -0.322000
     16 N21        -1.4290    1.6950   -1.9040 n2        1 IH2     -0.323000
     17 C22        -0.9970    0.5240   -1.4220 c2        1 IH2      0.388000
     18 O22        -1.5060   -0.1030   -0.5430 o         1 IH2     -0.316000
     19 N19         0.1360    0.1680   -2.1170 n2        1 IH2     -0.174000
     20 C13         1.1890   -0.8460   -1.7860 c2        1 IH2      0.025000
     21 C14         2.1940   -1.0950   -2.9080 c2        1 IH2     -0.174000
     22 C15         2.1460   -0.2670   -4.1410 c2        1 IH2     -0.081000
     23 C12         1.9140   -0.4850   -0.4520 c2        1 IH2      0.283000
     24 C16         3.2740   -0.3760   -5.1850 c3        1 IH2     -0.186000
     25 O12         2.2900    0.6650   -0.2510 o         1 IH2     -0.348000
     26 C23        -2.4620    2.5360   -1.2960 c2        1 IH2      0.008000
     27 C24        -3.8440    1.9090   -1.5280 c3        1 IH2     -0.052000
     28 C28        -5.9530    1.5600    2.2330 c1        1 IH2     -0.126500
     29 C29        -6.2420    0.6860    1.1920 c1        1 IH2     -0.126500
     30 C30        -5.5650    0.7890   -0.0040 c1        1 IH2     -0.126500
     31 C25        -4.5830    1.7760   -0.1720 c1        1 IH2     -0.066500
     32 C26        -4.2950    2.6460    0.8630 c1        1 IH2     -0.122000
     33 C27        -4.9810    2.5400    2.0700 c1        1 IH2     -0.126500
     34 C34        -6.3240    4.3400   -4.1120 c1        1 IH2     -0.126500
     35 C35        -5.8340    3.1020   -4.5570 c1        1 IH2     -0.126500
     36 C36        -5.0040    2.3430   -3.7300 c1        1 IH2     -0.126500
     37 C31        -4.6650    2.8060   -2.4790 c1        1 IH2     -0.066500
     38 C32        -5.1540    4.0440   -2.0330 c1        1 IH2     -0.122000
     39 C33        -5.9840    4.8040   -2.8580 c1        1 IH2     -0.126500
     40 HN9         1.3670   -2.1000    0.7240 hn        1 IH2      0.216000
     41 H11         3.9100   -2.0740    1.0700 h1        1 IH2      0.103500
     42 H12         3.5790   -0.5420    1.5220 h1        1 IH2      0.103500
     43 H101        5.8420   -4.8510    6.8380 hn        1 IH2      0.190500
     44 H102        6.8090   -4.7890    5.5860 hn        1 IH2      0.190500
     45 HN11        3.6680   -3.7890    6.7610 DU        1 IH2      0.137000
     46 H2          1.8880   -1.7600    3.0260 hc        1 IH2      0.099000
     47 H71         3.3200   -1.4700    4.7540 hc        1 IH2      0.090500
     48 H72         3.6100   -0.3490    3.7300 hc        1 IH2      0.090500
     49 H61         5.6140   -1.2820    4.5830 hc        1 IH2      0.082750
     50 H62         5.5210   -1.3840    2.9950 hc        1 IH2      0.082750
     51 H5          6.2430   -3.5000    3.8040 hc        1 IH2      0.081000
     52 H41         4.4560   -4.9410    2.9840 hc        1 IH2      0.082750
     53 H42         4.7690   -3.7330    1.9570 hc        1 IH2      0.082750
     54 H31         2.5020   -3.8840    2.1720 hc        1 IH2      0.090500
     55 H32A        2.6020   -3.8180    3.7290 hc        1 IH2      0.090500
     56 H171        1.5610    1.5570   -4.7180 h1        1 IH2      0.114000
     57 H172        0.4010    0.5400   -4.9050 h1        1 IH2      0.114000
     58 H13         0.7750   -1.6640   -1.5420 ha        1 IH2      0.144000
     59 H14         2.8910   -1.8440   -2.8180 ha        1 IH2      0.139000
     60 H161        3.6170   -1.2690   -5.1930 hc        1 IH2      0.091000
     61 H162        2.9220   -0.1530   -6.0700 hc        1 IH2      0.091000
     62 H163        3.9950    0.2480   -4.9530 hc        1 IH2      0.091000
     63 H231       -2.2950    2.6100   -0.3210 ha        1 IH2      0.113500
     64 H232       -2.4360    3.4100   -1.6920 ha        1 IH2      0.113500
     65 H24        -3.7400    1.0330   -1.9230 hc        1 IH2      0.126000
     66 H28        -6.4440    1.4840    3.0980 ha        1 IH2      0.131875
     67 H29        -6.9210    0.0030    1.3080 ha        1 IH2      0.131875
     68 H30        -5.7780    0.1470   -0.7640 ha        1 IH2      0.131875
     69 H26        -3.6160    3.3280    0.7490 ha        1 IH2      0.131500
     70 H27        -4.7790    3.1500    2.8000 ha        1 IH2      0.131875
     71 H34        -6.9300    4.8950   -4.7140 ha        1 IH2      0.131875
     72 H35        -6.0750    2.7720   -5.4450 ha        1 IH2      0.131875
     73 H36        -4.6670    1.4890   -4.0360 ha        1 IH2      0.131875
     74 H32        -4.9070    4.3810   -1.1250 ha        1 IH2      0.131500
     75 H33        -6.3240    5.6670   -2.5470 ha        1 IH2      0.131875
@<TRIPOS>BOND
     1    1    2 1   
     2    1   23 1   
     3    1   40 1   
     4    2    6 1   
     5    2   41 1   
     6    2   42 1   
     7    3    5 1   
     8    3   43 1   
     9    3   44 1   
    10    4    5 1   
    11    5    9 1   
    12    6    7 1   
    13    6   11 1   
    14    6   46 1   
    15    7    8 1   
    16    7   47 1   
    17    7   48 1   
    18    8    9 1   
    19    8   49 1   
    20    8   50 1   
    21    9   10 1   
    22    9   51 1   
    23   10   11 1   
    24   10   52 1   
    25   10   53 1   
    26   11   54 1   
    27   11   55 1   
    28   12   13 1   
    29   12   22 1   
    30   12   56 1   
    31   12   57 1   
    32   13   14 1   
    33   13   19 1   
    34   14   15 1   
    35   14   16 1   
    36   16   17 1   
    37   17   18 1   
    38   17   19 1   
    39   20   21 1   
    40   20   23 1   
    41   20   58 1   
    42   21   22 1   
    43   21   59 1   
    44   22   24 1   
    45   23   25 1   
    46   24   60 1   
    47   24   61 1   
    48   24   62 1   
    49   26   27 1   
    50   26   63 1   
    51   26   64 1   
    52   27   31 1   
    53   27   37 1   
    54   27   65 1   
    55   28   33 1   
    56   28   66 1   
    57   29   30 1   
    58   29   67 1   
    59   30   68 1   
    60   31   32 1   
    61   32   69 1   
    62   33   70 1   
    63   34   39 1   
    64   34   71 1   
    65   35   36 1   
    66   35   72 1   
    67   36   73 1   
    68   37   38 1   
    69   38   74 1   
    70   39   75 1   
@<TRIPOS>SUBSTRUCTURE
     1 IH2         1 TEMP              0 ****  ****    0 ROOT
