@<TRIPOS>MOLECULE
IH2
   75    79     1     0     0
SMALL
bcc


@<TRIPOS>ATOM
      1 N9         -0.5520   -1.6040    2.9350 n         1 IH2     -0.552900
      2 C1         -1.5150   -1.0480    3.8460 c3        1 IH2      0.083000
      3 N11         0.8800    1.3750    9.2740 n2        1 IH2     -0.839100
      4 C8         -0.3540    0.9860    9.1760 c2        1 IH2      0.606200
      5 C2         -0.9210   -0.2810    5.0380 c3        1 IH2     -0.094700
      6 C7         -2.0490    0.4350    5.7680 c3        1 IH2     -0.074900
      7 C6         -1.5390    1.1690    6.9910 c3        1 IH2     -0.070900
      8 C5         -0.8140    0.2150    7.9300 c3        1 IH2     -0.100000
      9 C4          0.3330   -0.4650    7.2000 c3        1 IH2     -0.070900
     10 C3         -0.1830   -1.2130    5.9860 c3        1 IH2     -0.074900
     11 C17         3.0830    0.1560    0.1650 c3        1 IH2      0.120200
     12 N18         1.7240    0.2070   -0.3660 n         1 IH2     -0.324400
     13 C20         1.3820    0.9450   -1.5610 c         1 IH2      0.800500
     14 O20         1.9070    1.9980   -1.9440 o         1 IH2     -0.597500
     15 N21         0.2560    0.2850   -2.1380 n         1 IH2     -0.495400
     16 C22        -0.0130   -0.9010   -1.3980 c         1 IH2      0.798500
     17 O22        -0.9020   -1.7330   -1.6070 o         1 IH2     -0.587500
     18 N19         1.0800   -1.0470   -0.4350 n         1 IH2     -0.279400
     19 C13         0.8610   -1.6510    0.8840 c3        1 IH2      0.056900
     20 C14         2.1430   -1.5910    1.6790 c2        1 IH2     -0.190200
     21 C15         3.1580   -0.7710    1.3550 c2        1 IH2     -0.083400
     22 C12        -0.2920   -1.0280    1.7060 c         1 IH2      0.637100
     23 C16         4.4270   -0.7060    2.1100 c3        1 IH2     -0.065900
     24 O12        -0.9950   -0.1110    1.2440 o         1 IH2     -0.587100
     25 C24        -0.6990   -0.1190   -4.4180 c3        1 IH2      0.001900
     26 C28        -3.8710    1.2270   -6.9960 ca        1 IH2     -0.129000
     27 C29        -3.0230    2.1610   -6.4030 ca        1 IH2     -0.128750
     28 C30        -1.9910    1.7400   -5.5650 ca        1 IH2     -0.120500
     29 C25        -1.7960    0.3770   -5.3110 ca        1 IH2     -0.073800
     30 C26        -2.6540   -0.5560   -5.9090 ca        1 IH2     -0.120500
     31 C27        -3.6830   -0.1330   -6.7480 ca        1 IH2     -0.128750
     32 C34         3.0100   -0.6100   -6.5380 ca        1 IH2     -0.129000
     33 C35         2.3940   -1.7030   -5.9300 ca        1 IH2     -0.128750
     34 C36         1.1910   -1.5390   -5.2460 ca        1 IH2     -0.120500
     35 C31         0.5920   -0.2760   -5.1610 ca        1 IH2     -0.073800
     36 C32         1.2140    0.8170   -5.7770 ca        1 IH2     -0.120500
     37 C33         2.4170    0.6500   -6.4600 ca        1 IH2     -0.128750
     38 HN9         0.1370   -2.2000    3.3290 hn        1 IH2      0.302500
     39 H11        -2.1940   -0.3540    3.2720 h1        1 IH2      0.066700
     40 H12        -2.1380   -1.9020    4.2440 h1        1 IH2      0.066700
     41 H101       -1.2350    1.8650   10.8210 hn        1 IH2      0.395300
     42 H102       -2.2970    1.0620    9.8190 hn        1 IH2      0.395300
     43 HN11        1.1280    1.8770   10.1000 hn        1 IH2      0.381400
     44 H2         -0.1970    0.4940    4.6590 hc        1 IH2      0.064700
     45 H71        -2.5370    1.1680    5.0720 hc        1 IH2      0.040700
     46 H72        -2.8280   -0.3120    6.0740 hc        1 IH2      0.040700
     47 H61        -0.8380    1.9860    6.6760 hc        1 IH2      0.053200
     48 H62        -2.4040    1.6480    7.5190 hc        1 IH2      0.053200
     49 H5         -1.5330   -0.5900    8.2590 hc        1 IH2      0.060700
     50 H41         1.0880    0.2970    6.8720 hc        1 IH2      0.053200
     51 H42         0.8500   -1.1780    7.8930 hc        1 IH2      0.053200
     52 H31        -0.8700   -2.0380    6.3110 hc        1 IH2      0.040700
     53 H32A        0.6860   -1.6860    5.4580 hc        1 IH2      0.040700
     54 H171        3.3310    1.2120    0.4720 h1        1 IH2      0.075700
     55 H172        3.8360   -0.1800   -0.6050 h1        1 IH2      0.075700
     56 H13         0.5850   -2.7270    0.6620 h1        1 IH2      0.112700
     57 H14         2.2010   -2.2840    2.5300 ha        1 IH2      0.137000
     58 H161        4.4530   -1.4630    2.9310 hc        1 IH2      0.053367
     59 H162        5.2930   -0.8930    1.4270 hc        1 IH2      0.053367
     60 H163        4.5510    0.3110    2.5620 hc        1 IH2      0.053367
     61 H231       -1.5790    1.0320   -2.7970 h1        1 IH2      0.074200
     62 H232       -0.0660    1.7870   -3.5230 h1        1 IH2      0.074200
     63 H24        -1.0120   -1.1350   -4.0240 hc        1 IH2      0.086700
     64 H29        -3.1670    3.2340   -6.5940 ha        1 IH2      0.131250
     65 H30        -1.3310    2.4910   -5.1060 ha        1 IH2      0.133250
     66 H26        -2.5140   -1.6300   -5.7150 ha        1 IH2      0.133250
     67 H27        -4.3500   -0.8740   -7.2120 ha        1 IH2      0.131250
     68 H34         3.9590   -0.7400   -7.0780 ha        1 IH2      0.130500
     69 H35         2.8570   -2.6990   -5.9910 ha        1 IH2      0.131250
     70 H36         0.7120   -2.4070   -4.7690 ha        1 IH2      0.133250
     71 H32         0.7470    1.8120   -5.7240 ha        1 IH2      0.133250
     72 H33         2.8980    1.5160   -6.9380 ha        1 IH2      0.131250
     73 N10        -1.3650    1.1430   10.1520 nh        1 IH2     -0.961800
     74 C23        -0.5470    0.8180   -3.2000 c3        1 IH2      0.124000
     75 H28        -4.6840    1.5600   -7.6570 ha        1 IH2      0.130500
@<TRIPOS>BOND
     1    1    2 1   
     2    1   22 1   
     3    1   38 1   
     4    2    5 1   
     5    2   39 1   
     6    2   40 1   
     7    3    4 2   
     8    3   43 1   
     9    4    8 1   
    10    4   73 1   
    11    5    6 1   
    12    5   10 1   
    13    5   44 1   
    14    6    7 1   
    15    6   45 1   
    16    6   46 1   
    17    7    8 1   
    18    7   47 1   
    19    7   48 1   
    20    8    9 1   
    21    8   49 1   
    22    9   10 1   
    23    9   50 1   
    24    9   51 1   
    25   10   52 1   
    26   10   53 1   
    27   11   12 1   
    28   11   21 1   
    29   11   54 1   
    30   11   55 1   
    31   12   13 1   
    32   12   18 1   
    33   13   14 2   
    34   13   15 1   
    35   15   16 1   
    36   15   74 1   
    37   16   17 2   
    38   16   18 1   
    39   18   19 1   
    40   19   20 1   
    41   19   22 1   
    42   19   56 1   
    43   20   21 2   
    44   20   57 1   
    45   21   23 1   
    46   22   24 2   
    47   23   58 1   
    48   23   59 1   
    49   23   60 1   
    50   25   29 1   
    51   25   35 1   
    52   25   63 1   
    53   25   74 1   
    54   26   27 ar  
    55   26   31 ar  
    56   26   75 1   
    57   27   28 ar  
    58   27   64 1   
    59   28   29 ar  
    60   28   65 1   
    61   29   30 ar  
    62   30   31 ar  
    63   30   66 1   
    64   31   67 1   
    65   32   33 ar  
    66   32   37 ar  
    67   32   68 1   
    68   33   34 ar  
    69   33   69 1   
    70   34   35 ar  
    71   34   70 1   
    72   35   36 ar  
    73   36   37 ar  
    74   36   71 1   
    75   37   72 1   
    76   41   73 1   
    77   42   73 1   
    78   61   74 1   
    79   62   74 1   
@<TRIPOS>SUBSTRUCTURE
     1 IH2         1 TEMP              0 ****  ****    0 ROOT
