@<TRIPOS>MOLECULE
IH3
   77   104     1     0     0
SMALL
bcc


@<TRIPOS>ATOM
      1 C1          0.0000    0.0000    0.0000 c3        1 IH3     -0.557000
      2 NC          1.3760    0.0000    0.0000 n7        1 IH3     -0.036000
      3 C3          1.7760    0.0000    1.2990 c3        1 IH3      0.242000
      4 NA          0.7070    0.0010    2.0610 n2        1 IH3     -0.130000
      5 C2         -0.3910    0.0060    1.2860 c2        1 IH3      0.049000
      6 NB          3.0870    0.0000    1.7440 n8        1 IH3     -0.189000
      7 N10        -4.2920    0.7220   -3.6910 ny        1 IH3     -0.322000
      8 C7         -3.1160   -0.7200   -2.1040 DU        1 IH3     -0.115000
      9 C8         -3.4190    0.7220   -2.5140 DU        1 IH3      0.592000
     10 C9         -2.1130    1.4420   -2.8490 DU        1 IH3      0.169000
     11 C4         -1.2020    1.4420   -1.6200 DU        1 IH3     -0.198000
     12 C5         -0.8970    0.0010   -1.2110 DU        1 IH3      0.310000
     13 C6         -2.2040   -0.7200   -0.8750 DU        1 IH3      0.504000
     14 N20        -8.3920    4.4940   -4.9170 nx        1 IH3      0.227000
     15 C19        -7.3500    5.0610   -5.5610 c2        1 IH3      0.190000
     16 O19        -7.2920    6.2120   -5.9490 o         1 IH3     -0.302000
     17 N17        -6.3970    4.1420   -5.7000 n         1 IH3     -0.184000
     18 N18        -6.8780    2.9480   -5.1100 n         1 IH3     -0.008000
     19 C21        -8.0980    3.2030   -4.6440 c2        1 IH3      0.192000
     20 O21        -8.8230    2.4130   -4.0710 o         1 IH3     -0.280000
     21 C16        -5.0610    4.1950   -6.3090 c3        1 IH3      0.072000
     22 C14        -4.7800    2.8330   -6.8980 DU        1 IH3     -0.150000
     23 C13        -5.2230    1.7320   -6.3550 c3        1 IH3     -0.265000
     24 C12        -6.0600    1.7330   -5.0950 c3        1 IH3     -0.076000
     25 C11        -5.1630    1.7330   -3.8850 c2        1 IH3      0.527000
     26 O11        -5.2220    2.6420   -3.0860 o         1 IH3     -0.378000
     27 C23       -10.6460    5.0110   -5.7140 DU        1 IH3     -0.117000
     28 C24       -11.9340    5.7070   -5.3550 c2        1 IH3     -0.169000
     29 C25       -11.9100    7.0110   -4.8990 c3        1 IH3      0.009000
     30 C26       -13.0910    7.6500   -4.5700 c2        1 IH3      0.335000
     31 C27       -14.2960    6.9830   -4.6980 c2        1 IH3      0.384000
     32 C28       -14.3190    5.6800   -5.1540 c2        1 IH3      0.210000
     33 C29       -13.1380    5.0430   -5.4870 c2        1 IH3      0.134000
     34 C30       -10.0780    5.6200   -6.9680 c3        1 IH3     -0.441000
     35 C31        -9.9420    4.8540   -8.1100 c3        1 IH3     -0.014000
     36 C32        -9.4210    5.4140   -9.2610 c2        1 IH3      0.232000
     37 C33        -9.0350    6.7400   -9.2700 c2        1 IH3      0.373000
     38 C34        -9.1710    7.5080   -8.1290 c2        1 IH3      0.249000
     39 C35        -9.6970    6.9500   -6.9790 c2        1 IH3      0.167000
     40 HNC         0.8410    0.2630   -0.8040 DU        1 IH3      0.309000
     41 HC2        -1.2150    0.4720    0.7600 h4        1 IH3      0.171000
     42 HNB1        2.6850   -0.0520    0.8290 DU        1 IH3      0.085000
     43 HNB2        2.0870    0.0020    1.7210 hn        1 IH3      0.147000
     44 HN10       -3.5280    0.6680   -3.0460 hn        1 IH3     -0.118500
     45 HC71       -2.1340   -0.6480   -1.6510 DU        1 IH3      0.003000
     46 HC72       -3.5150   -0.3960   -3.0580 DU        1 IH3      0.216000
     47 HC8        -3.0150   -0.2610   -2.7210 DU        1 IH3      0.216000
     48 HC91       -2.7220    0.6010   -2.5390 DU        1 IH3     -0.573000
     49 HC92       -3.0200    1.3380   -2.2650 ha        1 IH3      0.041000
     50 HC41       -1.7690    1.9590   -2.3840 DU        1 IH3      0.091000
     51 HC42       -1.4090    1.1820   -2.6510 DU        1 IH3      0.091000
     52 HC5        -1.3020    0.9840   -1.0030 DU        1 IH3      0.008000
     53 HC61       -1.5960    0.1210   -1.1850 DU        1 IH3     -0.155000
     54 HC62       -1.2980   -0.6160   -1.4590 DU        1 IH3     -0.155000
     55 H161       -4.6830    3.4640   -5.6050 h1        1 IH3      0.152000
     56 H162       -4.7420    3.5990   -5.4630 h1        1 IH3      0.152000
     57 HC13       -4.8910    2.7200   -6.0600 DU        1 IH3     -0.184000
     58 HC12       -5.7790    2.6210   -5.6480 DU        1 IH3      0.098000
     59 H151       -4.3850    1.9180   -7.5980 DU        1 IH3      0.196500
     60 H152       -4.6100    2.2900   -7.4210 DU        1 IH3      0.196500
     61 H153       -4.7750    2.8020   -8.8570 hc        1 IH3      0.028000
     62 HC23       -9.7260    4.5860   -6.0980 ha        1 IH3      0.187000
     63 H221       -8.7640    4.9430   -5.1580 DU        1 IH3      0.107000
     64 H222      -10.2490    4.5660   -5.2330 DU        1 IH3      0.193000
     65 HC25      -10.8970    6.6990   -4.6750 hc        1 IH3      0.212000
     66 HC26      -12.3120    6.9360   -4.3310 DU        1 IH3      0.054000
     67 HC27      -13.2270    7.1600   -4.7300 ha        1 IH3     -0.325000
     68 HC28      -13.9190    6.6410   -4.8520 ha        1 IH3     -0.427000
     69 HC29      -13.8070    5.8260   -5.1500 ha        1 IH3     -0.131000
     70 HC31      -10.8950    4.9070   -7.5960 DU        1 IH3      0.248000
     71 HC32      -10.1920    5.1250   -8.5560 DU        1 IH3     -0.049000
     72 HC33       -9.4300    5.8020   -8.8980 ha        1 IH3     -0.252000
     73 HC34       -9.2170    6.6430   -8.7800 ha        1 IH3     -0.435000
     74 HC35       -9.3450    7.0210   -8.0010 ha        1 IH3     -0.114000
     75 C15        -3.9520    2.7400   -8.1550 c3        1 IH3      0.007000
     76 H102       -5.0620    1.3450   -3.8320 hn        1 IH3     -0.118500
     77 C22        -9.6440    5.1710   -4.5690 c3        1 IH3     -0.415000
@<TRIPOS>BOND
     1    1    2 1   
     2    1    5 1   
     3    1   12 1   
     4    1   40 1   
     5    2    3 1   
     6    2   40 1   
     7    3    4 1   
     8    3    6 1   
     9    3   42 1   
    10    4    5 1   
    11    5   41 1   
    12    6   42 1   
    13    6   43 1   
    14    7    9 1   
    15    7   25 1   
    16    7   44 1   
    17    7   76 1   
    18    8    9 1   
    19    8   13 1   
    20    8   45 1   
    21    8   46 1   
    22    8   47 1   
    23    9   10 1   
    24    9   46 1   
    25    9   47 1   
    26    9   48 1   
    27   10   11 1   
    28   10   48 1   
    29   10   49 1   
    30   10   50 1   
    31   10   51 1   
    32   11   12 1   
    33   11   50 1   
    34   11   51 1   
    35   11   52 1   
    36   12   13 1   
    37   12   52 1   
    38   12   53 1   
    39   12   54 1   
    40   13   45 1   
    41   13   53 1   
    42   13   54 1   
    43   14   15 1   
    44   14   19 1   
    45   14   63 1   
    46   14   77 1   
    47   15   16 1   
    48   15   17 1   
    49   17   18 1   
    50   17   21 1   
    51   18   19 1   
    52   18   24 1   
    53   19   20 1   
    54   21   22 1   
    55   21   55 1   
    56   21   56 1   
    57   22   23 1   
    58   22   57 1   
    59   22   59 1   
    60   22   60 1   
    61   22   75 1   
    62   23   24 1   
    63   23   57 1   
    64   23   58 1   
    65   24   25 1   
    66   24   58 1   
    67   25   26 1   
    68   27   28 1   
    69   27   34 1   
    70   27   62 1   
    71   27   64 1   
    72   27   77 1   
    73   28   29 1   
    74   28   33 1   
    75   29   30 1   
    76   29   65 1   
    77   29   66 1   
    78   30   31 1   
    79   30   66 1   
    80   31   32 1   
    81   31   67 1   
    82   32   33 1   
    83   32   68 1   
    84   33   69 1   
    85   34   35 1   
    86   34   39 1   
    87   34   70 1   
    88   35   36 1   
    89   35   70 1   
    90   35   71 1   
    91   36   37 1   
    92   36   71 1   
    93   37   38 1   
    94   37   72 1   
    95   38   39 1   
    96   38   73 1   
    97   39   74 1   
    98   46   47 1   
    99   59   60 1   
   100   59   75 1   
   101   60   75 1   
   102   61   75 1   
   103   63   77 1   
   104   64   77 1   
@<TRIPOS>SUBSTRUCTURE
     1 IH3         1 TEMP              0 ****  ****    0 ROOT
