@<TRIPOS>MOLECULE
IH3
   76    69     1     0     0
SMALL
bcc


@<TRIPOS>ATOM
      1 C1          0.3580    6.8560   -2.2810 c1        1 IH3     -0.138000
      2 NC          0.2560    8.0570   -1.6580 n2        1 IH3     -0.168000
      3 C3         -1.0340    8.4520   -1.7220 c1        1 IH3     -0.011000
      4 NA         -1.7450    7.4790   -2.3960 n2        1 IH3     -0.168000
      5 C2         -0.8940    6.5060   -2.7370 c1        1 IH3     -0.138000
      6 NB         -1.5630    9.7120   -1.2410 n2        1 IH3     -0.274000
      7 N10         0.8560    3.1490    0.3430 n         1 IH3     -0.372000
      8 C7          1.9060    5.2370   -0.2220 c3        1 IH3     -0.173500
      9 C8          1.5660    3.8370   -0.6990 c3        1 IH3      0.025000
     10 C9          0.7020    3.8470   -1.9640 c3        1 IH3     -0.173500
     11 C4          1.2960    4.7070   -3.0660 c3        1 IH3     -0.147500
     12 C5          1.6440    6.1200   -2.5830 c2        1 IH3     -0.037000
     13 C6          2.5010    6.1100   -1.3400 c3        1 IH3     -0.147500
     14 N20         0.0280   -2.5200    0.3690 n2        1 IH3     -0.323000
     15 C19         0.7820   -2.6580    1.5040 c2        1 IH3      0.391500
     16 O19         1.2060   -3.7220    1.9700 o         1 IH3     -0.320000
     17 N17         0.8960   -1.4310    2.0860 n2        1 IH3     -0.196000
     18 N18         0.2110   -0.5270    1.3110 n2        1 IH3     -0.196000
     19 C21        -0.3240   -1.2010    0.2510 c2        1 IH3      0.391500
     20 O21        -0.8980   -0.6950   -0.7020 o         1 IH3     -0.320000
     21 C16         0.8910   -1.3000    3.5550 c2        1 IH3      0.001000
     22 C14         0.8220    0.1220    4.0370 c2        1 IH3     -0.077000
     23 C13         0.6950    1.2270    3.0610 c1        1 IH3     -0.182000
     24 C12         0.2550    0.9330    1.6480 c1        1 IH3      0.026000
     25 C15         0.8190    0.4190    5.5300 c3        1 IH3     -0.188000
     26 C11         1.1310    1.7320    0.6010 c2        1 IH3      0.290000
     27 O11         1.9740    1.1330   -0.0800 o         1 IH3     -0.354000
     28 C23        -0.6350   -4.8840    0.2630 c3        1 IH3     -0.050000
     29 C22        -0.3290   -3.5760   -0.5450 c2        1 IH3      0.008000
     30 C24        -2.1870   -5.1740    0.2300 c2        1 IH3     -0.071500
     31 C25        -2.8270   -5.6290    1.3590 c2        1 IH3     -0.119500
     32 C26        -4.1860   -5.9060    1.3200 c1        1 IH3     -0.130000
     33 C27        -4.8930   -5.7240    0.1520 c1        1 IH3     -0.129250
     34 C28        -4.2520   -5.2700   -0.9730 c1        1 IH3     -0.129250
     35 C29        -2.8940   -4.9940   -0.9350 c1        1 IH3     -0.125000
     36 C30         0.1150   -6.0600   -0.3670 c2        1 IH3     -0.071500
     37 C31        -0.0970   -6.3800   -1.6940 c2        1 IH3     -0.119500
     38 C32         0.6100   -7.4280   -2.2820 c1        1 IH3     -0.130000
     39 C33         1.5440   -8.1650   -1.5210 c1        1 IH3     -0.129250
     40 C34         1.7560   -7.8460   -0.1980 c1        1 IH3     -0.129250
     41 C35         1.0430   -6.7910    0.3920 c1        1 IH3     -0.125000
     42 HNC         0.9280    8.5100   -1.2700 DU        1 IH3      0.217500
     43 HC2        -1.1190    5.6950   -3.2200 DU        1 IH3      0.217500
     44 HNB1       -1.0020   10.3230   -0.8320 hn        1 IH3      0.175000
     45 HNB2       -2.4670    9.9150   -1.3600 hn        1 IH3      0.175000
     46 HN10        0.2970    3.6040    0.8820 hn        1 IH3      0.221000
     47 HC71        2.5470    5.1760    0.5050 hc        1 IH3      0.090750
     48 HC72        1.0930    5.6610    0.1090 hc        1 IH3      0.090750
     49 HC8         2.4120    3.3470   -0.8900 h1        1 IH3      0.130000
     50 HC91        0.6040    2.9010   -2.3040 hc        1 IH3      0.090750
     51 HC92       -0.1790    4.1920   -1.7380 hc        1 IH3      0.090750
     52 HC41        2.1180    4.2730   -3.4020 hc        1 IH3      0.087000
     53 HC42        0.6440    4.7730   -3.8080 hc        1 IH3      0.087000
     54 HC5         2.1180    6.5900   -3.2920 ha        1 IH3      0.097000
     55 HC61        3.3790    5.7700   -1.5700 hc        1 IH3      0.087000
     56 HC62        2.5950    7.0510   -1.0030 hc        1 IH3      0.087000
     57 H161        0.2500   -1.9560    3.9180 ha        1 IH3      0.114500
     58 H162        1.7410   -1.6550    3.9450 ha        1 IH3      0.114500
     59 HC13        0.8440    2.1520    3.3460 ha        1 IH3      0.138000
     60 HC12       -0.6540    1.3460    1.4840 ha        1 IH3      0.151000
     61 H151        0.6940   -0.4120    6.0250 hc        1 IH3      0.092000
     62 H152        1.6960    0.8340    5.7910 hc        1 IH3      0.092000
     63 H153        0.0730    1.0490    5.7440 hc        1 IH3      0.092000
     64 HC23       -0.3450   -4.7710    1.1830 hc        1 IH3      0.120000
     65 H221       -1.1290   -3.3100   -1.0590 ha        1 IH3      0.114500
     66 H222        0.4160   -3.7390   -1.1630 ha        1 IH3      0.114500
     67 HC25       -2.3200   -5.7590    2.1940 ha        1 IH3      0.136000
     68 HC26       -4.6450   -6.2310    2.1270 ha        1 IH3      0.131000
     69 HC27       -5.8630   -5.9220    0.1240 ha        1 IH3      0.131500
     70 HC28       -4.7620   -5.1390   -1.8170 ha        1 IH3      0.131500
     71 HC29       -2.4360   -4.6700   -1.7420 ha        1 IH3      0.140500
     72 HC31       -0.7500   -5.8660   -2.2260 ha        1 IH3      0.136000
     73 HC32        0.4580   -7.6520   -3.2220 ha        1 IH3      0.131000
     74 HC33        2.0450   -8.9090   -1.9380 ha        1 IH3      0.131500
     75 HC34        2.4160   -8.3660    0.3410 ha        1 IH3      0.131500
     76 HC35        1.1980   -6.5570    1.3600 ha        1 IH3      0.140500
@<TRIPOS>BOND
     1    1    2 1   
     2    1    5 1   
     3    2    3 1   
     4    3    4 1   
     5    4    5 1   
     6    6   44 1   
     7    6   45 1   
     8    7    9 1   
     9    7   26 1   
    10    7   46 1   
    11    8    9 1   
    12    8   13 1   
    13    8   47 1   
    14    8   48 1   
    15    9   10 1   
    16    9   49 1   
    17   10   11 1   
    18   10   50 1   
    19   10   51 1   
    20   11   12 1   
    21   11   52 1   
    22   11   53 1   
    23   12   13 1   
    24   12   54 1   
    25   13   55 1   
    26   13   56 1   
    27   14   15 1   
    28   14   19 1   
    29   15   16 1   
    30   15   17 1   
    31   17   18 1   
    32   18   19 1   
    33   19   20 1   
    34   21   22 1   
    35   21   57 1   
    36   21   58 1   
    37   22   23 1   
    38   22   25 1   
    39   23   59 1   
    40   24   26 1   
    41   24   60 1   
    42   25   61 1   
    43   25   62 1   
    44   25   63 1   
    45   26   27 1   
    46   28   29 1   
    47   28   30 1   
    48   28   36 1   
    49   28   64 1   
    50   29   65 1   
    51   29   66 1   
    52   30   31 1   
    53   30   35 1   
    54   31   32 1   
    55   31   67 1   
    56   32   68 1   
    57   33   34 1   
    58   33   69 1   
    59   34   70 1   
    60   35   71 1   
    61   36   37 1   
    62   36   41 1   
    63   37   38 1   
    64   37   72 1   
    65   38   73 1   
    66   39   40 1   
    67   39   74 1   
    68   40   75 1   
    69   41   76 1   
@<TRIPOS>SUBSTRUCTURE
     1 IH3         1 TEMP              0 ****  ****    0 ROOT
