@<TRIPOS>MOLECULE
IH3
   76    81     1     0     0
SMALL
bcc


@<TRIPOS>ATOM
      1 C1         -1.5950   -0.1520    7.5500 cc        1 IH3     -0.210900
      2 NC         -1.2170    0.5640    8.6860 na        1 IH3     -0.286900
      3 C3         -2.3910    0.7990    9.4390 cc        1 IH3      0.533400
      4 NA         -3.4790    0.2500    8.8090 nd        1 IH3     -0.684000
      5 C2         -2.9940   -0.3330    7.6520 cd        1 IH3      0.303200
      6 NB         -2.3330    1.5140   10.6690 nh        1 IH3     -0.877500
      7 N10         1.1490   -1.1250    2.6250 n         1 IH3     -0.566900
      8 C7         -0.4170   -1.9050    4.3740 c3        1 IH3     -0.092900
      9 C8          0.2820   -0.7080    3.7050 c3        1 IH3      0.098700
     10 C9          1.0320    0.0950    4.7830 c3        1 IH3     -0.092900
     11 C4          0.0740    0.5670    5.8560 c3        1 IH3     -0.072400
     12 C5         -0.6470   -0.6100    6.5060 c3        1 IH3      0.009600
     13 C6         -1.3740   -1.4250    5.4440 c3        1 IH3     -0.072400
     14 N20         0.5780    0.5040   -2.5630 n         1 IH3     -0.494400
     15 C19         1.7240    1.3100   -2.2950 c         1 IH3      0.800500
     16 O19         2.0270    2.3810   -2.8380 o         1 IH3     -0.596500
     17 N17         2.4100    0.6950   -1.1820 n         1 IH3     -0.324400
     18 N18         1.9130   -0.6180   -1.0420 n         1 IH3     -0.279400
     19 C21         0.6200   -0.6480   -1.7280 c         1 IH3      0.798500
     20 O21        -0.1950   -1.5760   -1.6830 o         1 IH3     -0.588500
     21 C16         3.8500    0.8170   -0.9790 c3        1 IH3      0.121200
     22 C14         4.2940   -0.0050    0.2070 c2        1 IH3     -0.085400
     23 C13         3.4780   -0.8970    0.7950 c2        1 IH3     -0.186200
     24 C12         2.0700   -1.1500    0.3160 c3        1 IH3      0.057900
     25 C11         1.0600   -0.6020    1.3550 c         1 IH3      0.647100
     26 O11         0.1930    0.2330    1.0400 o         1 IH3     -0.590100
     27 C23        -0.8250   -0.1470   -4.5330 c3        1 IH3      0.001900
     28 C22        -0.5020    0.8810   -3.4280 c3        1 IH3      0.124000
     29 C24        -2.1460    0.1760   -5.1630 ca        1 IH3     -0.074300
     30 C25        -2.5460    1.4920   -5.4220 ca        1 IH3     -0.120500
     31 C26        -3.7840    1.7510   -6.0090 ca        1 IH3     -0.128750
     32 C27        -4.6350    0.6990   -6.3450 ca        1 IH3     -0.128500
     33 C28        -4.2440   -0.6150   -6.0900 ca        1 IH3     -0.128750
     34 C29        -3.0090   -0.8760   -5.5010 ca        1 IH3     -0.120500
     35 C30         0.2690   -0.2260   -5.5530 ca        1 IH3     -0.074300
     36 C31         0.9710   -1.4260   -5.7220 ca        1 IH3     -0.120500
     37 C32         1.9940   -1.5170   -6.6640 ca        1 IH3     -0.128750
     38 C33         2.3280   -0.4120   -7.4460 ca        1 IH3     -0.128500
     39 C34         1.6320    0.7860   -7.2840 ca        1 IH3     -0.128750
     40 C35         0.6070    0.8780   -6.3440 ca        1 IH3     -0.120500
     41 HNC        -0.3060    0.8630    8.9150 hn        1 IH3      0.306700
     42 HC2        -3.6530   -0.8480    6.9530 h4        1 IH3      0.042100
     43 HNB1       -2.7180    0.9470   11.4030 hn        1 IH3      0.379800
     44 HNB2       -2.8630    2.3620   10.5870 hn        1 IH3      0.379800
     45 HN10        1.8870   -1.7460    2.8500 hn        1 IH3      0.306500
     46 HC71       -0.9870   -2.4900    3.6060 hc        1 IH3      0.047200
     47 HC72        0.3470   -2.5890    4.8280 hc        1 IH3      0.047200
     48 HC8        -0.5160   -0.0360    3.2600 h1        1 IH3      0.096700
     49 HC91        1.8330   -0.5410    5.2440 hc        1 IH3      0.047200
     50 HC92        1.5290    0.9850    4.3160 hc        1 IH3      0.047200
     51 HC41       -0.6810    1.2660    5.4090 hc        1 IH3      0.051950
     52 HC42        0.6460    1.1380    6.6320 hc        1 IH3      0.051950
     53 HC5         0.1280   -1.2750    6.9910 hc        1 IH3      0.054700
     54 HC61       -2.1800   -0.7990    4.9780 hc        1 IH3      0.051950
     55 HC62       -1.8680   -2.3090    5.9250 hc        1 IH3      0.051950
     56 H161        4.0410    1.9130   -0.7920 h1        1 IH3      0.075700
     57 H162        4.4440    0.4990   -1.8840 h1        1 IH3      0.075700
     58 HC13        3.8000   -1.5100    1.6490 ha        1 IH3      0.136000
     59 HC12        1.8850   -2.2620    0.2070 h1        1 IH3      0.109700
     60 H151        5.9750   -0.4370    1.4840 hc        1 IH3      0.052367
     61 H152        6.3920    0.0920   -0.2010 hc        1 IH3      0.052367
     62 H153        5.7850    1.3030    1.0050 hc        1 IH3      0.052367
     63 HC23       -0.9230   -1.1600   -4.0330 hc        1 IH3      0.085700
     64 H221       -1.4310    1.0200   -2.8020 h1        1 IH3      0.074200
     65 H222       -0.2200    1.8680   -3.8960 h1        1 IH3      0.074200
     66 HC25       -1.8870    2.3340   -5.1630 ha        1 IH3      0.133250
     67 HC26       -4.0880    2.7890   -6.2060 ha        1 IH3      0.131500
     68 HC27       -5.6110    0.9050   -6.8080 ha        1 IH3      0.130500
     69 HC28       -4.9120   -1.4490   -6.3520 ha        1 IH3      0.131500
     70 HC29       -2.7080   -1.9150   -5.3000 ha        1 IH3      0.133250
     71 HC31        0.7140   -2.3040   -5.1090 ha        1 IH3      0.133250
     72 HC32        2.5390   -2.4640   -6.7890 ha        1 IH3      0.131500
     73 HC33        3.1350   -0.4840   -8.1880 ha        1 IH3      0.130500
     74 HC34        1.8900    1.6600   -7.8990 ha        1 IH3      0.131500
     75 HC35        0.0560    1.8240   -6.2260 ha        1 IH3      0.133250
     76 C15         5.6820    0.2460    0.6500 c3        1 IH3     -0.065900
@<TRIPOS>BOND
     1    1    2 1   
     2    1    5 2   
     3    1   12 1   
     4    2    3 1   
     5    2   41 1   
     6    3    4 2   
     7    3    6 1   
     8    4    5 1   
     9    5   42 1   
    10    6   43 1   
    11    6   44 1   
    12    7    9 1   
    13    7   25 1   
    14    7   45 1   
    15    8    9 1   
    16    8   13 1   
    17    8   46 1   
    18    8   47 1   
    19    9   10 1   
    20    9   48 1   
    21   10   11 1   
    22   10   49 1   
    23   10   50 1   
    24   11   12 1   
    25   11   51 1   
    26   11   52 1   
    27   12   13 1   
    28   12   53 1   
    29   13   54 1   
    30   13   55 1   
    31   14   15 1   
    32   14   19 1   
    33   14   28 1   
    34   15   16 2   
    35   15   17 1   
    36   17   18 1   
    37   17   21 1   
    38   18   19 1   
    39   18   24 1   
    40   19   20 2   
    41   21   22 1   
    42   21   56 1   
    43   21   57 1   
    44   22   23 2   
    45   22   76 1   
    46   23   24 1   
    47   23   58 1   
    48   24   25 1   
    49   24   59 1   
    50   25   26 2   
    51   27   28 1   
    52   27   29 1   
    53   27   35 1   
    54   27   63 1   
    55   28   64 1   
    56   28   65 1   
    57   29   30 ar  
    58   29   34 ar  
    59   30   31 ar  
    60   30   66 1   
    61   31   32 ar  
    62   31   67 1   
    63   32   33 ar  
    64   32   68 1   
    65   33   34 ar  
    66   33   69 1   
    67   34   70 1   
    68   35   36 ar  
    69   35   40 ar  
    70   36   37 ar  
    71   36   71 1   
    72   37   38 ar  
    73   37   72 1   
    74   38   39 ar  
    75   38   73 1   
    76   39   40 ar  
    77   39   74 1   
    78   40   75 1   
    79   60   76 1   
    80   61   76 1   
    81   62   76 1   
@<TRIPOS>SUBSTRUCTURE
     1 IH3         1 TEMP              0 ****  ****    0 ROOT
