@<TRIPOS>MOLECULE
IH4
   88    80     1     0     0
SMALL
bcc


@<TRIPOS>ATOM
      1 O27         3.6430    3.2780    7.3990 o         1 IH4     -0.353000
      2 C26         4.8420    3.3630    7.5900 c1        1 IH4      0.306000
      3 O28         5.3270    3.8540    8.8230 o         1 IH4     -0.277000
      4 C29         4.3620    4.5980    9.5690 c3        1 IH4     -0.065000
      5 C25         5.8180    2.8740    6.5250 c3        1 IH4     -0.116000
      6 C24         5.0390    2.3700    5.3210 c2        1 IH4     -0.082000
      7 C30         4.4130    1.0980    5.3640 c1        1 IH4     -0.115000
      8 C31         3.7510    0.6150    4.2510 c1        1 IH4     -0.116000
      9 C23         4.9870    3.1250    4.1650 c2        1 IH4     -0.118000
     10 C22         4.3120    2.6300    3.0330 c1        1 IH4     -0.121000
     11 C21         3.6980    1.3800    3.0790 c1        1 IH4     -0.035000
     12 C20         2.9830    0.8880    1.9330 c1        1 IH4     -0.035000
     13 C32         1.5960    0.8470    1.9460 c1        1 IH4     -0.118500
     14 C33         0.9070    0.3400    0.8560 c1        1 IH4     -0.118500
     15 C19         3.6750    0.4240    0.8350 c1        1 IH4     -0.116000
     16 C18         2.9850   -0.0820   -0.2530 c1        1 IH4     -0.130000
     17 C17         1.5960   -0.1220   -0.2390 c1        1 IH4     -0.094000
     18 C16         0.8240   -0.5480   -1.5080 c3        1 IH4      0.015000
     19 N3         -0.2120   -1.4980   -1.1490 n         1 IH4     -0.331000
     20 C2         -1.5290   -1.0240   -0.7650 c2        1 IH4      0.349000
     21 C34        -1.9620    0.4610   -1.1010 c2        1 IH4     -0.124000
     22 C35        -1.0230    1.3690   -1.5830 c2        1 IH4     -0.101000
     23 C36        -1.4190    2.6470   -1.9460 c1        1 IH4     -0.135000
     24 C37        -2.7690    3.0270   -1.8280 c1        1 IH4     -0.049000
     25 C43        -3.7020    2.1220   -1.3480 c1        1 IH4     -0.136000
     26 C44        -3.3030    0.8380   -0.9830 c1        1 IH4     -0.084000
     27 C38        -3.2370    4.3650   -2.4120 c3        1 IH4     -0.128000
     28 C39        -3.9000    4.1270   -3.7780 c3        1 IH4     -0.155000
     29 C40        -4.0190    5.4850   -4.5410 c3        1 IH4     -0.159000
     30 C41        -4.4030    5.2180   -6.0130 c3        1 IH4     -0.158000
     31 C42        -4.2920    6.5320   -6.8180 c3        1 IH4     -0.211000
     32 O1         -2.3460   -1.8040   -0.3440 o         1 IH4     -0.359000
     33 C4          0.1200   -2.9580   -1.0180 c3        1 IH4      0.039000
     34 C5         -0.8890   -3.6000   -0.1130 c3        1 IH4     -0.176000
     35 C6         -0.7440   -5.0930   -0.0560 c3        1 IH4     -0.064000
     36 N7         -0.7110   -5.7050   -1.3870 n3        1 IH4     -0.274000
     37 C14         0.2770   -5.0940   -2.2660 c3        1 IH4     -0.064000
     38 C15         0.1380   -3.5580   -2.3270 c3        1 IH4     -0.176000
     39 C8         -0.4420   -7.1290   -1.2600 c3        1 IH4      0.004000
     40 C9         -1.7580   -7.9140   -1.3840 c2        1 IH4     -0.063000
     41 N10        -1.8740   -9.1910   -1.7870 n2        1 IH4     -0.162000
     42 C11        -3.1440   -9.5710   -1.5980 c1        1 IH4     -0.176500
     43 C12        -3.8290   -8.5080   -1.0680 c1        1 IH4     -0.176500
     44 N13        -2.9820   -7.5000   -0.9390 n2        1 IH4     -0.162000
     45 H291        4.7950    5.0030   10.3560 h1        1 IH4      0.091000
     46 H292        3.9850    5.3070    9.0020 h1        1 IH4      0.091000
     47 H293        3.6410    3.9960    9.8650 h1        1 IH4      0.091000
     48 H251        6.3630    2.1430    6.8920 hc        1 IH4      0.125000
     49 H252        6.3980    3.6070    6.2540 hc        1 IH4      0.125000
     50 H30         4.4490    0.5600    6.1860 ha        1 IH4      0.158000
     51 H31         3.3190   -0.2640    4.2830 ha        1 IH4      0.138500
     52 H23         5.4230    4.0140    4.1340 ha        1 IH4      0.134000
     53 H22         4.2750    3.1600    2.2190 ha        1 IH4      0.136000
     54 H32         1.0950    1.1820    2.7430 ha        1 IH4      0.140000
     55 H33        -0.0720    0.3120    0.8660 ha        1 IH4      0.140000
     56 H19         4.6780    0.4530    0.8240 ha        1 IH4      0.138500
     57 H18         3.4780   -0.4130   -1.0380 ha        1 IH4      0.133000
     58 H161        0.4170    0.2370   -1.9190 h1        1 IH4      0.100500
     59 H162        1.4460   -0.9660   -2.1460 h1        1 IH4      0.100500
     60 H35        -0.1030    1.1110   -1.6640 ha        1 IH4      0.143000
     61 H36        -0.7530    3.2920   -2.2890 ha        1 IH4      0.138000
     62 H43        -4.6390    2.3850   -1.2650 ha        1 IH4      0.138000
     63 H44        -3.9650    0.1970   -0.6440 ha        1 IH4      0.148000
     64 H381       -2.4680    4.9580   -2.5220 hc        1 IH4      0.091000
     65 H382       -3.8740    4.7730   -1.8110 hc        1 IH4      0.091000
     66 H391       -4.7740    3.7540   -3.6490 hc        1 IH4      0.083000
     67 H392       -3.3520    3.5040   -4.3040 hc        1 IH4      0.083000
     68 H401       -4.7170    6.0450   -4.1140 hc        1 IH4      0.080000
     69 H402       -3.1570    5.9560   -4.5070 hc        1 IH4      0.080000
     70 H411       -5.3170    4.8890   -6.0540 hc        1 IH4      0.078500
     71 H412       -3.7900    4.5410   -6.3980 hc        1 IH4      0.078500
     72 H421       -4.5070    6.3550   -7.7800 hc        1 IH4      0.072667
     73 H422       -4.9340    7.2000   -6.4520 hc        1 IH4      0.072667
     74 H423       -3.3670    6.8870   -6.7460 hc        1 IH4      0.072667
     75 H4          1.0290   -3.0500   -0.6080 h1        1 IH4      0.095000
     76 H5C1       -0.7810   -3.2350    0.7940 hc        1 IH4      0.104500
     77 H5C2       -1.7840   -3.3830   -0.4360 hc        1 IH4      0.104500
     78 H6C1       -1.5140   -5.4710    0.4530 h1        1 IH4      0.074500
     79 H6C2        0.0880   -5.3120    0.4160 h1        1 IH4      0.074500
     80 H141        0.1720   -5.4500   -3.1470 h1        1 IH4      0.074500
     81 H142        1.1570   -5.3150   -1.9440 h1        1 IH4      0.074500
     82 H151        0.8910   -3.1870   -2.8360 hc        1 IH4      0.104500
     83 H152       -0.6700   -3.3410   -2.7720 hc        1 IH4      0.104500
     84 H8C1        0.1670   -7.4060   -1.9620 h1        1 IH4      0.099500
     85 H8C2       -0.0350   -7.3090   -0.3820 h1        1 IH4      0.099500
     86 H10        -1.1800   -9.7280   -2.1410 DU        1 IH4      0.205333
     87 H11        -3.5250  -10.4730   -1.8070 DU        1 IH4      0.205333
     88 H12        -4.7900   -8.4980   -0.8230 DU        1 IH4      0.205333
@<TRIPOS>BOND
     1    1    2 1   
     2    2    5 1   
     3    3    4 1   
     4    4   45 1   
     5    4   46 1   
     6    4   47 1   
     7    5    6 1   
     8    5   48 1   
     9    5   49 1   
    10    6    7 1   
    11    6    9 1   
    12    7   50 1   
    13    8   11 1   
    14    8   51 1   
    15    9   10 1   
    16    9   52 1   
    17   10   53 1   
    18   12   15 1   
    19   13   14 1   
    20   13   54 1   
    21   14   55 1   
    22   15   56 1   
    23   16   17 1   
    24   16   57 1   
    25   17   18 1   
    26   18   19 1   
    27   18   58 1   
    28   18   59 1   
    29   19   20 1   
    30   19   33 1   
    31   20   21 1   
    32   20   32 1   
    33   21   22 1   
    34   21   26 1   
    35   22   23 1   
    36   22   60 1   
    37   23   61 1   
    38   24   25 1   
    39   24   27 1   
    40   25   62 1   
    41   26   63 1   
    42   27   28 1   
    43   27   64 1   
    44   27   65 1   
    45   28   29 1   
    46   28   66 1   
    47   28   67 1   
    48   29   30 1   
    49   29   68 1   
    50   29   69 1   
    51   30   31 1   
    52   30   70 1   
    53   30   71 1   
    54   31   72 1   
    55   31   73 1   
    56   31   74 1   
    57   33   34 1   
    58   33   38 1   
    59   33   75 1   
    60   34   35 1   
    61   34   76 1   
    62   34   77 1   
    63   35   36 1   
    64   35   78 1   
    65   35   79 1   
    66   36   37 1   
    67   36   39 1   
    68   37   38 1   
    69   37   80 1   
    70   37   81 1   
    71   38   82 1   
    72   38   83 1   
    73   39   40 1   
    74   39   84 1   
    75   39   85 1   
    76   40   41 1   
    77   40   44 1   
    78   41   42 1   
    79   42   43 1   
    80   43   44 1   
@<TRIPOS>SUBSTRUCTURE
     1 IH4         1 TEMP              0 ****  ****    0 ROOT
