@<TRIPOS>MOLECULE
IH4
   89    93     1     0     0
SMALL
bcc


@<TRIPOS>ATOM
      1 O27         2.4460    0.0660    0.1570 o         1 IH4     -0.542000
      2 C26         2.3460    1.2920    0.0820 c         1 IH4      0.634100
      3 O28         2.2180    2.0080    1.2380 os        1 IH4     -0.433900
      4 C29         2.2200    1.2660    2.4600 c3        1 IH4      0.124700
      5 C25         2.3780    2.1680   -1.1370 c3        1 IH4     -0.090100
      6 C24         1.3340    1.8010   -2.1310 ca        1 IH4     -0.062300
      7 C30         0.5280    2.7980   -2.6950 ca        1 IH4     -0.116000
      8 C31        -0.4290    2.4710   -3.6520 ca        1 IH4     -0.106500
      9 C23         1.1690    0.4720   -2.5400 ca        1 IH4     -0.116000
     10 C22         0.2160    0.1450   -3.5000 ca        1 IH4     -0.106500
     11 C21        -0.5930    1.1420   -4.0660 cp        1 IH4     -0.075000
     12 C20        -1.5950    0.7970   -5.0700 cp        1 IH4      0.031000
     13 C32        -1.3170   -0.1700   -6.0510 ca        1 IH4     -0.118500
     14 C33        -2.2720   -0.5010   -7.0050 ca        1 IH4     -0.098000
     15 C19        -2.8510    1.4240   -5.0700 ca        1 IH4     -0.118500
     16 C18        -3.8090    1.0900   -6.0240 ca        1 IH4     -0.098000
     17 C17        -3.5240    0.1270   -6.9980 ca        1 IH4     -0.188300
     18 C16        -4.5340   -0.1990   -8.0450 c3        1 IH4      0.178100
     19 N3         -5.1530   -1.5550   -7.8230 n4        1 IH4     -0.597200
     20 C2         -6.5660   -1.4420   -7.2800 c         1 IH4      0.574700
     21 C34        -7.6300   -0.8170   -8.0650 ca        1 IH4     -0.205600
     22 C35        -7.4570   -0.1720   -9.3000 ca        1 IH4     -0.062500
     23 C36        -8.5460    0.3850   -9.9570 ca        1 IH4     -0.136500
     24 C37        -9.8350    0.3130   -9.4020 ca        1 IH4      0.013700
     25 C43       -10.0070   -0.3250   -8.1680 ca        1 IH4     -0.136500
     26 C44        -8.9210   -0.8830   -7.5030 ca        1 IH4     -0.062500
     27 C38       -10.9910    0.9190  -10.1150 c3        1 IH4     -0.062100
     28 C39       -11.3480    0.1440  -11.3710 c3        1 IH4     -0.074400
     29 C40       -12.4990    0.8030  -12.1010 c3        1 IH4     -0.081400
     30 C41       -12.8640    0.0340  -13.3520 c3        1 IH4     -0.079400
     31 C42       -14.0090    0.6860  -14.0830 c3        1 IH4     -0.095100
     32 O1         -6.6870   -1.9230   -6.1540 o         1 IH4     -0.455100
     33 C4         -5.0990   -2.4590   -9.0340 c3        1 IH4      0.128500
     34 C5         -3.6590   -2.8330   -9.4050 c3        1 IH4     -0.101400
     35 C6         -3.6670   -3.7360  -10.6410 c3        1 IH4      0.165300
     36 N7         -4.4730   -4.9340  -10.4590 n3        1 IH4     -0.737600
     37 C14        -5.8370   -4.6200  -10.0550 c3        1 IH4      0.165300
     38 C15        -5.8960   -3.7490   -8.8000 c3        1 IH4     -0.101400
     39 C8         -4.4160   -5.8000  -11.6360 c3        1 IH4      0.147500
     40 C9         -5.1400   -7.0970  -11.4310 cc        1 IH4      0.354800
     41 N10        -4.6620   -8.1170  -10.5920 na        1 IH4     -0.295900
     42 C11        -5.5640   -9.1710  -10.6810 cc        1 IH4     -0.242600
     43 C12        -6.5730   -8.7510  -11.5740 cd        1 IH4      0.293200
     44 N13        -6.3040   -7.4670  -12.0290 nd        1 IH4     -0.656000
     45 H291        1.3580    0.5570    2.4740 h1        1 IH4      0.056033
     46 H292        2.1180    2.0540    3.2460 h1        1 IH4      0.056033
     47 H293        3.1800    0.7050    2.5620 h1        1 IH4      0.056033
     48 H251        2.2680    3.2410   -0.8230 hc        1 IH4      0.093200
     49 H252        3.3960    2.0470   -1.6040 hc        1 IH4      0.093200
     50 H30         0.6470    3.8460   -2.3800 ha        1 IH4      0.157500
     51 H31        -1.0510    3.2650   -4.0930 ha        1 IH4      0.136500
     52 H23         1.7890   -0.3180   -2.0820 ha        1 IH4      0.157500
     53 H22         0.0900   -0.9050   -3.8050 ha        1 IH4      0.136500
     54 H32        -0.3300   -0.6610   -6.0670 ha        1 IH4      0.158000
     55 H33        -2.0340   -1.2500   -7.7760 ha        1 IH4      0.135500
     56 H19        -3.0830    2.1810   -4.3040 ha        1 IH4      0.158000
     57 H18        -4.7880    1.5940   -6.0080 ha        1 IH4      0.135500
     58 H161       -5.3590    0.5720   -8.0370 hx        1 IH4      0.101700
     59 H162       -4.0530   -0.1890   -9.0650 hx        1 IH4      0.101700
     60 H35        -6.4660   -0.0810   -9.7710 ha        1 IH4      0.149000
     61 H36        -8.4030    0.8900  -10.9260 ha        1 IH4      0.164000
     62 H43       -11.0110   -0.3870   -7.7160 ha        1 IH4      0.164000
     63 H44        -9.0670   -1.3830   -6.5290 ha        1 IH4      0.149000
     64 H381      -11.8860    0.9590   -9.4370 hc        1 IH4      0.069200
     65 H382      -10.7360    1.9790  -10.3920 hc        1 IH4      0.069200
     66 H391      -10.4530    0.0890  -12.0460 hc        1 IH4      0.045700
     67 H392      -11.6270   -0.9080  -11.1000 hc        1 IH4      0.045700
     68 H401      -13.3910    0.8630  -11.4220 hc        1 IH4      0.046200
     69 H402      -12.2200    1.8550  -12.3740 hc        1 IH4      0.046200
     70 H411      -11.9710   -0.0270  -14.0290 hc        1 IH4      0.040200
     71 H412      -13.1430   -1.0180  -13.0770 hc        1 IH4      0.040200
     72 H421      -14.9170    0.7330  -13.4340 hc        1 IH4      0.039033
     73 H422      -14.2620    0.1040  -15.0020 hc        1 IH4      0.039033
     74 H423      -13.7420    1.7270  -14.3880 hc        1 IH4      0.039033
     75 H4         -5.5660   -1.8890   -9.8910 hx        1 IH4      0.098700
     76 H5C1       -3.1650   -3.3660   -8.5510 hc        1 IH4      0.071700
     77 H5C2       -3.0530   -1.9230   -9.6500 hc        1 IH4      0.071700
     78 H6C1       -4.0120   -3.1240  -11.5280 h1        1 IH4      0.059950
     79 H6C2       -2.6060   -4.0600  -10.8410 h1        1 IH4      0.059950
     80 H141       -6.4100   -4.1020  -10.8800 h1        1 IH4      0.059950
     81 H142       -6.3630   -5.5920   -9.8320 h1        1 IH4      0.059950
     82 H151       -5.4780   -4.3110   -7.9250 hc        1 IH4      0.071700
     83 H152       -6.9730   -3.5190   -8.5890 hc        1 IH4      0.071700
     84 H8C1       -3.3270   -6.0180  -11.8400 h1        1 IH4      0.066700
     85 H8C2       -4.8470   -5.2930  -12.5500 h1        1 IH4      0.066700
     86 H10        -3.8400   -8.0860  -10.0490 hn        1 IH4      0.306700
     87 H11        -5.4340  -10.1040  -10.1360 h4        1 IH4      0.187000
     88 H12        -7.4530   -9.3020  -11.9060 h4        1 IH4      0.052100
     89 H311       -4.5980   -2.0260   -7.0840 hn        1 IH4      0.460800
@<TRIPOS>BOND
     1    1    2 2   
     2    2    3 1   
     3    2    5 1   
     4    3    4 1   
     5    4   45 1   
     6    4   46 1   
     7    4   47 1   
     8    5    6 1   
     9    5   48 1   
    10    5   49 1   
    11    6    7 ar  
    12    6    9 ar  
    13    7    8 ar  
    14    7   50 1   
    15    8   11 ar  
    16    8   51 1   
    17    9   10 ar  
    18    9   52 1   
    19   10   11 ar  
    20   10   53 1   
    21   11   12 1   
    22   12   13 ar  
    23   12   15 ar  
    24   13   14 ar  
    25   13   54 1   
    26   14   17 ar  
    27   14   55 1   
    28   15   16 ar  
    29   15   56 1   
    30   16   17 ar  
    31   16   57 1   
    32   17   18 1   
    33   18   19 1   
    34   18   58 1   
    35   18   59 1   
    36   19   20 1   
    37   19   33 1   
    38   19   89 1   
    39   20   21 1   
    40   20   32 2   
    41   21   22 ar  
    42   21   26 ar  
    43   22   23 ar  
    44   22   60 1   
    45   23   24 ar  
    46   23   61 1   
    47   24   25 ar  
    48   24   27 1   
    49   25   26 ar  
    50   25   62 1   
    51   26   63 1   
    52   27   28 1   
    53   27   64 1   
    54   27   65 1   
    55   28   29 1   
    56   28   66 1   
    57   28   67 1   
    58   29   30 1   
    59   29   68 1   
    60   29   69 1   
    61   30   31 1   
    62   30   70 1   
    63   30   71 1   
    64   31   72 1   
    65   31   73 1   
    66   31   74 1   
    67   33   34 1   
    68   33   38 1   
    69   33   75 1   
    70   34   35 1   
    71   34   76 1   
    72   34   77 1   
    73   35   36 1   
    74   35   78 1   
    75   35   79 1   
    76   36   37 1   
    77   36   39 1   
    78   37   38 1   
    79   37   80 1   
    80   37   81 1   
    81   38   82 1   
    82   38   83 1   
    83   39   40 1   
    84   39   84 1   
    85   39   85 1   
    86   40   41 1   
    87   40   44 2   
    88   41   42 1   
    89   41   86 1   
    90   42   43 2   
    91   42   87 1   
    92   43   44 1   
    93   43   88 1   
@<TRIPOS>SUBSTRUCTURE
     1 IH4         1 TEMP              0 ****  ****    0 ROOT
