@<TRIPOS>MOLECULE
IH4
   88    92     1     0     0
SMALL
bcc


@<TRIPOS>ATOM
      1 O27        -5.4100   -0.9470    6.0880 o         1 IH4     -0.543000
      2 C26        -4.3700   -0.8190    6.7360 c         1 IH4      0.635100
      3 O28        -4.0290   -1.8110    7.6150 os        1 IH4     -0.437900
      4 C29        -4.9060   -2.9360    7.6870 c3        1 IH4      0.124700
      5 C25        -3.3920    0.3190    6.7400 c3        1 IH4     -0.080100
      6 C24        -2.7000    0.4710    5.4310 ca        1 IH4     -0.089300
      7 C30        -3.4330    0.5510    4.2420 ca        1 IH4     -0.117000
      8 C31        -2.7820    0.7310    3.0250 ca        1 IH4     -0.119000
      9 C23        -1.3050    0.5720    5.3860 ca        1 IH4     -0.117000
     10 C22        -0.6530    0.7560    4.1690 ca        1 IH4     -0.119000
     11 C21        -1.3840    0.8380    2.9760 cp        1 IH4     -0.032000
     12 C20        -0.7000    1.0300    1.6990 cp        1 IH4     -0.034000
     13 C32         0.3880    1.9080    1.5980 ca        1 IH4     -0.119000
     14 C33         1.0360    2.0920    0.3790 ca        1 IH4     -0.119000
     15 C19        -1.1230    0.3370    0.5550 ca        1 IH4     -0.119000
     16 C18        -0.4730    0.5240   -0.6620 ca        1 IH4     -0.119000
     17 C17         0.6090    1.4040   -0.7600 ca        1 IH4     -0.111300
     18 C16         1.2700    1.6510   -2.0890 c3        1 IH4      0.132300
     19 N3          2.0670    0.5760   -2.6270 n         1 IH4     -0.458800
     20 C2          1.5040   -0.4030   -3.4510 c         1 IH4      0.667700
     21 C34         0.2220   -0.1130   -4.1590 ca        1 IH4     -0.136600
     22 C35         0.1340    0.9290   -5.0870 ca        1 IH4     -0.097500
     23 C36        -1.0500    1.1350   -5.7910 ca        1 IH4     -0.133000
     24 C37        -2.1570    0.3060   -5.5770 ca        1 IH4     -0.057300
     25 C43        -2.0590   -0.7410   -4.6510 ca        1 IH4     -0.133000
     26 C44        -0.8750   -0.9550   -3.9500 ca        1 IH4     -0.097500
     27 C38        -3.4270    0.5300   -6.3200 c3        1 IH4     -0.042100
     28 C39        -3.6490   -0.5280   -7.3850 c3        1 IH4     -0.076400
     29 C40        -4.9600   -0.3050   -8.1070 c3        1 IH4     -0.080400
     30 C41        -5.1860   -1.3570   -9.1720 c3        1 IH4     -0.080400
     31 C42        -6.4900   -1.1400   -9.8950 c3        1 IH4     -0.093100
     32 O1          2.0940   -1.4840   -3.6440 o         1 IH4     -0.588100
     33 C4          3.3570    0.2740   -2.0150 c3        1 IH4      0.096700
     34 C5          4.2140    1.5180   -1.7390 c3        1 IH4     -0.091900
     35 C6          5.5980    1.0880   -1.2560 c3        1 IH4      0.168800
     36 N7          5.5480    0.2450   -0.0680 n3        1 IH4     -0.749600
     37 C14         4.6700   -0.9090   -0.2340 c3        1 IH4      0.168800
     38 C15         3.2700   -0.5430   -0.7170 c3        1 IH4     -0.091900
     39 C8          6.8820   -0.1370    0.3830 c3        1 IH4      0.143500
     40 C9          6.9110   -0.5460    1.8290 cc        1 IH4      0.385800
     41 N10         6.1000    0.0350    2.8160 na        1 IH4     -0.294900
     42 C11         6.4410   -0.5590    4.0270 cc        1 IH4     -0.266600
     43 C12         7.4670   -1.4800    3.7360 cd        1 IH4      0.291200
     44 N13         7.7510   -1.4680    2.3750 nd        1 IH4     -0.669000
     45 H291       -4.4260   -3.5970    8.4490 h1        1 IH4      0.051700
     46 H292       -5.9230   -2.6060    8.0110 h1        1 IH4      0.051700
     47 H293       -4.9660   -3.4360    6.6900 h1        1 IH4      0.051700
     48 H251       -2.6460    0.1630    7.5660 hc        1 IH4      0.085700
     49 H252       -3.9740    1.2560    6.9660 hc        1 IH4      0.085700
     50 H30        -4.5320    0.4560    4.2750 ha        1 IH4      0.146000
     51 H31        -3.3680    0.7960    2.0960 ha        1 IH4      0.137500
     52 H23        -0.7170    0.5020    6.3140 ha        1 IH4      0.146000
     53 H22         0.4450    0.8290    4.1430 ha        1 IH4      0.137500
     54 H32         0.7250    2.4630    2.4870 ha        1 IH4      0.137000
     55 H33         1.8890    2.7850    0.3160 ha        1 IH4      0.136500
     56 H19        -1.9710   -0.3620    0.6220 ha        1 IH4      0.137000
     57 H18        -0.8120   -0.0240   -1.5570 ha        1 IH4      0.136500
     58 H161        1.9340    2.5610   -2.0030 h1        1 IH4      0.063200
     59 H162        0.4560    1.9060   -2.8320 h1        1 IH4      0.063200
     60 H35         1.0030    1.5810   -5.2670 ha        1 IH4      0.143500
     61 H36        -1.1130    1.9550   -6.5230 ha        1 IH4      0.138000
     62 H43        -2.9230   -1.4020   -4.4850 ha        1 IH4      0.138000
     63 H44        -0.7930   -1.7950   -3.2420 ha        1 IH4      0.143500
     64 H381       -3.4170    1.5450   -6.8020 hc        1 IH4      0.050200
     65 H382       -4.2860    0.5150   -5.5960 hc        1 IH4      0.050200
     66 H391       -3.6460   -1.5440   -6.9090 hc        1 IH4      0.046200
     67 H392       -2.8030   -0.5040   -8.1210 hc        1 IH4      0.046200
     68 H401       -4.9630    0.7130   -8.5780 hc        1 IH4      0.039700
     69 H402       -5.8060   -0.3300   -7.3700 hc        1 IH4      0.039700
     70 H411       -5.1800   -2.3740   -8.7000 hc        1 IH4      0.040200
     71 H412       -4.3380   -1.3310   -9.9080 hc        1 IH4      0.040200
     72 H421       -6.6360   -1.9260  -10.6750 hc        1 IH4      0.033367
     73 H422       -7.3490   -1.1870   -9.1820 hc        1 IH4      0.033367
     74 H423       -6.5040   -0.1410  -10.3930 hc        1 IH4      0.033367
     75 H4          3.9180   -0.3600   -2.7730 h1        1 IH4      0.082700
     76 H5C1        4.3380    2.1270   -2.6700 hc        1 IH4      0.056450
     77 H5C2        3.7290    2.1610   -0.9590 hc        1 IH4      0.056450
     78 H6C1        6.1330    0.5730   -2.1080 h1        1 IH4      0.039700
     79 H6C2        6.1850    2.0130   -0.9950 h1        1 IH4      0.039700
     80 H141        5.1120   -1.6590   -0.9570 h1        1 IH4      0.039700
     81 H142        4.5880   -1.4130    0.7700 h1        1 IH4      0.039700
     82 H151        2.7240    0.0430    0.0670 hc        1 IH4      0.056450
     83 H152        2.7050   -1.4930   -0.9030 hc        1 IH4      0.056450
     84 H8C1        7.3130   -0.9810   -0.2330 h1        1 IH4      0.061700
     85 H8C2        7.5680    0.7540    0.2740 h1        1 IH4      0.061700
     86 H10         5.3850    0.6950    2.6590 hn        1 IH4      0.309700
     87 H11         5.9570   -0.2970    4.9650 h4        1 IH4      0.174000
     88 H12         8.0020   -2.1350    4.4220 h4        1 IH4      0.040100
@<TRIPOS>BOND
     1    1    2 2   
     2    2    3 1   
     3    2    5 1   
     4    3    4 1   
     5    4   45 1   
     6    4   46 1   
     7    4   47 1   
     8    5    6 1   
     9    5   48 1   
    10    5   49 1   
    11    6    7 ar  
    12    6    9 ar  
    13    7    8 ar  
    14    7   50 1   
    15    8   11 ar  
    16    8   51 1   
    17    9   10 ar  
    18    9   52 1   
    19   10   11 ar  
    20   10   53 1   
    21   11   12 1   
    22   12   13 ar  
    23   12   15 ar  
    24   13   14 ar  
    25   13   54 1   
    26   14   17 ar  
    27   14   55 1   
    28   15   16 ar  
    29   15   56 1   
    30   16   17 ar  
    31   16   57 1   
    32   17   18 1   
    33   18   19 1   
    34   18   58 1   
    35   18   59 1   
    36   19   20 1   
    37   19   33 1   
    38   20   21 1   
    39   20   32 2   
    40   21   22 ar  
    41   21   26 ar  
    42   22   23 ar  
    43   22   60 1   
    44   23   24 ar  
    45   23   61 1   
    46   24   25 ar  
    47   24   27 1   
    48   25   26 ar  
    49   25   62 1   
    50   26   63 1   
    51   27   28 1   
    52   27   64 1   
    53   27   65 1   
    54   28   29 1   
    55   28   66 1   
    56   28   67 1   
    57   29   30 1   
    58   29   68 1   
    59   29   69 1   
    60   30   31 1   
    61   30   70 1   
    62   30   71 1   
    63   31   72 1   
    64   31   73 1   
    65   31   74 1   
    66   33   34 1   
    67   33   38 1   
    68   33   75 1   
    69   34   35 1   
    70   34   76 1   
    71   34   77 1   
    72   35   36 1   
    73   35   78 1   
    74   35   79 1   
    75   36   37 1   
    76   36   39 1   
    77   37   38 1   
    78   37   80 1   
    79   37   81 1   
    80   38   82 1   
    81   38   83 1   
    82   39   40 1   
    83   39   84 1   
    84   39   85 1   
    85   40   41 1   
    86   40   44 2   
    87   41   42 1   
    88   41   86 1   
    89   42   43 2   
    90   42   87 1   
    91   43   44 1   
    92   43   88 1   
@<TRIPOS>SUBSTRUCTURE
     1 IH4         1 TEMP              0 ****  ****    0 ROOT
