@<TRIPOS>MOLECULE
IH4
   89    93     1     0     0
SMALL
bcc


@<TRIPOS>ATOM
      1 O27         2.0720   -0.9130   -0.0500 o         1 IH4     -0.542000
      2 C26         2.1150    0.3170   -0.1160 c         1 IH4      0.634100
      3 O28         2.0090    1.0360    1.0400 os        1 IH4     -0.434900
      4 C29         1.8630    0.2920    2.2520 c3        1 IH4      0.124700
      5 C25         2.3080    1.1900   -1.3220 c3        1 IH4     -0.089100
      6 C24         1.2720    0.9610   -2.3650 ca        1 IH4     -0.064300
      7 C30         0.6180    2.0520   -2.9480 ca        1 IH4     -0.116500
      8 C31        -0.3280    1.8510   -3.9510 ca        1 IH4     -0.107500
      9 C23         0.9670   -0.3350   -2.7980 ca        1 IH4     -0.116500
     10 C22         0.0250   -0.5370   -3.8020 ca        1 IH4     -0.107500
     11 C21        -0.6320    0.5550   -4.3890 cp        1 IH4     -0.072000
     12 C20        -1.6230    0.3410   -5.4400 cp        1 IH4      0.027000
     13 C32        -1.4180   -0.6420   -6.4220 ca        1 IH4     -0.118500
     14 C33        -2.3620   -0.8470   -7.4220 ca        1 IH4     -0.099000
     15 C19        -2.7950    1.1130   -5.4830 ca        1 IH4     -0.118500
     16 C18        -3.7430    0.9040   -6.4810 ca        1 IH4     -0.099000
     17 C17        -3.5300   -0.0760   -7.4570 ca        1 IH4     -0.184300
     18 C16        -4.5270   -0.2710   -8.5500 c3        1 IH4      0.177100
     19 N3         -5.2750   -1.5690   -8.4040 nx        1 IH4     -0.598200
     20 C2         -6.6880   -1.3450   -7.9050 c         1 IH4      0.572700
     21 C34        -7.6570   -0.5830   -8.6950 ca        1 IH4     -0.202600
     22 C35        -7.3800    0.0830   -9.8990 ca        1 IH4     -0.064000
     23 C36        -8.3850    0.7770  -10.5620 ca        1 IH4     -0.137500
     24 C37        -9.6880    0.8280  -10.0430 ca        1 IH4      0.009700
     25 C43        -9.9630    0.1680   -8.8380 ca        1 IH4     -0.137500
     26 C44        -8.9640   -0.5290   -8.1690 ca        1 IH4     -0.064000
     27 C38       -10.7580    1.5790  -10.7520 c3        1 IH4     -0.061100
     28 C39       -11.8010    0.6500  -11.3450 c3        1 IH4     -0.074400
     29 C40       -12.9010    1.4390  -12.0230 c3        1 IH4     -0.081400
     30 C41       -13.9440    0.5190  -12.6220 c3        1 IH4     -0.079400
     31 C42       -15.0420    1.3000  -13.2970 c3        1 IH4     -0.095100
     32 O1         -6.9030   -1.8560   -6.8070 o         1 IH4     -0.455100
     33 C4         -5.2590   -2.4330   -9.6500 c3        1 IH4      0.146500
     34 C5         -3.8410   -2.9030   -9.9840 c3        1 IH4     -0.138400
     35 C6         -3.8640   -3.8190  -11.2130 c3        1 IH4      0.203800
     36 N7         -4.8230   -4.8960  -11.2100 n3        1 IH4     -0.754600
     37 C14        -6.1300   -4.5290  -10.7250 c3        1 IH4      0.203800
     38 C15        -6.1790   -3.6460   -9.4750 c3        1 IH4     -0.138400
     39 C8         -4.3510   -6.2250  -10.9360 c3        1 IH4      0.172500
     40 C9         -4.0080   -6.6130   -9.5210 cc        1 IH4      0.346800
     41 N10        -3.7810   -7.9540   -9.1630 na        1 IH4     -0.303900
     42 C11        -3.4630   -7.9700   -7.8090 cc        1 IH4     -0.230600
     43 C12        -3.5090   -6.6300   -7.3800 cd        1 IH4      0.287200
     44 N13        -3.8450   -5.8010   -8.4450 nd        1 IH4     -0.714000
     45 H291        2.7450   -0.3760    2.3970 h1        1 IH4      0.055033
     46 H292        1.8100    1.0820    3.0410 h1        1 IH4      0.055033
     47 H293        0.9250   -0.3140    2.2130 h1        1 IH4      0.055033
     48 H251        2.3160    2.2670   -1.0000 hc        1 IH4      0.092700
     49 H252        3.3240    0.9480   -1.7450 hc        1 IH4      0.092700
     50 H30         0.8480    3.0760   -2.6150 ha        1 IH4      0.156500
     51 H31        -0.8300    2.7180   -4.4060 ha        1 IH4      0.137000
     52 H23         1.4680   -1.1980   -2.3250 ha        1 IH4      0.156500
     53 H22        -0.2120   -1.5620   -4.1270 ha        1 IH4      0.137000
     54 H32        -0.4970   -1.2460   -6.4050 ha        1 IH4      0.157000
     55 H33        -2.1820   -1.6130   -8.1930 ha        1 IH4      0.137000
     56 H19        -2.9700    1.8830   -4.7150 ha        1 IH4      0.157000
     57 H18        -4.6570    1.5180   -6.4980 ha        1 IH4      0.137000
     58 H161       -5.2750    0.5750   -8.5420 hx        1 IH4      0.100200
     59 H162       -4.0070   -0.2690   -9.5510 hx        1 IH4      0.100200
     60 H35        -6.3730    0.0810  -10.3420 ha        1 IH4      0.149500
     61 H36        -8.1550    1.2960  -11.5070 ha        1 IH4      0.162000
     62 H43       -10.9820    0.2030   -8.4180 ha        1 IH4      0.162000
     63 H44        -9.1900   -1.0430   -7.2180 ha        1 IH4      0.149500
     64 H381      -11.2540    2.2800  -10.0250 hc        1 IH4      0.067700
     65 H382      -10.3140    2.2090  -11.5690 hc        1 IH4      0.067700
     66 H391      -11.3170   -0.0360  -12.0890 hc        1 IH4      0.045700
     67 H392      -12.2390    0.0090  -10.5350 hc        1 IH4      0.045700
     68 H401      -12.4610    2.0840  -12.8290 hc        1 IH4      0.045700
     69 H402      -13.3870    2.1240  -11.2790 hc        1 IH4      0.045700
     70 H411      -14.3810   -0.1270  -11.8150 hc        1 IH4      0.040200
     71 H412      -13.4560   -0.1660  -13.3650 hc        1 IH4      0.040200
     72 H421      -15.5570    1.9700  -12.5660 hc        1 IH4      0.039033
     73 H422      -14.6300    1.9310  -14.1210 hc        1 IH4      0.039033
     74 H423      -15.8000    0.6030  -13.7310 hc        1 IH4      0.039033
     75 H4         -5.6480   -1.7960  -10.4980 hx        1 IH4      0.091700
     76 H5C1       -3.1800   -2.0300  -10.2270 hc        1 IH4      0.078950
     77 H5C2       -3.3900   -3.4440   -9.1110 hc        1 IH4      0.078950
     78 H6C1       -2.8240   -4.2320  -11.3500 h1        1 IH4      0.064700
     79 H6C2       -4.1070   -3.1820  -12.1140 h1        1 IH4      0.064700
     80 H141       -6.7340   -5.4560  -10.5140 h1        1 IH4      0.064700
     81 H142       -6.6360   -3.9690  -11.5670 h1        1 IH4      0.064700
     82 H151       -7.2410   -3.3110   -9.3330 hc        1 IH4      0.078950
     83 H152       -5.8800   -4.2390   -8.5720 hc        1 IH4      0.078950
     84 H8C1       -3.4220   -6.3900  -11.5610 h1        1 IH4      0.072200
     85 H8C2       -5.1500   -6.9360  -11.3050 h1        1 IH4      0.072200
     86 H10        -3.8280   -8.7350   -9.7640 hn        1 IH4      0.309700
     87 H11        -3.2370   -8.8900   -7.2710 h4        1 IH4      0.191000
     88 H12        -3.3200   -6.2350   -6.3820 h4        1 IH4      0.045100
     89 H311       -4.7930   -2.1210   -7.6690 hn        1 IH4      0.466800
@<TRIPOS>BOND
     1    1    2 2   
     2    2    3 1   
     3    2    5 1   
     4    3    4 1   
     5    4   45 1   
     6    4   46 1   
     7    4   47 1   
     8    5    6 1   
     9    5   48 1   
    10    5   49 1   
    11    6    7 ar  
    12    6    9 ar  
    13    7    8 ar  
    14    7   50 1   
    15    8   11 ar  
    16    8   51 1   
    17    9   10 ar  
    18    9   52 1   
    19   10   11 ar  
    20   10   53 1   
    21   11   12 1   
    22   12   13 ar  
    23   12   15 ar  
    24   13   14 ar  
    25   13   54 1   
    26   14   17 ar  
    27   14   55 1   
    28   15   16 ar  
    29   15   56 1   
    30   16   17 ar  
    31   16   57 1   
    32   17   18 1   
    33   18   19 1   
    34   18   58 1   
    35   18   59 1   
    36   19   20 1   
    37   19   33 1   
    38   19   89 1   
    39   20   21 1   
    40   20   32 2   
    41   21   22 ar  
    42   21   26 ar  
    43   22   23 ar  
    44   22   60 1   
    45   23   24 ar  
    46   23   61 1   
    47   24   25 ar  
    48   24   27 1   
    49   25   26 ar  
    50   25   62 1   
    51   26   63 1   
    52   27   28 1   
    53   27   64 1   
    54   27   65 1   
    55   28   29 1   
    56   28   66 1   
    57   28   67 1   
    58   29   30 1   
    59   29   68 1   
    60   29   69 1   
    61   30   31 1   
    62   30   70 1   
    63   30   71 1   
    64   31   72 1   
    65   31   73 1   
    66   31   74 1   
    67   33   34 1   
    68   33   38 1   
    69   33   75 1   
    70   34   35 1   
    71   34   76 1   
    72   34   77 1   
    73   35   36 1   
    74   35   78 1   
    75   35   79 1   
    76   36   37 1   
    77   36   39 1   
    78   37   38 1   
    79   37   80 1   
    80   37   81 1   
    81   38   82 1   
    82   38   83 1   
    83   39   40 1   
    84   39   84 1   
    85   39   85 1   
    86   40   41 1   
    87   40   44 2   
    88   41   42 1   
    89   41   86 1   
    90   42   43 2   
    91   42   87 1   
    92   43   44 1   
    93   43   88 1   
@<TRIPOS>SUBSTRUCTURE
     1 IH4         1 TEMP              0 ****  ****    0 ROOT
