@<TRIPOS>MOLECULE
IH4
   89    93     1     0     0
SMALL
bcc


@<TRIPOS>ATOM
      1 O27         2.2170   -0.0190    0.3630 o         1 IH4     -0.542000
      2 C26         2.1880    1.2080    0.2480 c         1 IH4      0.634100
      3 O28         2.0380    1.9650    1.3740 os        1 IH4     -0.433900
      4 C29         1.9360    1.2630    2.6150 c3        1 IH4      0.124700
      5 C25         2.3310    2.0410   -0.9920 c3        1 IH4     -0.090100
      6 C24         1.3240    1.6990   -2.0320 ca        1 IH4     -0.062300
      7 C30         0.6050    2.7180   -2.6670 ca        1 IH4     -0.116000
      8 C31        -0.3150    2.4120   -3.6670 ca        1 IH4     -0.106500
      9 C23         1.1090    0.3680   -2.4100 ca        1 IH4     -0.116000
     10 C22         0.1920    0.0610   -3.4110 ca        1 IH4     -0.106500
     11 C21        -0.5290    1.0800   -4.0500 cp        1 IH4     -0.075000
     12 C20        -1.4930    0.7560   -5.0980 cp        1 IH4      0.031000
     13 C32        -1.2160   -0.2560   -6.0320 ca        1 IH4     -0.118500
     14 C33        -2.1350   -0.5660   -7.0280 ca        1 IH4     -0.098000
     15 C19        -2.7110    1.4490   -5.1870 ca        1 IH4     -0.118500
     16 C18        -3.6320    1.1360   -6.1820 ca        1 IH4     -0.098000
     17 C17        -3.3480    0.1280   -7.1090 ca        1 IH4     -0.189300
     18 C16        -4.3170   -0.1770   -8.2010 c3        1 IH4      0.178100
     19 N3         -5.0290   -1.4850   -7.9690 n4        1 IH4     -0.597200
     20 C2         -6.4630   -1.2670   -7.5190 c         1 IH4      0.574700
     21 C34        -7.4390   -0.6200   -8.3950 ca        1 IH4     -0.205600
     22 C35        -7.1520   -0.0320   -9.6360 ca        1 IH4     -0.062500
     23 C36        -8.1660    0.5550  -10.3840 ca        1 IH4     -0.136500
     24 C37        -9.4890    0.5720   -9.9140 ca        1 IH4      0.014700
     25 C43        -9.7740   -0.0100   -8.6710 ca        1 IH4     -0.136500
     26 C44        -8.7660   -0.5980   -7.9170 ca        1 IH4     -0.062500
     27 C38       -10.5700    1.2060  -10.7150 c3        1 IH4     -0.062100
     28 C39       -11.5360    0.1750  -11.2710 c3        1 IH4     -0.075400
     29 C40       -12.6510    0.8470  -12.0450 c3        1 IH4     -0.081400
     30 C41       -13.6160   -0.1740  -12.6080 c3        1 IH4     -0.079400
     31 C42       -14.7290    0.4890  -13.3780 c3        1 IH4     -0.095100
     32 O1         -6.6790   -1.6890   -6.3840 o         1 IH4     -0.455100
     33 C4         -4.9580   -2.4380   -9.1400 c3        1 IH4      0.128500
     34 C5         -3.5240   -2.9070   -9.4130 c3        1 IH4     -0.101400
     35 C6         -3.5150   -3.8570  -10.6130 c3        1 IH4      0.165300
     36 N7         -4.3980   -5.0010  -10.4330 n3        1 IH4     -0.737600
     37 C14        -5.7620   -4.5950  -10.1210 c3        1 IH4      0.165300
     38 C15        -5.8400   -3.6720   -8.9050 c3        1 IH4     -0.101400
     39 C8         -4.3250   -5.9160  -11.5700 c3        1 IH4      0.147500
     40 C9         -5.1310   -7.1620  -11.3580 cc        1 IH4      0.354800
     41 N10        -4.7590   -8.1710  -10.4550 na        1 IH4     -0.295900
     42 C11        -5.7120   -9.1780  -10.5560 cc        1 IH4     -0.242600
     43 C12        -6.6450   -8.7410  -11.5210 cd        1 IH4      0.293200
     44 N13        -6.2790   -7.4930  -12.0080 nd        1 IH4     -0.656000
     45 H291        1.0370    0.6010    2.6030 h1        1 IH4      0.056033
     46 H292        2.8570    0.6560    2.7860 h1        1 IH4      0.056033
     47 H293        1.8350    2.0800    3.3710 h1        1 IH4      0.056033
     48 H251        3.3650    1.8530   -1.3990 hc        1 IH4      0.093200
     49 H252        2.2630    3.1290   -0.7150 hc        1 IH4      0.093200
     50 H30         0.7640    3.7680   -2.3780 ha        1 IH4      0.157500
     51 H31        -0.8680    3.2230   -4.1640 ha        1 IH4      0.136500
     52 H23         1.6600   -0.4390   -1.8950 ha        1 IH4      0.157500
     53 H22         0.0260   -0.9910   -3.6920 ha        1 IH4      0.136500
     54 H32        -0.2580   -0.7980   -5.9790 ha        1 IH4      0.158000
     55 H33        -1.8970   -1.3520   -7.7620 ha        1 IH4      0.135500
     56 H19        -2.9420    2.2420   -4.4570 ha        1 IH4      0.158000
     57 H18        -4.5820    1.6920   -6.2360 ha        1 IH4      0.135500
     58 H161       -3.7810   -0.2340   -9.1920 hx        1 IH4      0.101700
     59 H162       -5.0920    0.6410   -8.2680 hx        1 IH4      0.101700
     60 H35        -6.1300   -0.0100  -10.0440 ha        1 IH4      0.149000
     61 H36        -7.9290    1.0140  -11.3580 ha        1 IH4      0.163500
     62 H43       -10.8080   -0.0000   -8.2890 ha        1 IH4      0.163500
     63 H44        -9.0000   -1.0500   -6.9380 ha        1 IH4      0.149000
     64 H381      -10.1300    1.7980  -11.5620 hc        1 IH4      0.068700
     65 H382      -11.1330    1.9280  -10.0610 hc        1 IH4      0.068700
     66 H391      -10.9860   -0.5350  -11.9430 hc        1 IH4      0.046700
     67 H392      -11.9690   -0.4280  -10.4300 hc        1 IH4      0.046700
     68 H401      -13.2030    1.5550  -11.3730 hc        1 IH4      0.045700
     69 H402      -12.2160    1.4550  -12.8820 hc        1 IH4      0.045700
     70 H411      -13.0630   -0.8820  -13.2800 hc        1 IH4      0.040700
     71 H412      -14.0490   -0.7830  -11.7700 hc        1 IH4      0.040700
     72 H421      -14.3200    1.0800  -14.2330 hc        1 IH4      0.038700
     73 H422      -15.4290   -0.2810  -13.7850 hc        1 IH4      0.038700
     74 H423      -15.3090    1.1790  -12.7200 hc        1 IH4      0.038700
     75 H4         -5.3440   -1.8790  -10.0440 hx        1 IH4      0.098700
     76 H5C1       -3.1100   -3.4310   -8.5120 hc        1 IH4      0.071700
     77 H5C2       -2.8540   -2.0420   -9.6560 hc        1 IH4      0.071700
     78 H6C1       -2.4650   -4.2470  -10.7380 h1        1 IH4      0.059950
     79 H6C2       -3.7740   -3.2640  -11.5400 h1        1 IH4      0.059950
     80 H141       -6.3540   -5.5270   -9.8920 h1        1 IH4      0.059950
     81 H142       -6.2570   -4.0810  -10.9970 h1        1 IH4      0.059950
     82 H151       -6.9130   -3.3740   -8.7660 hc        1 IH4      0.071700
     83 H152       -5.5050   -4.2210   -7.9860 hc        1 IH4      0.071700
     84 H8C1       -3.2410   -6.2010  -11.7030 h1        1 IH4      0.066700
     85 H8C2       -4.6750   -5.4250  -12.5270 h1        1 IH4      0.066700
     86 H10        -3.9670   -8.1630   -9.8670 hn        1 IH4      0.306700
     87 H11        -5.6650  -10.0930   -9.9680 h4        1 IH4      0.187000
     88 H12        -7.5350   -9.2570  -11.8810 h4        1 IH4      0.052100
     89 H311       -4.5490   -1.9570   -7.1800 hn        1 IH4      0.460800
@<TRIPOS>BOND
     1    1    2 2   
     2    2    3 1   
     3    2    5 1   
     4    3    4 1   
     5    4   45 1   
     6    4   46 1   
     7    4   47 1   
     8    5    6 1   
     9    5   48 1   
    10    5   49 1   
    11    6    7 ar  
    12    6    9 ar  
    13    7    8 ar  
    14    7   50 1   
    15    8   11 ar  
    16    8   51 1   
    17    9   10 ar  
    18    9   52 1   
    19   10   11 ar  
    20   10   53 1   
    21   11   12 1   
    22   12   13 ar  
    23   12   15 ar  
    24   13   14 ar  
    25   13   54 1   
    26   14   17 ar  
    27   14   55 1   
    28   15   16 ar  
    29   15   56 1   
    30   16   17 ar  
    31   16   57 1   
    32   17   18 1   
    33   18   19 1   
    34   18   58 1   
    35   18   59 1   
    36   19   20 1   
    37   19   33 1   
    38   19   89 1   
    39   20   21 1   
    40   20   32 2   
    41   21   22 ar  
    42   21   26 ar  
    43   22   23 ar  
    44   22   60 1   
    45   23   24 ar  
    46   23   61 1   
    47   24   25 ar  
    48   24   27 1   
    49   25   26 ar  
    50   25   62 1   
    51   26   63 1   
    52   27   28 1   
    53   27   64 1   
    54   27   65 1   
    55   28   29 1   
    56   28   66 1   
    57   28   67 1   
    58   29   30 1   
    59   29   68 1   
    60   29   69 1   
    61   30   31 1   
    62   30   70 1   
    63   30   71 1   
    64   31   72 1   
    65   31   73 1   
    66   31   74 1   
    67   33   34 1   
    68   33   38 1   
    69   33   75 1   
    70   34   35 1   
    71   34   76 1   
    72   34   77 1   
    73   35   36 1   
    74   35   78 1   
    75   35   79 1   
    76   36   37 1   
    77   36   39 1   
    78   37   38 1   
    79   37   80 1   
    80   37   81 1   
    81   38   82 1   
    82   38   83 1   
    83   39   40 1   
    84   39   84 1   
    85   39   85 1   
    86   40   41 1   
    87   40   44 2   
    88   41   42 1   
    89   41   86 1   
    90   42   43 2   
    91   42   87 1   
    92   43   44 1   
    93   43   88 1   
@<TRIPOS>SUBSTRUCTURE
     1 IH4         1 TEMP              0 ****  ****    0 ROOT
