@<TRIPOS>MOLECULE
IH5
   38    39     1     0     0
SMALL
bcc


@<TRIPOS>ATOM
      1 O3          0.4190   -0.0100    0.6920 o         1 IH5     -0.829800
      2 C15         1.2390   -0.6300   -0.0360 c         1 IH5      0.920600
      3 O4          1.4510   -1.8750    0.0070 o         1 IH5     -0.829800
      4 C13         2.0080    0.2010   -1.0990 c3        1 IH5     -0.189100
      5 C01         3.4750    0.1980   -0.9070 ca        1 IH5      0.010700
      6 C11         4.1530   -1.0070   -0.6630 ca        1 IH5     -0.132000
      7 C09         5.5410   -1.0210   -0.5340 ca        1 IH5      0.019400
      8 C07         6.2760    0.1760   -0.6360 ca        1 IH5      0.041100
      9 O2          7.6480    0.1830   -0.3800 os        1 IH5     -0.232200
     10 C2          8.4750    0.0190   -1.4850 ca        1 IH5      0.110100
     11 C12         8.0180   -0.2020   -2.7890 ca        1 IH5     -0.146000
     12 C10         8.9460   -0.3580   -3.8130 ca        1 IH5     -0.179000
     13 C8         10.3170   -0.2940   -3.5340 ca        1 IH5      0.080100
     14 O1         11.2640   -0.4430   -4.5310 oh        1 IH5     -0.510100
     15 C6         10.7860   -0.0720   -2.2230 ca        1 IH5     -0.072300
     16 C4          9.8490    0.0840   -1.2010 ca        1 IH5     -0.125000
     17 C14        12.2520   -0.0060   -1.9280 c3        1 IH5     -0.017400
     18 C16        12.6310    1.3540   -1.3730 c3        1 IH5     -0.086100
     19 C18        12.6610   -1.1050   -0.9650 c3        1 IH5     -0.086100
     20 C05         5.5950    1.3830   -0.8590 ca        1 IH5      0.019400
     21 C03         4.2040    1.3900   -0.9890 ca        1 IH5     -0.132000
     22 CL5         6.4360    2.8610   -0.9810 cl        1 IH5     -0.103400
     23 CL6         6.3270   -2.5050   -0.2500 cl        1 IH5     -0.103400
     24 H131        1.6110    1.2470   -1.0880 hc        1 IH5      0.046700
     25 H132        1.7750   -0.2570   -2.0960 hc        1 IH5      0.046700
     26 H11         3.5450   -1.9300   -0.5430 ha        1 IH5      0.181000
     27 H12         6.9390   -0.2540   -2.9980 ha        1 IH5      0.157000
     28 H10         8.6010   -0.5330   -4.8420 ha        1 IH5      0.129000
     29 HO1        10.7890   -0.6040   -5.3580 ho        1 IH5      0.411000
     30 H4         10.1760    0.2580   -0.1650 ha        1 IH5      0.150000
     31 H14        12.8190   -0.1590   -2.8920 hc        1 IH5      0.066700
     32 H161       12.3590    2.1590   -2.0970 hc        1 IH5      0.033533
     33 H162       12.1000    1.5500   -0.4100 hc        1 IH5      0.033533
     34 H163       13.7320    1.3970   -1.1870 hc        1 IH5      0.033533
     35 H181       12.4100   -2.1060   -1.3900 hc        1 IH5      0.033533
     36 H182       13.7620   -1.0600   -0.7810 hc        1 IH5      0.033533
     37 H183       12.1320   -0.9910    0.0110 hc        1 IH5      0.033533
     38 H03         3.6740    2.3420   -1.1500 ha        1 IH5      0.181000
@<TRIPOS>BOND
     1    1    2 1   
     2    2    3 1   
     3    2    4 1   
     4    4    5 1   
     5    4   24 1   
     6    4   25 1   
     7    5    6 ar  
     8    5   21 ar  
     9    6    7 ar  
    10    6   26 1   
    11    7    8 ar  
    12    7   23 1   
    13    8    9 1   
    14    8   20 ar  
    15    9   10 1   
    16   10   11 ar  
    17   10   16 ar  
    18   11   12 ar  
    19   11   27 1   
    20   12   13 ar  
    21   12   28 1   
    22   13   14 1   
    23   13   15 ar  
    24   14   29 1   
    25   15   16 ar  
    26   15   17 1   
    27   16   30 1   
    28   17   18 1   
    29   17   19 1   
    30   17   31 1   
    31   18   32 1   
    32   18   33 1   
    33   18   34 1   
    34   19   35 1   
    35   19   36 1   
    36   19   37 1   
    37   20   21 ar  
    38   20   22 1   
    39   21   38 1   
@<TRIPOS>SUBSTRUCTURE
     1 IH5         1 TEMP              0 ****  ****    0 ROOT
