@<TRIPOS>MOLECULE
IH5
   38    39     1     0     0
SMALL
bcc


@<TRIPOS>ATOM
      1 O3          0.4250   -0.0450    0.7100 o         1 IH5     -0.829800
      2 C15         1.2400   -0.6420   -0.0420 c         1 IH5      0.920600
      3 O4          1.4440   -1.8890   -0.0450 o         1 IH5     -0.829800
      4 C13         2.0100    0.2230   -1.0750 c3        1 IH5     -0.189100
      5 C01         3.4780    0.2050   -0.8880 ca        1 IH5      0.010700
      6 C11         4.1500   -1.0130   -0.6900 ca        1 IH5     -0.132000
      7 C09         5.5370   -1.0390   -0.5660 ca        1 IH5      0.019400
      8 C07         6.2790    0.1570   -0.6260 ca        1 IH5      0.041100
      9 O2          7.6520    0.1460   -0.3730 os        1 IH5     -0.232200
     10 C2          8.4750    0.0170   -1.4860 ca        1 IH5      0.110100
     11 C12         8.0140   -0.1500   -2.7960 ca        1 IH5     -0.146000
     12 C10         8.9380   -0.2750   -3.8280 ca        1 IH5     -0.179000
     13 C8         10.3100   -0.2330   -3.5500 ca        1 IH5      0.080100
     14 O1         11.2540   -0.3520   -4.5550 oh        1 IH5     -0.510100
     15 C6         10.7840   -0.0660   -2.2320 ca        1 IH5     -0.072300
     16 C4          9.8510    0.0590   -1.2030 ca        1 IH5     -0.125000
     17 C14        12.2510   -0.0230   -1.9390 c3        1 IH5     -0.017400
     18 C16        12.6430    1.3110   -1.3330 c3        1 IH5     -0.086100
     19 C18        12.6530   -1.1610   -1.0200 c3        1 IH5     -0.086100
     20 C05         5.6040    1.3750   -0.8020 ca        1 IH5      0.019400
     21 C03         4.2140    1.3950   -0.9280 ca        1 IH5     -0.132000
     22 Cl5         6.4550    2.8510   -0.8720 cl        1 IH5     -0.103400
     23 Cl6         6.3160   -2.5370   -0.3390 cl        1 IH5     -0.103400
     24 H131        1.6190    1.2700   -1.0250 hc        1 IH5      0.046700
     25 H132        1.7720   -0.1970   -2.0880 hc        1 IH5      0.046700
     26 H11         3.5370   -1.9350   -0.6030 ha        1 IH5      0.181000
     27 H12         6.9340   -0.1850   -3.0050 ha        1 IH5      0.157000
     28 H10         8.5890   -0.4080   -4.8620 ha        1 IH5      0.129000
     29 HO1        10.7760   -0.4780   -5.3860 ho        1 IH5      0.411000
     30 H4         10.1810    0.1910   -0.1620 ha        1 IH5      0.150000
     31 H14        12.8140   -0.1440   -2.9100 hc        1 IH5      0.066700
     32 H161       12.3770    2.1450   -2.0260 hc        1 IH5      0.033533
     33 H162       12.1160    1.4750   -0.3630 hc        1 IH5      0.033533
     34 H163       13.7440    1.3370   -1.1490 hc        1 IH5      0.033533
     35 H181       12.3920   -2.1440   -1.4810 hc        1 IH5      0.033533
     36 H182       13.7540   -1.1330   -0.8370 hc        1 IH5      0.033533
     37 H183       12.1270   -1.0810   -0.0380 hc        1 IH5      0.033533
     38 H03         3.6890    2.3550   -1.0520 ha        1 IH5      0.181000
@<TRIPOS>BOND
     1    1    2 1   
     2    2    3 1   
     3    2    4 1   
     4    4    5 1   
     5    4   24 1   
     6    4   25 1   
     7    5    6 ar  
     8    5   21 ar  
     9    6    7 ar  
    10    6   26 1   
    11    7    8 ar  
    12    7   23 1   
    13    8    9 1   
    14    8   20 ar  
    15    9   10 1   
    16   10   11 ar  
    17   10   16 ar  
    18   11   12 ar  
    19   11   27 1   
    20   12   13 ar  
    21   12   28 1   
    22   13   14 1   
    23   13   15 ar  
    24   14   29 1   
    25   15   16 ar  
    26   15   17 1   
    27   16   30 1   
    28   17   18 1   
    29   17   19 1   
    30   17   31 1   
    31   18   32 1   
    32   18   33 1   
    33   18   34 1   
    34   19   35 1   
    35   19   36 1   
    36   19   37 1   
    37   20   21 ar  
    38   20   22 1   
    39   21   38 1   
@<TRIPOS>SUBSTRUCTURE
     1 IH5         1 TEMP              0 ****  ****    0 ROOT
