@<TRIPOS>MOLECULE
IH5
   38    39     1     0     0
SMALL
bcc


@<TRIPOS>ATOM
      1 O3          6.7390    0.1070    0.3770 o         1 IH5     -0.829800
      2 C15         5.7710   -0.5820   -0.0400 c         1 IH5      0.920600
      3 O4          5.5540   -1.7880    0.2680 o         1 IH5     -0.829800
      4 C13         4.8040    0.0960   -1.0480 c3        1 IH5     -0.189100
      5 C01         3.4140    0.2040   -0.5520 ca        1 IH5      0.011700
      6 C11         2.7080    1.4070   -0.6730 ca        1 IH5     -0.131500
      7 C09         1.3800    1.4960   -0.2480 ca        1 IH5      0.020400
      8 C07         0.7430    0.3790    0.3140 ca        1 IH5      0.041100
      9 O2         -0.5350    0.5040    0.8610 os        1 IH5     -0.233200
     10 C2         -1.5950    0.1890    0.0190 ca        1 IH5      0.113100
     11 C12        -1.4560   -0.1970   -1.3190 ca        1 IH5     -0.154000
     12 C10        -2.5940   -0.4940   -2.0600 ca        1 IH5     -0.121000
     13 C8         -3.8610   -0.3970   -1.4650 ca        1 IH5      0.074100
     14 O1         -4.9300   -0.6830   -2.2940 oh        1 IH5     -0.513100
     15 C6         -4.0100    0.0070   -0.1230 ca        1 IH5     -0.119300
     16 C4         -2.8610    0.2890    0.6180 ca        1 IH5     -0.126000
     17 C14        -5.3710    0.1250    0.4890 c3        1 IH5     -0.020400
     18 C16        -5.8490   -1.2250    0.9950 c3        1 IH5     -0.089600
     19 C18        -5.4260    1.1480    1.6070 c3        1 IH5     -0.089600
     20 C05         1.4590   -0.8260    0.4520 ca        1 IH5      0.020400
     21 C03         2.7830   -0.9090    0.0280 ca        1 IH5     -0.131500
     22 CL5         0.7260   -2.2010    1.1390 cl        1 IH5     -0.103400
     23 CL6         0.5610    2.9800   -0.4290 cl        1 IH5     -0.103400
     24 H131        5.2100    1.1060   -1.3070 hc        1 IH5      0.046700
     25 H132        4.8080   -0.5370   -1.9740 hc        1 IH5      0.046700
     26 H11         3.2070    2.2900   -1.1000 ha        1 IH5      0.181000
     27 H12        -0.4570   -0.2690   -1.7760 ha        1 IH5      0.158000
     28 H10        -2.5160   -0.8030   -3.1120 ha        1 IH5      0.145000
     29 HO1        -5.6710   -0.9580   -1.7360 ho        1 IH5      0.411000
     30 H4         -2.9250    0.5950    1.6720 ha        1 IH5      0.150000
     31 H14        -6.0830    0.4780   -0.3150 hc        1 IH5      0.042700
     32 H161       -5.1740   -1.5990    1.8020 hc        1 IH5      0.036533
     33 H162       -6.8830   -1.1350    1.4070 hc        1 IH5      0.036533
     34 H163       -5.8560   -1.9760    0.1690 hc        1 IH5      0.036533
     35 H181       -4.9070    0.7710    2.5210 hc        1 IH5      0.036533
     36 H182       -4.9400    2.1010    1.2870 hc        1 IH5      0.036533
     37 H183       -6.4900    1.3580    1.8730 hc        1 IH5      0.036533
     38 H03         3.3860   -1.8330    0.1660 ha        1 IH5      0.181000
@<TRIPOS>BOND
     1    1    2 1   
     2    2    3 1   
     3    2    4 1   
     4    4    5 1   
     5    4   24 1   
     6    4   25 1   
     7    5    6 ar  
     8    5   21 ar  
     9    6    7 ar  
    10    6   26 1   
    11    7    8 ar  
    12    7   23 1   
    13    8    9 1   
    14    8   20 ar  
    15    9   10 1   
    16   10   11 ar  
    17   10   16 ar  
    18   11   12 ar  
    19   11   27 1   
    20   12   13 ar  
    21   12   28 1   
    22   13   14 1   
    23   13   15 ar  
    24   14   29 1   
    25   15   16 ar  
    26   15   17 1   
    27   16   30 1   
    28   17   18 1   
    29   17   19 1   
    30   17   31 1   
    31   18   32 1   
    32   18   33 1   
    33   18   34 1   
    34   19   35 1   
    35   19   36 1   
    36   19   37 1   
    37   20   21 ar  
    38   20   22 1   
    39   21   38 1   
@<TRIPOS>SUBSTRUCTURE
     1 IH5         1 TEMP              0 ****  ****    0 ROOT
