@<TRIPOS>MOLECULE
IH6
   49    50     1     0     0
SMALL
bcc


@<TRIPOS>ATOM
      1 C1          0.2460    0.5080    1.2890 c3        1 IH6     -0.040000
      2 C2          1.6650    0.4060    1.1900 c1        1 IH6     -0.028100
      3 C3          2.8570    0.3200    1.1230 c1        1 IH6     -0.207100
      4 C4          4.2830    0.2180    1.0670 c3        1 IH6      0.231500
      5 O1          4.6430    0.0700   -0.3350 os        1 IH6     -0.296900
      6 C5          5.9640   -0.0650   -0.6150 ca        1 IH6      0.248100
      7 C6          6.2660   -0.2450   -1.9900 ca        1 IH6     -0.215500
      8 C7          7.5790   -0.3880   -2.3790 ca        1 IH6      0.039500
      9 C8          8.6410   -0.3540   -1.4470 ca        1 IH6     -0.520500
     10 C9          8.3130   -0.1810   -0.0870 ca        1 IH6      0.039500
     11 C10         7.0030   -0.0360    0.3360 ca        1 IH6     -0.215500
     12 S1         10.1780   -0.6160   -1.8980 sy        1 IH6      1.547200
     13 O2         10.2700   -1.3670   -3.1130 o         1 IH6     -0.676800
     14 O3         10.9750   -1.0970   -0.8560 o         1 IH6     -0.676800
     15 N1         10.7740    0.8840   -2.3850 n3        1 IH6     -0.786500
     16 C11        10.1250    2.1540   -2.1760 c3        1 IH6      0.216800
     17 C12        11.0250    3.2640   -1.6630 c3        1 IH6     -0.052300
     18 S2         12.3530    3.5610   -2.7730 ss        1 IH6     -0.207200
     19 C13        13.0420    1.9250   -2.9290 c3        1 IH6      0.005100
     20 C14        11.9690    0.8320   -3.1670 c3        1 IH6      0.219500
     21 C15        11.5840    0.8080   -4.6710 c         1 IH6      0.518100
     22 O4         11.0690    1.6540   -5.3750 o         1 IH6     -0.398100
     23 N2         11.7880   -0.5580   -5.3520 n4        1 IH6     -0.479300
     24 O5         11.6620   -0.5450   -6.6970 oh        1 IH6     -0.365300
     25 C16        13.9920    2.0030   -4.1070 c3        1 IH6     -0.103600
     26 C17        13.8100    1.5540   -1.6720 c3        1 IH6     -0.103600
     27 H11        -0.1260    1.3870    0.7000 hc        1 IH6      0.071700
     28 H12        -0.0620    0.6410    2.3600 hc        1 IH6      0.071700
     29 H13        -0.2420   -0.4200    0.8920 hc        1 IH6      0.071700
     30 H41         4.7740    1.1510    1.4620 h1        1 IH6      0.067700
     31 H42         4.6490   -0.6870    1.6270 h1        1 IH6      0.067700
     32 H6          5.4400   -0.2770   -2.7180 ha        1 IH6      0.172000
     33 H7          7.8120   -0.5540   -3.4460 ha        1 IH6      0.155500
     34 H9          9.1270   -0.1810    0.6640 ha        1 IH6      0.155500
     35 H10         6.7860    0.0910    1.4070 ha        1 IH6      0.172000
     36 H111        9.6620    2.4940   -3.1520 h1        1 IH6      0.071200
     37 H112        9.2900    1.9960   -1.4310 h1        1 IH6      0.071200
     38 H121       10.4410    4.2190   -1.6140 h1        1 IH6      0.100700
     39 H122       11.3980    3.0340   -0.6350 h1        1 IH6      0.100700
     40 H14        12.4880   -0.1570   -2.9300 h1        1 IH6      0.091700
     41 HN2        11.1040   -1.2440   -4.9420 hn        1 IH6      0.500800
     42 HO5        10.9960    0.1400   -6.9490 ho        1 IH6      0.478000
     43 H161       14.3650    0.9860   -4.3800 hc        1 IH6      0.064533
     44 H162       14.8780    2.6330   -3.8360 hc        1 IH6      0.064533
     45 H163       13.4990    2.4700   -4.9960 hc        1 IH6      0.064533
     46 H171       14.3840    0.6070   -1.8230 hc        1 IH6      0.064533
     47 H172       14.5360    2.3690   -1.4240 hc        1 IH6      0.064533
     48 H173       13.1200    1.4180   -0.8040 hc        1 IH6      0.064533
     49 H22        12.7490   -0.8990   -5.1640 hn        1 IH6      0.500800
@<TRIPOS>BOND
     1    1    2 1   
     2    1   27 1   
     3    1   28 1   
     4    1   29 1   
     5    2    3 3   
     6    3    4 1   
     7    4    5 1   
     8    4   30 1   
     9    4   31 1   
    10    5    6 1   
    11    6    7 ar  
    12    6   11 ar  
    13    7    8 ar  
    14    7   32 1   
    15    8    9 ar  
    16    8   33 1   
    17    9   10 ar  
    18    9   12 1   
    19   10   11 ar  
    20   10   34 1   
    21   11   35 1   
    22   12   13 2   
    23   12   14 2   
    24   12   15 1   
    25   15   16 1   
    26   15   20 1   
    27   16   17 1   
    28   16   36 1   
    29   16   37 1   
    30   17   18 1   
    31   17   38 1   
    32   17   39 1   
    33   18   19 1   
    34   19   20 1   
    35   19   25 1   
    36   19   26 1   
    37   20   21 1   
    38   20   40 1   
    39   21   22 2   
    40   21   23 1   
    41   23   24 1   
    42   23   41 1   
    43   23   49 1   
    44   24   42 1   
    45   25   43 1   
    46   25   44 1   
    47   25   45 1   
    48   26   46 1   
    49   26   47 1   
    50   26   48 1   
@<TRIPOS>SUBSTRUCTURE
     1 IH6         1 TEMP              0 ****  ****    0 ROOT
