@<TRIPOS>MOLECULE
IH6
   48    45     1     0     0
SMALL
bcc


@<TRIPOS>ATOM
      1 C1          7.3720    4.8340   -3.5170 c3        1 IH6     -0.120000
      2 C2          6.2440    4.3610   -2.6270 c1        1 IH6     -0.099000
      3 C3          5.3590    3.9920   -1.9370 c1        1 IH6     -0.199000
      4 C4          4.2360    3.5260   -1.0600 c2        1 IH6      0.098000
      5 O1          3.2050    3.0570   -1.8370 os        1 IH6     -0.196000
      6 C5          2.3280    2.1890   -1.1520 c2        1 IH6      0.152000
      7 C6          1.5350    2.6750   -0.1190 c2        1 IH6     -0.241000
      8 C7          0.7800    1.7950    0.6480 c1        1 IH6      0.021000
      9 C8          0.8180    0.4460    0.3860 c1        1 IH6     -0.868000
     10 C9          1.6090   -0.0400   -0.6450 c1        1 IH6      0.010000
     11 C10         2.3610    0.8310   -1.4120 c1        1 IH6     -0.188000
     12 S1         -0.0230   -0.6870    1.4650 s4        1 IH6      2.060800
     13 O2          0.1600   -0.3360    2.8160 o         1 IH6     -0.532400
     14 O3          0.5810   -1.9840    1.4300 o         1 IH6     -0.532400
     15 N1         -1.6550   -0.7660    1.0700 n2        1 IH6     -0.818000
     16 C11        -2.3860    0.4960    0.4700 c3        1 IH6     -0.017000
     17 C12        -3.8390    0.5050    0.7340 c3        1 IH6     -0.306000
     18 S2         -4.5450   -0.8350    0.3160 ss        1 IH6      0.047000
     19 C13        -3.8260   -2.1250    0.9310 c3        1 IH6     -0.141000
     20 C14        -2.3070   -2.1600    0.6340 c3        1 IH6      0.031000
     21 C15        -1.6270   -3.3260    1.2570 c2        1 IH6      0.259000
     22 O4         -1.6260   -3.4510    2.4550 o         1 IH6     -0.282000
     23 N2         -0.8740   -4.2200    0.4520 n         1 IH6     -0.212000
     24 O5         -1.4020   -4.6920   -0.7260 oh        1 IH6     -0.246000
     25 C16        -4.4610   -3.3590    0.3500 c3        1 IH6     -0.217500
     26 C17        -4.0310   -2.1260    2.4810 c3        1 IH6     -0.217500
     27 H11         7.0220    5.4900   -4.1690 hc        1 IH6      0.101667
     28 H12         7.7550    4.0670   -3.9960 hc        1 IH6      0.101667
     29 H13         8.0680    5.2580   -2.9670 hc        1 IH6      0.101667
     30 H41         3.9300    4.2470   -0.5350 h4        1 IH6      0.101000
     31 H42         4.5670    2.7860   -0.4560 h4        1 IH6      0.101000
     32 H6          1.5110    3.5990    0.0630 ha        1 IH6      0.147000
     33 H7          0.2040    2.1450    1.3950 ha        1 IH6      0.156000
     34 H9          1.6340   -1.0130   -0.8310 ha        1 IH6      0.167000
     35 H10         2.8930    0.4990   -2.1120 ha        1 IH6      0.162000
     36 H111       -1.9900    1.3080    0.8580 h1        1 IH6      0.098000
     37 H112       -2.2460    0.5070   -0.4790 h1        1 IH6      0.098000
     38 H121       -3.9810    0.6490    1.6680 h1        1 IH6      0.128000
     39 H122       -4.2570    1.2640    0.2190 h1        1 IH6      0.128000
     40 H14        -2.1450   -2.3370   -0.3250 h1        1 IH6      0.134000
     41 HN2        -0.0860   -4.5470    0.7570 hn        1 IH6      0.216000
     42 HO5        -0.8060   -5.2210   -1.1260 ho        1 IH6      0.224000
     43 H161       -3.9030   -4.1810    0.6060 hc        1 IH6      0.098500
     44 H162       -4.4960   -3.2800   -0.5870 hc        1 IH6      0.098500
     45 H163       -5.3910   -3.4600    0.7110 hc        1 IH6      0.098500
     46 H171       -4.9420   -1.6710    2.7150 hc        1 IH6      0.098500
     47 H172       -3.2940   -1.6260    2.9070 hc        1 IH6      0.098500
     48 H173       -4.0330   -3.0830    2.8230 hc        1 IH6      0.098500
@<TRIPOS>BOND
     1    1    2 1   
     2    1   27 1   
     3    1   28 1   
     4    1   29 1   
     5    2    3 1   
     6    4    5 1   
     7    4   30 1   
     8    4   31 1   
     9    5    6 1   
    10    6    7 1   
    11    6   11 1   
    12    7    8 1   
    13    7   32 1   
    14    8   33 1   
    15    9   10 1   
    16    9   12 1   
    17   10   34 1   
    18   11   35 1   
    19   12   13 1   
    20   12   14 1   
    21   15   16 1   
    22   15   20 1   
    23   16   17 1   
    24   16   36 1   
    25   16   37 1   
    26   17   18 1   
    27   17   38 1   
    28   17   39 1   
    29   18   19 1   
    30   19   20 1   
    31   19   25 1   
    32   19   26 1   
    33   20   21 1   
    34   20   40 1   
    35   21   22 1   
    36   21   23 1   
    37   23   24 1   
    38   23   41 1   
    39   24   42 1   
    40   25   43 1   
    41   25   44 1   
    42   25   45 1   
    43   26   46 1   
    44   26   47 1   
    45   26   48 1   
@<TRIPOS>SUBSTRUCTURE
     1 IH6         1 TEMP              0 ****  ****    0 ROOT
