@<TRIPOS>MOLECULE
IH6
   49    50     1     0     0
SMALL
bcc


@<TRIPOS>ATOM
      1 C1          0.4510    0.8280    0.9930 c3        1 IH6     -0.040000
      2 C2          1.8170    0.4270    0.9090 c1        1 IH6     -0.028100
      3 C3          2.9650    0.0900    0.8550 c1        1 IH6     -0.207100
      4 C4          4.3360   -0.3160    0.8140 c3        1 IH6      0.231500
      5 O1          4.7110   -0.4030   -0.5890 os        1 IH6     -0.296900
      6 C5          5.9820   -0.7950   -0.8570 ca        1 IH6      0.248100
      7 C6          6.2930   -0.9020   -2.2380 ca        1 IH6     -0.215500
      8 C7          7.5590   -1.2900   -2.6160 ca        1 IH6      0.039500
      9 C8          8.5650   -1.5800   -1.6660 ca        1 IH6     -0.520500
     10 C9          8.2270   -1.4730   -0.3020 ca        1 IH6      0.039500
     11 C10         6.9640   -1.0870    0.1100 ca        1 IH6     -0.215500
     12 S1         10.0270   -2.1260   -2.1140 sy        1 IH6      1.547200
     13 O2         10.0030   -2.7570   -3.3980 o         1 IH6     -0.676800
     14 O3         10.6580   -2.8700   -1.1130 o         1 IH6     -0.676800
     15 N1         10.9510   -0.7530   -2.4320 n3        1 IH6     -0.786500
     16 C11        10.5830    0.6020   -2.1050 c3        1 IH6      0.216800
     17 C12        11.6800    1.4330   -1.4620 c3        1 IH6     -0.052300
     18 S2         13.0850    1.5390   -2.5100 ss        1 IH6     -0.207200
     19 C13        13.4100   -0.1850   -2.8220 c3        1 IH6      0.005100
     20 C14        12.1380   -0.9890   -3.1920 c3        1 IH6      0.219500
     21 C15        11.8190   -0.7820   -4.6980 c         1 IH6      0.518100
     22 O4         11.5290    0.2200   -5.3200 o         1 IH6     -0.398100
     23 N2         11.7510   -2.0870   -5.5120 n4        1 IH6     -0.479300
     24 O5         11.6860   -1.9160   -6.8500 oh        1 IH6     -0.365300
     25 C16        14.4030   -0.2030   -3.9660 c3        1 IH6     -0.103600
     26 C17        14.0280   -0.8350   -1.5950 c3        1 IH6     -0.103600
     27 H11         0.0110    0.9260   -0.0340 hc        1 IH6      0.071700
     28 H12         0.3620    1.8180    1.5130 hc        1 IH6      0.071700
     29 H13        -0.1460    0.0700    1.5650 hc        1 IH6      0.071700
     30 H41         5.0000    0.4430    1.3130 h1        1 IH6      0.068200
     31 H42         4.4740   -1.3300    1.2830 h1        1 IH6      0.068200
     32 H6          5.5100   -0.6810   -2.9800 ha        1 IH6      0.172000
     33 H7          7.7940   -1.3990   -3.6900 ha        1 IH6      0.155500
     34 H9          8.9910   -1.7240    0.4600 ha        1 IH6      0.155500
     35 H10         6.7360   -1.0210    1.1850 ha        1 IH6      0.172000
     36 H111       10.2450    1.1270   -3.0490 h1        1 IH6      0.071200
     37 H112        9.7030    0.5580   -1.3960 h1        1 IH6      0.071200
     38 H121       11.3130    2.4840   -1.3250 h1        1 IH6      0.100700
     39 H122       11.9510    1.0290   -0.4570 h1        1 IH6      0.100700
     40 H14        12.4210   -2.0850   -3.0490 h1        1 IH6      0.091700
     41 HN2        10.9190   -2.6430   -5.1890 hn        1 IH6      0.500800
     42 HO5        11.1950   -1.0810   -7.0430 ho        1 IH6      0.478000
     43 H161       14.5580   -1.2460   -4.3370 hc        1 IH6      0.064533
     44 H162       15.3920    0.1890   -3.6150 hc        1 IH6      0.064533
     45 H163       14.0590    0.4440   -4.8120 hc        1 IH6      0.064533
     46 H171       14.3900   -1.8660   -1.8330 hc        1 IH6      0.064533
     47 H172       14.9010   -0.2270   -1.2500 hc        1 IH6      0.064533
     48 H173       13.2900   -0.9010   -0.7600 hc        1 IH6      0.064533
     49 H22        12.6070   -2.6470   -5.3420 hn        1 IH6      0.500800
@<TRIPOS>BOND
     1    1    2 1   
     2    1   27 1   
     3    1   28 1   
     4    1   29 1   
     5    2    3 3   
     6    3    4 1   
     7    4    5 1   
     8    4   30 1   
     9    4   31 1   
    10    5    6 1   
    11    6    7 ar  
    12    6   11 ar  
    13    7    8 ar  
    14    7   32 1   
    15    8    9 ar  
    16    8   33 1   
    17    9   10 ar  
    18    9   12 1   
    19   10   11 ar  
    20   10   34 1   
    21   11   35 1   
    22   12   13 2   
    23   12   14 2   
    24   12   15 1   
    25   15   16 1   
    26   15   20 1   
    27   16   17 1   
    28   16   36 1   
    29   16   37 1   
    30   17   18 1   
    31   17   38 1   
    32   17   39 1   
    33   18   19 1   
    34   19   20 1   
    35   19   25 1   
    36   19   26 1   
    37   20   21 1   
    38   20   40 1   
    39   21   22 2   
    40   21   23 1   
    41   23   24 1   
    42   23   41 1   
    43   23   49 1   
    44   24   42 1   
    45   25   43 1   
    46   25   44 1   
    47   25   45 1   
    48   26   46 1   
    49   26   47 1   
    50   26   48 1   
@<TRIPOS>SUBSTRUCTURE
     1 IH6         1 TEMP              0 ****  ****    0 ROOT
