@<TRIPOS>MOLECULE
IH6
   49    50     1     0     0
SMALL
bcc


@<TRIPOS>ATOM
      1 C1          0.2300    0.5400    1.0980 c3        1 IH6     -0.040000
      2 C2          1.6510    0.4370    1.0650 c1        1 IH6     -0.028100
      3 C3          2.8450    0.3510    1.0510 c1        1 IH6     -0.207100
      4 C4          4.2720    0.2470    1.0610 c3        1 IH6      0.231500
      5 O1          4.6970    0.1190   -0.3240 os        1 IH6     -0.296900
      6 C5          6.0290   -0.0120   -0.5440 ca        1 IH6      0.248100
      7 C6          6.3960   -0.1720   -1.9060 ca        1 IH6     -0.215500
      8 C7          7.7260   -0.3100   -2.2350 ca        1 IH6      0.039500
      9 C8          8.7420   -0.2920   -1.2540 ca        1 IH6     -0.520500
     10 C9          8.3510   -0.1400    0.0920 ca        1 IH6      0.039500
     11 C10         7.0230    0.0010    0.4550 ca        1 IH6     -0.215500
     12 S1         10.3000   -0.5480   -1.6360 sy        1 IH6      1.547200
     13 O2         10.4480   -1.2800   -2.8570 o         1 IH6     -0.676800
     14 O3         11.0450   -1.0480   -0.5650 o         1 IH6     -0.676800
     15 N1         10.9190    0.9580   -2.0710 n3        1 IH6     -0.786500
     16 C11        10.2600    2.2250   -1.8730 c3        1 IH6      0.216800
     17 C12        11.1360    3.3260   -1.3000 c3        1 IH6     -0.052300
     18 S2         12.5160    3.6390   -2.3390 ss        1 IH6     -0.207200
     19 C13        13.2100    2.0050   -2.4880 c3        1 IH6      0.005100
     20 C14        12.1500    0.9170   -2.7940 c3        1 IH6      0.219500
     21 C15        11.8380    0.9170   -4.3160 c         1 IH6      0.518100
     22 O4         11.3580    1.7750   -5.0300 o         1 IH6     -0.398100
     23 N2         12.0720   -0.4380   -5.0070 ny        1 IH6     -0.479300
     24 O5         12.0110   -0.4030   -6.3560 oh        1 IH6     -0.365300
     25 C16        14.2160    2.1000   -3.6170 c3        1 IH6     -0.103600
     26 C17        13.9170    1.6130   -1.2010 c3        1 IH6     -0.103600
     27 H11        -0.0840    1.5520    1.4670 hc        1 IH6      0.071700
     28 H12        -0.2050   -0.2380    1.7810 hc        1 IH6      0.071700
     29 H13        -0.1960    0.3880    0.0710 hc        1 IH6      0.071700
     30 H41         4.7440    1.1730    1.4930 h1        1 IH6      0.067700
     31 H42         4.6100   -0.6670    1.6230 h1        1 IH6      0.067700
     32 H6          5.6050   -0.1920   -2.6720 ha        1 IH6      0.172000
     33 H7          8.0090   -0.4600   -3.2920 ha        1 IH6      0.155500
     34 H9          9.1290   -0.1520    0.8800 ha        1 IH6      0.155500
     35 H10         6.7550    0.1110    1.5160 ha        1 IH6      0.172000
     36 H111        9.8460    2.5810   -2.8640 h1        1 IH6      0.071200
     37 H112        9.3910    2.0570   -1.1710 h1        1 IH6      0.071200
     38 H121       10.5500    4.2810   -1.2630 h1        1 IH6      0.100700
     39 H122       11.4590    3.0800   -0.2580 h1        1 IH6      0.100700
     40 H14        12.6560   -0.0760   -2.5490 h1        1 IH6      0.091700
     41 HN2        11.3690   -1.1300   -4.6420 hn        1 IH6      0.500800
     42 HO5        11.3590    0.2860   -6.6300 ho        1 IH6      0.478000
     43 H161       14.6010    1.0860   -3.8880 hc        1 IH6      0.064533
     44 H162       15.0880    2.7240   -3.2930 hc        1 IH6      0.064533
     45 H163       13.7670    2.5810   -4.5210 hc        1 IH6      0.064533
     46 H171       14.4970    0.6670   -1.3390 hc        1 IH6      0.064533
     47 H172       14.6300    2.4220   -0.9050 hc        1 IH6      0.064533
     48 H173       13.1850    1.4640   -0.3700 hc        1 IH6      0.064533
     49 H22        13.0230   -0.7850   -4.7790 hn        1 IH6      0.500800
@<TRIPOS>BOND
     1    1    2 1   
     2    1   27 1   
     3    1   28 1   
     4    1   29 1   
     5    2    3 3   
     6    3    4 1   
     7    4    5 1   
     8    4   30 1   
     9    4   31 1   
    10    5    6 1   
    11    6    7 ar  
    12    6   11 ar  
    13    7    8 ar  
    14    7   32 1   
    15    8    9 ar  
    16    8   33 1   
    17    9   10 ar  
    18    9   12 1   
    19   10   11 ar  
    20   10   34 1   
    21   11   35 1   
    22   12   13 2   
    23   12   14 2   
    24   12   15 1   
    25   15   16 1   
    26   15   20 1   
    27   16   17 1   
    28   16   36 1   
    29   16   37 1   
    30   17   18 1   
    31   17   38 1   
    32   17   39 1   
    33   18   19 1   
    34   19   20 1   
    35   19   25 1   
    36   19   26 1   
    37   20   21 1   
    38   20   40 1   
    39   21   22 2   
    40   21   23 1   
    41   23   24 1   
    42   23   41 1   
    43   23   49 1   
    44   24   42 1   
    45   25   43 1   
    46   25   44 1   
    47   25   45 1   
    48   26   46 1   
    49   26   47 1   
    50   26   48 1   
@<TRIPOS>SUBSTRUCTURE
     1 IH6         1 TEMP              0 ****  ****    0 ROOT
