@<TRIPOS>MOLECULE
IH6
   48    49     1     0     0
SMALL
bcc


@<TRIPOS>ATOM
      1 C1          9.0330   -1.6540    0.3840 c3        1 IH6     -0.028000
      2 C2          7.7610   -1.0270    0.5310 c1        1 IH6     -0.075100
      3 C3          6.6970   -0.4960    0.6640 c1        1 IH6     -0.170100
      4 C4          5.4280    0.1480    0.8430 c3        1 IH6      0.221500
      5 O1          4.6040   -0.1980   -0.2930 os        1 IH6     -0.313900
      6 C5          3.3380    0.3300   -0.2970 ca        1 IH6      0.200100
      7 C6          2.5570   -0.0230   -1.4200 ca        1 IH6     -0.212000
      8 C7          1.2620    0.4550   -1.5160 ca        1 IH6      0.025500
      9 C8          0.7080    1.2810   -0.5230 ca        1 IH6     -0.436500
     10 C9          1.5060    1.6250    0.5750 ca        1 IH6      0.025500
     11 C10         2.8110    1.1620    0.7020 ca        1 IH6     -0.212000
     12 S1         -0.8460    1.8790   -0.6750 sy        1 IH6      1.513200
     13 O2         -1.2170    1.8580   -2.0390 o         1 IH6     -0.651300
     14 O3         -0.9180    3.1260   -0.0170 o         1 IH6     -0.651300
     15 N1         -1.7710    0.7880    0.1430 n3        1 IH6     -0.795500
     16 C11        -1.9120    0.8760    1.5770 c3        1 IH6      0.210800
     17 C12        -3.3420    1.1010    2.0450 c3        1 IH6     -0.031300
     18 S2         -4.4280   -0.1590    1.4670 ss        1 IH6     -0.280200
     19 C13        -3.9950   -0.3020   -0.2690 c3        1 IH6      0.025100
     20 C14        -2.4660   -0.2780   -0.5280 c3        1 IH6      0.182500
     21 C15        -1.8540   -1.6650   -0.2160 c         1 IH6      0.574100
     22 O4         -1.4400   -2.0120    0.8980 o         1 IH6     -0.540100
     23 N2         -1.6150   -2.5070   -1.3520 n         1 IH6     -0.351400
     24 O5         -1.4280   -3.7960   -1.0550 oh        1 IH6     -0.438100
     25 C16        -4.6080   -1.6190   -0.6930 c3        1 IH6     -0.094100
     26 C17        -4.6440    0.8340   -1.0380 c3        1 IH6     -0.094100
     27 H11         9.2260   -2.3580    1.2350 hc        1 IH6      0.062033
     28 H12         9.0710   -2.2360   -0.5740 hc        1 IH6      0.062033
     29 H13         9.8510   -0.8860    0.3650 hc        1 IH6      0.062033
     30 H41         4.9240   -0.2150    1.7820 h1        1 IH6      0.062700
     31 H42         5.5500    1.2670    0.8760 h1        1 IH6      0.062700
     32 H6          2.9910   -0.6680   -2.1970 ha        1 IH6      0.154000
     33 H7          0.6510    0.1950   -2.3990 ha        1 IH6      0.154000
     34 H9          1.0920    2.2930    1.3520 ha        1 IH6      0.154000
     35 H10         3.4080    1.4530    1.5770 ha        1 IH6      0.154000
     36 H111       -1.5210   -0.0730    2.0510 h1        1 IH6      0.076200
     37 H112       -1.2780    1.7400    1.9380 h1        1 IH6      0.076200
     38 H121       -3.3770    1.0480    3.1620 h1        1 IH6      0.082700
     39 H122       -3.7060    2.1090    1.7300 h1        1 IH6      0.082700
     40 H14        -2.3450   -0.0890   -1.6470 h1        1 IH6      0.100700
     41 HN2        -2.3680   -2.4610   -2.0330 hn        1 IH6      0.297500
     42 HO5        -0.5520   -3.8460   -0.6220 ho        1 IH6      0.436000
     43 H161       -5.7120   -1.5970   -0.5070 hc        1 IH6      0.053200
     44 H162       -4.4470   -1.7910   -1.7860 hc        1 IH6      0.053200
     45 H163       -4.1780   -2.4740   -0.1160 hc        1 IH6      0.053200
     46 H171       -4.2560    1.8220   -0.6920 hc        1 IH6      0.053200
     47 H172       -4.4380    0.7370   -2.1330 hc        1 IH6      0.053200
     48 H173       -5.7500    0.8150   -0.8820 hc        1 IH6      0.053200
@<TRIPOS>BOND
     1    1    2 1   
     2    1   27 1   
     3    1   28 1   
     4    1   29 1   
     5    2    3 3   
     6    3    4 1   
     7    4    5 1   
     8    4   30 1   
     9    4   31 1   
    10    5    6 1   
    11    6    7 ar  
    12    6   11 ar  
    13    7    8 ar  
    14    7   32 1   
    15    8    9 ar  
    16    8   33 1   
    17    9   10 ar  
    18    9   12 1   
    19   10   11 ar  
    20   10   34 1   
    21   11   35 1   
    22   12   13 2   
    23   12   14 2   
    24   12   15 1   
    25   15   16 1   
    26   15   20 1   
    27   16   17 1   
    28   16   36 1   
    29   16   37 1   
    30   17   18 1   
    31   17   38 1   
    32   17   39 1   
    33   18   19 1   
    34   19   20 1   
    35   19   25 1   
    36   19   26 1   
    37   20   21 1   
    38   20   40 1   
    39   21   22 2   
    40   21   23 1   
    41   23   24 1   
    42   23   41 1   
    43   24   42 1   
    44   25   43 1   
    45   25   44 1   
    46   25   45 1   
    47   26   46 1   
    48   26   47 1   
    49   26   48 1   
@<TRIPOS>SUBSTRUCTURE
     1 IH6         1 TEMP              0 ****  ****    0 ROOT
