@<TRIPOS>MOLECULE
IH9
   28    28     1     0     0
SMALL
bcc


@<TRIPOS>ATOM
      1 OAD        -0.0100    0.1550   -0.2580 o         1 IH9     -0.723533
      2 SAO         1.3350   -0.1530   -0.0170 s6        1 IH9      1.444800
      3 OAA         1.7340   -0.2650    1.3090 o         1 IH9     -0.723533
      4 OAB         1.9060   -1.0390   -0.9380 o         1 IH9     -0.723533
      5 CAJ         2.1480    1.4640   -0.5540 c3        1 IH9     -0.305600
      6 CAI         1.7600    1.6880   -1.9670 c3        1 IH9      0.162800
      7 NAL         2.3190    2.9790   -2.5140 n4        1 IH9     -0.769000
      8 CAK         1.9130    3.2170   -3.9260 c3        1 IH9      0.156100
      9 CAN         2.4890    4.4870   -4.4650 ca        1 IH9     -0.127300
     10 CAH         3.8460    4.5380   -4.7900 ca        1 IH9     -0.151000
     11 CAG         1.6680    5.6010   -4.6600 ca        1 IH9     -0.138000
     12 CAE         2.2050    6.7750   -5.1890 ca        1 IH9     -0.082000
     13 CAF         3.5550    6.8510   -5.5170 ca        1 IH9     -0.184000
     14 CAM         4.3740    5.7280   -5.3150 ca        1 IH9      0.137100
     15 OAC         5.7150    5.7170   -5.6070 oh        1 IH9     -0.486100
     16 H1          1.7720    2.2430    0.1410 h1        1 IH9      0.083200
     17 H2          2.1450    0.8490   -2.6190 hx        1 IH9      0.111700
     18 H3          1.9960    3.7520   -1.9250 hn        1 IH9      0.437300
     19 H4          2.2650    2.3370   -4.5400 hx        1 IH9      0.107200
     20 H5          0.7850    3.2410   -3.9620 hx        1 IH9      0.107200
     21 H6          4.5040    3.6660   -4.6610 ha        1 IH9      0.156000
     22 H7          0.5970    5.5530   -4.4100 ha        1 IH9      0.146000
     23 H8          1.5540    7.6500   -5.3480 ha        1 IH9      0.151000
     24 H9          3.9780    7.7770   -5.9330 ha        1 IH9      0.149000
     25 H10         5.9520    6.5800   -5.9810 ho        1 IH9      0.432000
     26 H12         3.2400    1.3280   -0.4080 h1        1 IH9      0.083200
     27 H13         0.6340    1.7420   -2.0600 hx        1 IH9      0.111700
     28 HAL2        3.3420    2.9510   -2.4500 hn        1 IH9      0.437300
@<TRIPOS>BOND
     1    1    2 1   
     2    2    3 1   
     3    2    4 1   
     4    2    5 1   
     5    5    6 1   
     6    5   16 1   
     7    5   26 1   
     8    6    7 1   
     9    6   17 1   
    10    6   27 1   
    11    7    8 1   
    12    7   18 1   
    13    7   28 1   
    14    8    9 1   
    15    8   19 1   
    16    8   20 1   
    17    9   10 ar  
    18    9   11 ar  
    19   10   14 ar  
    20   10   21 1   
    21   11   12 ar  
    22   11   22 1   
    23   12   13 ar  
    24   12   23 1   
    25   13   14 ar  
    26   13   24 1   
    27   14   15 1   
    28   15   25 1   
@<TRIPOS>SUBSTRUCTURE
     1 IH9         1 TEMP              0 ****  ****    0 ROOT
