@<TRIPOS>MOLECULE
IH9
   28    28     1     0     0
SMALL
bcc


@<TRIPOS>ATOM
      1 OAD         0.0040    0.1460   -0.2580 o         1 IH9     -0.723533
      2 SAO         1.3500   -0.1750   -0.0380 s6        1 IH9      1.444800
      3 OAA         1.7660   -0.3040    1.2810 o         1 IH9     -0.723533
      4 OAB         1.9010   -1.0570   -0.9750 o         1 IH9     -0.723533
      5 CAJ         2.1690    1.4400   -0.5700 c3        1 IH9     -0.305600
      6 CAI         1.7620    1.6820   -1.9750 c3        1 IH9      0.162800
      7 NAL         2.3250    2.9730   -2.5170 ny        1 IH9     -0.769000
      8 CAK         1.8990    3.2300   -3.9200 c3        1 IH9      0.156100
      9 CAN         2.4780    4.5000   -4.4540 ca        1 IH9     -0.127300
     10 CAH         3.8300    4.5430   -4.8000 ca        1 IH9     -0.150000
     11 CAG         1.6640    5.6240   -4.6250 ca        1 IH9     -0.138000
     12 CAE         2.2040    6.7990   -5.1490 ca        1 IH9     -0.082000
     13 CAF         3.5500    6.8660   -5.4970 ca        1 IH9     -0.184000
     14 CAM         4.3610    5.7340   -5.3200 ca        1 IH9      0.137100
     15 OAC         5.6970    5.7150   -5.6340 oh        1 IH9     -0.486100
     16 H1          1.8090    2.2150    0.1390 h1        1 IH9      0.083200
     17 H2          2.1310    0.8460   -2.6410 hx        1 IH9      0.111700
     18 H3          2.0170    3.7430   -1.9150 hn        1 IH9      0.437300
     19 H4          2.2360    2.3530   -4.5480 hx        1 IH9      0.107200
     20 H5          0.7710    3.2630   -3.9390 hx        1 IH9      0.107200
     21 H6          4.4830    3.6640   -4.6910 ha        1 IH9      0.156000
     22 H7          0.5970    5.5830   -4.3580 ha        1 IH9      0.145000
     23 H8          1.5590    7.6810   -5.2880 ha        1 IH9      0.151000
     24 H9          3.9740    7.7930   -5.9090 ha        1 IH9      0.149000
     25 H10         5.9360    6.5790   -6.0020 ho        1 IH9      0.432000
     26 H12         3.2610    1.2930   -0.4420 h1        1 IH9      0.083200
     27 H13         0.6360    1.7460   -2.0510 hx        1 IH9      0.111700
     28 HAL2        3.3480    2.9360   -2.4680 hn        1 IH9      0.437300
@<TRIPOS>BOND
     1    1    2 1   
     2    2    3 1   
     3    2    4 1   
     4    2    5 1   
     5    5    6 1   
     6    5   16 1   
     7    5   26 1   
     8    6    7 1   
     9    6   17 1   
    10    6   27 1   
    11    7    8 1   
    12    7   18 1   
    13    7   28 1   
    14    8    9 1   
    15    8   19 1   
    16    8   20 1   
    17    9   10 ar  
    18    9   11 ar  
    19   10   14 ar  
    20   10   21 1   
    21   11   12 ar  
    22   11   22 1   
    23   12   13 ar  
    24   12   23 1   
    25   13   14 ar  
    26   13   24 1   
    27   14   15 1   
    28   15   25 1   
@<TRIPOS>SUBSTRUCTURE
     1 IH9         1 TEMP              0 ****  ****    0 ROOT
