@<TRIPOS>MOLECULE
IH9
   28    28     1     0     0
SMALL
bcc


@<TRIPOS>ATOM
      1 OAD         0.0090    0.1470   -0.2520 o         1 IH9     -0.723533
      2 SAO         1.3550   -0.1720   -0.0320 s6        1 IH9      1.444800
      3 OAA         1.7710   -0.2970    1.2880 o         1 IH9     -0.723533
      4 OAB         1.9070   -1.0540   -0.9670 o         1 IH9     -0.723533
      5 CAJ         2.1720    1.4440   -0.5670 c3        1 IH9     -0.305600
      6 CAI         1.7650    1.6830   -1.9720 c3        1 IH9      0.162800
      7 NAL         2.3260    2.9740   -2.5160 n4        1 IH9     -0.769000
      8 CAK         1.9000    3.2280   -3.9200 c3        1 IH9      0.156100
      9 CAN         2.4770    4.4980   -4.4550 ca        1 IH9     -0.127300
     10 CAH         3.8290    4.5420   -4.8030 ca        1 IH9     -0.150000
     11 CAG         1.6620    5.6210   -4.6250 ca        1 IH9     -0.138000
     12 CAE         2.1990    6.7960   -5.1520 ca        1 IH9     -0.082000
     13 CAF         3.5450    6.8640   -5.5020 ca        1 IH9     -0.184000
     14 CAM         4.3570    5.7330   -5.3260 ca        1 IH9      0.137100
     15 OAC         5.6930    5.7140   -5.6420 oh        1 IH9     -0.486100
     16 H1          3.2650    1.2980   -0.4380 h1        1 IH9      0.083200
     17 H2          2.1350    0.8460   -2.6360 hx        1 IH9      0.111700
     18 H3          2.0180    3.7440   -1.9150 hn        1 IH9      0.437300
     19 H4          2.2370    2.3510   -4.5460 hx        1 IH9      0.107200
     20 H5          0.7720    3.2600   -3.9380 hx        1 IH9      0.107200
     21 H6          4.4820    3.6630   -4.6960 ha        1 IH9      0.156000
     22 H7          0.5950    5.5800   -4.3570 ha        1 IH9      0.145000
     23 H8          1.5530    7.6780   -5.2910 ha        1 IH9      0.151000
     24 H9          3.9680    7.7920   -5.9160 ha        1 IH9      0.149000
     25 H10         5.9310    6.5780   -6.0110 ho        1 IH9      0.432000
     26 H12         1.8110    2.2190    0.1410 h1        1 IH9      0.083200
     27 H13         0.6390    1.7450   -2.0490 hx        1 IH9      0.111700
     28 HAL2        3.3490    2.9380   -2.4680 hn        1 IH9      0.437300
@<TRIPOS>BOND
     1    1    2 1   
     2    2    3 1   
     3    2    4 1   
     4    2    5 1   
     5    5    6 1   
     6    5   16 1   
     7    5   26 1   
     8    6    7 1   
     9    6   17 1   
    10    6   27 1   
    11    7    8 1   
    12    7   18 1   
    13    7   28 1   
    14    8    9 1   
    15    8   19 1   
    16    8   20 1   
    17    9   10 ar  
    18    9   11 ar  
    19   10   14 ar  
    20   10   21 1   
    21   11   12 ar  
    22   11   22 1   
    23   12   13 ar  
    24   12   23 1   
    25   13   14 ar  
    26   13   24 1   
    27   14   15 1   
    28   15   25 1   
@<TRIPOS>SUBSTRUCTURE
     1 IH9         1 TEMP              0 ****  ****    0 ROOT
