@<TRIPOS>MOLECULE
IH9
   27    27     1     0     0
SMALL
bcc


@<TRIPOS>ATOM
      1 OAD         4.3530   -0.7130    0.3660 o         1 IH9     -0.750867
      2 SAO         3.7300    0.4550   -0.1310 s6        1 IH9      1.431800
      3 OAA         4.1460    1.6470    0.5080 o         1 IH9     -0.750867
      4 OAB         3.7070    0.5400   -1.5440 o         1 IH9     -0.750867
      5 CAJ         2.0150    0.3010    0.3440 c3        1 IH9     -0.325600
      6 CAI         1.3540   -0.9000   -0.2930 c3        1 IH9      0.185800
      7 NAL        -0.0560   -1.1120   -0.0110 n3        1 IH9     -0.815200
      8 CAK        -0.9260   -0.1740   -0.6970 c3        1 IH9      0.193100
      9 CAN        -2.3660   -0.2650   -0.2790 ca        1 IH9     -0.035300
     10 CAH        -3.0790    0.9060   -0.0110 ca        1 IH9     -0.209000
     11 CAG        -3.0110   -1.5040   -0.1900 ca        1 IH9     -0.146000
     12 CAE        -4.3580   -1.5730    0.1640 ca        1 IH9     -0.109000
     13 CAF        -5.0850   -0.4150    0.4300 ca        1 IH9     -0.170000
     14 CAM        -4.4340    0.8240    0.3390 ca        1 IH9      0.112100
     15 OAC        -5.1950    1.9420    0.6110 oh        1 IH9     -0.511100
     16 H1          1.9640    0.2280    1.4560 h1        1 IH9      0.062700
     17 H2          1.4880   -0.8330   -1.4110 h1        1 IH9      0.063700
     18 H3         -0.2140   -1.0510    0.9800 hn        1 IH9      0.345800
     19 H4         -0.5800    0.8970   -0.5780 h1        1 IH9      0.042700
     20 H5         -0.8700   -0.4140   -1.8000 h1        1 IH9      0.042700
     21 H6         -2.5830    1.8850   -0.0710 ha        1 IH9      0.136000
     22 H7         -2.4450   -2.4250   -0.3970 ha        1 IH9      0.152000
     23 H8         -4.8550   -2.5510    0.2340 ha        1 IH9      0.125000
     24 H9         -6.1460   -0.4550    0.7080 ha        1 IH9      0.138000
     25 H10        -4.6160    2.7150    0.5390 ho        1 IH9      0.415000
     26 H12         1.4920    1.2420    0.0520 h1        1 IH9      0.062700
     27 H13         1.8870   -1.8300    0.0630 h1        1 IH9      0.063700
@<TRIPOS>BOND
     1    1    2 1   
     2    2    3 1   
     3    2    4 1   
     4    2    5 1   
     5    5    6 1   
     6    5   16 1   
     7    5   26 1   
     8    6    7 1   
     9    6   17 1   
    10    6   27 1   
    11    7    8 1   
    12    7   18 1   
    13    8    9 1   
    14    8   19 1   
    15    8   20 1   
    16    9   10 ar  
    17    9   11 ar  
    18   10   14 ar  
    19   10   21 1   
    20   11   12 ar  
    21   11   22 1   
    22   12   13 ar  
    23   12   23 1   
    24   13   14 ar  
    25   13   24 1   
    26   14   15 1   
    27   15   25 1   
@<TRIPOS>SUBSTRUCTURE
     1 IH9         1 TEMP              0 ****  ****    0 ROOT
