@<TRIPOS>MOLECULE
IHA
   50    53     1     0     0
SMALL
bcc


@<TRIPOS>ATOM
      1 O27        -8.4210   -2.9210   -2.0240 o         1 IHA     -0.815300
      2 C25        -8.4000   -2.3630   -0.8970 c         1 IHA      0.928600
      3 O26        -8.9400   -2.7900    0.1560 o         1 IHA     -0.815300
      4 C24        -7.7090   -0.9660   -0.8150 c3        1 IHA     -0.015600
      5 O23        -6.3340   -1.1990   -0.4820 os        1 IHA     -0.279900
      6 C22        -5.5380   -0.0960   -0.3610 ca        1 IHA      0.166100
      7 C21        -4.1970   -0.3650   -0.0350 ca        1 IHA     -0.133000
      8 C28        -5.9870    1.2330   -0.5430 ca        1 IHA     -0.195000
      9 C29        -5.1110    2.2970   -0.4020 ca        1 IHA     -0.061000
     10 C30        -3.7780    2.0610   -0.0810 ca        1 IHA     -0.132100
     11 C20        -3.3140    0.7120    0.1070 ca        1 IHA      0.114400
     12 N19        -1.9490    0.6140    0.4340 nc        1 IHA     -0.528100
     13 S31        -2.4910    3.1420    0.1470 ss        1 IHA     -0.073100
     14 C18        -1.4170    1.8220    0.4860 cd        1 IHA      0.328200
     15 C17         0.0080    2.1200    0.8450 c3        1 IHA      0.200500
     16 N16         0.9580    1.2810    0.1510 nh        1 IHA     -0.817900
     17 C15         2.2840    1.2470    0.5710 ca        1 IHA      0.812900
     18 N14         2.7850    2.2960    1.3880 nb        1 IHA     -0.399000
     19 N13         4.0150    2.3160    1.6870 nb        1 IHA     -0.261000
     20 C12         4.8670    1.3460    1.2570 ca        1 IHA      0.160900
     21 N32         3.0830    0.2030    0.0990 nb        1 IHA     -0.700000
     22 C11         4.3830    0.2670    0.4580 cp        1 IHA      0.468500
     23 C10         5.3060   -0.7940    0.0330 cp        1 IHA     -0.212500
     24 C3          5.0850   -2.1410    0.3930 ca        1 IHA      0.184600
     25 O2          4.0190   -2.3670    1.2350 os        1 IHA     -0.314900
     26 C1          3.5750   -3.7160    1.3460 c3        1 IHA      0.114200
     27 C7          6.4340   -0.4980   -0.7600 ca        1 IHA      0.184600
     28 O8          6.6220    0.8390   -1.0480 os        1 IHA     -0.314900
     29 C9          7.6150    1.1420   -2.0220 c3        1 IHA      0.114200
     30 C6          7.2960   -1.5110   -1.2020 ca        1 IHA     -0.243000
     31 C5          7.0370   -2.8320   -0.8460 ca        1 IHA     -0.051000
     32 C4          5.9450   -3.1580   -0.0500 ca        1 IHA     -0.243000
     33 H2         -7.7670   -0.4490   -1.8060 h1        1 IHA      0.022700
     34 H3         -8.1850   -0.3460   -0.0150 h1        1 IHA      0.022700
     35 H4         -3.8660   -1.4040    0.1040 ha        1 IHA      0.167000
     36 H5         -7.0400    1.4240   -0.7970 ha        1 IHA      0.150000
     37 H6         -5.4700    3.3270   -0.5450 ha        1 IHA      0.128000
     38 H7          0.2330    3.1960    0.5800 h1        1 IHA      0.070700
     39 H8          0.1140    2.0120    1.9670 h1        1 IHA      0.070700
     40 H9          0.6020    0.4440   -0.2640 hn        1 IHA      0.458800
     41 H10         5.9260    1.4340    1.5340 h4        1 IHA      0.041100
     42 H11         2.6180   -3.6240    1.9200 h1        1 IHA      0.047533
     43 H12         3.3910   -4.1620    0.3390 h1        1 IHA      0.047533
     44 H13         4.3210   -4.3220    1.9160 h1        1 IHA      0.047533
     45 H14         7.5040    2.2480   -2.1660 h1        1 IHA      0.047533
     46 H15         8.6330    0.8970   -1.6310 h1        1 IHA      0.047533
     47 H16         7.4180    0.5980   -2.9770 h1        1 IHA      0.047533
     48 H17         8.1680   -1.2750   -1.8260 ha        1 IHA      0.140500
     49 H18         7.7100   -3.6290   -1.1980 ha        1 IHA      0.132000
     50 H19         5.7600   -4.2050    0.2260 ha        1 IHA      0.140500
@<TRIPOS>BOND
     1    1    2 1   
     2    2    3 1   
     3    2    4 1   
     4    4    5 1   
     5    4   33 1   
     6    4   34 1   
     7    5    6 1   
     8    6    7 ar  
     9    6    8 ar  
    10    7   11 ar  
    11    7   35 1   
    12    8    9 ar  
    13    8   36 1   
    14    9   10 ar  
    15    9   37 1   
    16   10   11 ar  
    17   10   13 1   
    18   11   12 1   
    19   12   14 2   
    20   13   14 1   
    21   14   15 1   
    22   15   16 1   
    23   15   38 1   
    24   15   39 1   
    25   16   17 1   
    26   16   40 1   
    27   17   18 ar  
    28   17   21 ar  
    29   18   19 ar  
    30   19   20 ar  
    31   20   22 ar  
    32   20   41 1   
    33   21   22 ar  
    34   22   23 1   
    35   23   24 ar  
    36   23   27 ar  
    37   24   25 1   
    38   24   32 ar  
    39   25   26 1   
    40   26   42 1   
    41   26   43 1   
    42   26   44 1   
    43   27   28 1   
    44   27   30 ar  
    45   28   29 1   
    46   29   45 1   
    47   29   46 1   
    48   29   47 1   
    49   30   31 ar  
    50   30   48 1   
    51   31   32 ar  
    52   31   49 1   
    53   32   50 1   
@<TRIPOS>SUBSTRUCTURE
     1 IHA         1 TEMP              0 ****  ****    0 ROOT
