@<TRIPOS>MOLECULE
IHA
   50    53     1     0     0
SMALL
bcc


@<TRIPOS>ATOM
      1 O27         0.7780   -2.2930   -0.8880 o         1 IHA     -0.815300
      2 C25         1.3660   -1.2690   -0.4540 c         1 IHA      0.928600
      3 O26         1.3340   -0.8350    0.7260 o         1 IHA     -0.815300
      4 C24         2.1430   -0.4080   -1.4990 c3        1 IHA     -0.015600
      5 O23         3.4890   -0.9010   -1.5280 os        1 IHA     -0.279900
      6 C22         4.3490   -0.2800   -2.3880 ca        1 IHA      0.166100
      7 C21         5.6600   -0.7910   -2.3880 ca        1 IHA     -0.133000
      8 C28         3.9920    0.7970   -3.2310 ca        1 IHA     -0.195000
      9 C29         4.9290    1.3700   -4.0760 ca        1 IHA     -0.061000
     10 C30         6.2330    0.8840   -4.0990 ca        1 IHA     -0.132100
     11 C20         6.6040   -0.2100   -3.2430 ca        1 IHA      0.114400
     12 N19         7.9520   -0.6000   -3.3590 nc        1 IHA     -0.528100
     13 S31         7.5740    1.3700   -5.0160 ss        1 IHA     -0.073100
     14 C18         8.5570    0.1590   -4.2560 cd        1 IHA      0.328200
     15 C17        10.0080    0.0670   -4.6210 c3        1 IHA      0.200500
     16 N16        10.4510   -1.2870   -4.8620 nh        1 IHA     -0.817900
     17 C15        11.8120   -1.5640   -4.9390 ca        1 IHA      0.812900
     18 N14        12.7280   -0.5050   -5.1800 nb        1 IHA     -0.399000
     19 N13        13.9540   -0.7710   -5.3500 nb        1 IHA     -0.261000
     20 C12        14.4190   -2.0480   -5.2900 ca        1 IHA      0.160900
     21 N32        12.2040   -2.9020   -4.8450 nb        1 IHA     -0.700000
     22 C11        13.5230   -3.1270   -5.0210 cp        1 IHA      0.468500
     23 C10        14.0450   -4.4980   -4.9210 cp        1 IHA     -0.212500
     24 C3         13.8860   -5.2530   -3.7400 ca        1 IHA      0.184600
     25 O2         13.3070   -4.5920   -2.6800 os        1 IHA     -0.314900
     26 C1         12.8360   -5.4040   -1.6080 c3        1 IHA      0.114200
     27 C7         14.7090   -5.1010   -6.0090 ca        1 IHA      0.184600
     28 O8         14.8710   -4.3010   -7.1230 os        1 IHA     -0.314900
     29 C9         15.3340   -4.9480   -8.3030 c3        1 IHA      0.114200
     30 C6         15.1730   -6.4220   -5.9330 ca        1 IHA     -0.243000
     31 C5         14.9810   -7.1470   -4.7600 ca        1 IHA     -0.051000
     32 C4         14.3470   -6.5770   -3.6620 ca        1 IHA     -0.243000
     33 H2          1.6840   -0.5250   -2.5120 h1        1 IHA      0.022700
     34 H3          2.1480    0.6660   -1.1860 h1        1 IHA      0.022700
     35 H4          5.9200   -1.6290   -1.7250 ha        1 IHA      0.167000
     36 H5          2.9630    1.1850   -3.2170 ha        1 IHA      0.150000
     37 H6          4.6410    2.2080   -4.7290 ha        1 IHA      0.128000
     38 H7         10.1850    0.6650   -5.5630 h1        1 IHA      0.071200
     39 H8         10.6070    0.5490   -3.7890 h1        1 IHA      0.071200
     40 H9          9.8670   -2.0210   -4.5140 hn        1 IHA      0.458800
     41 H10        15.4900   -2.2130   -5.4660 h4        1 IHA      0.041100
     42 H11        12.1710   -6.2180   -1.9830 h1        1 IHA      0.047533
     43 H12        12.2610   -4.6820   -0.9740 h1        1 IHA      0.047533
     44 H13        13.6990   -5.8290   -1.0390 h1        1 IHA      0.047533
     45 H14        16.3890   -5.2920   -8.1710 h1        1 IHA      0.047533
     46 H15        14.6720   -5.8050   -8.5750 h1        1 IHA      0.047533
     47 H16        15.2760   -4.1410   -9.0770 h1        1 IHA      0.047533
     48 H17        15.6810   -6.8890   -6.7860 ha        1 IHA      0.140500
     49 H18        15.3390   -8.1860   -4.7020 ha        1 IHA      0.132000
     50 H19        14.2100   -7.1620   -2.7430 ha        1 IHA      0.140500
@<TRIPOS>BOND
     1    1    2 1   
     2    2    3 1   
     3    2    4 1   
     4    4    5 1   
     5    4   33 1   
     6    4   34 1   
     7    5    6 1   
     8    6    7 ar  
     9    6    8 ar  
    10    7   11 ar  
    11    7   35 1   
    12    8    9 ar  
    13    8   36 1   
    14    9   10 ar  
    15    9   37 1   
    16   10   11 ar  
    17   10   13 1   
    18   11   12 1   
    19   12   14 2   
    20   13   14 1   
    21   14   15 1   
    22   15   16 1   
    23   15   38 1   
    24   15   39 1   
    25   16   17 1   
    26   16   40 1   
    27   17   18 ar  
    28   17   21 ar  
    29   18   19 ar  
    30   19   20 ar  
    31   20   22 ar  
    32   20   41 1   
    33   21   22 ar  
    34   22   23 1   
    35   23   24 ar  
    36   23   27 ar  
    37   24   25 1   
    38   24   32 ar  
    39   25   26 1   
    40   26   42 1   
    41   26   43 1   
    42   26   44 1   
    43   27   28 1   
    44   27   30 ar  
    45   28   29 1   
    46   29   45 1   
    47   29   46 1   
    48   29   47 1   
    49   30   31 ar  
    50   30   48 1   
    51   31   32 ar  
    52   31   49 1   
    53   32   50 1   
@<TRIPOS>SUBSTRUCTURE
     1 IHA         1 TEMP              0 ****  ****    0 ROOT
