@<TRIPOS>MOLECULE
IHA
   50    53     1     0     0
SMALL
bcc


@<TRIPOS>ATOM
      1 O27         0.7560   -2.2980   -0.9540 o         1 IHA     -0.815300
      2 C25         1.3440   -1.2820   -0.5020 c         1 IHA      0.928600
      3 O26         1.3040   -0.8640    0.6840 o         1 IHA     -0.815300
      4 C24         2.1330   -0.4100   -1.5290 c3        1 IHA     -0.015600
      5 O23         3.4770   -0.9080   -1.5540 os        1 IHA     -0.279900
      6 C22         4.3460   -0.2790   -2.4000 ca        1 IHA      0.166100
      7 C21         5.6540   -0.7960   -2.3970 ca        1 IHA     -0.133000
      8 C28         3.9990    0.8110   -3.2310 ca        1 IHA     -0.195000
      9 C29         4.9440    1.3910   -4.0610 ca        1 IHA     -0.061000
     10 C30         6.2460    0.8990   -4.0810 ca        1 IHA     -0.132100
     11 C20         6.6070   -0.2080   -3.2370 ca        1 IHA      0.114400
     12 N19         7.9540   -0.6010   -3.3490 nc        1 IHA     -0.528100
     13 S31         7.5960    1.3920   -4.9820 ss        1 IHA     -0.073100
     14 C18         8.5690    0.1670   -4.2310 cd        1 IHA      0.328200
     15 C17        10.0220    0.0740   -4.5870 c3        1 IHA      0.200500
     16 N16        10.4610   -1.2790   -4.8410 nu        1 IHA     -0.817900
     17 C15        11.8220   -1.5600   -4.9130 ca        1 IHA      0.812900
     18 N14        12.7430   -0.5010   -5.1360 nb        1 IHA     -0.399000
     19 N13        13.9690   -0.7700   -5.3020 nb        1 IHA     -0.261000
     20 C12        14.4300   -2.0490   -5.2540 ca        1 IHA      0.160900
     21 N32        12.2080   -2.9000   -4.8340 nb        1 IHA     -0.700000
     22 C11        13.5280   -3.1270   -5.0050 cp        1 IHA      0.468500
     23 C10        14.0440   -4.5010   -4.9180 cp        1 IHA     -0.212500
     24 C3         13.8760   -5.2710   -3.7480 ca        1 IHA      0.184600
     25 O2         13.2940   -4.6200   -2.6830 os        1 IHA     -0.314900
     26 C1         12.8150   -5.4430   -1.6230 c3        1 IHA      0.114200
     27 C7         14.7110   -5.0940   -6.0110 ca        1 IHA      0.184600
     28 O8         14.8820   -4.2820   -7.1140 os        1 IHA     -0.314900
     29 C9         15.3480   -4.9170   -8.3000 c3        1 IHA      0.114200
     30 C6         15.1700   -6.4170   -5.9470 ca        1 IHA     -0.243000
     31 C5         14.9700   -7.1560   -4.7850 ca        1 IHA     -0.051000
     32 C4         14.3330   -6.5960   -3.6820 ca        1 IHA     -0.243000
     33 H2          1.6810   -0.5110   -2.5470 h1        1 IHA      0.022700
     34 H3          2.1390    0.6590   -1.2010 h1        1 IHA      0.022700
     35 H4          5.9060   -1.6430   -1.7440 ha        1 IHA      0.167000
     36 H5          2.9710    1.2020   -3.2190 ha        1 IHA      0.150000
     37 H6          4.6650    2.2390   -4.7040 ha        1 IHA      0.128000
     38 H7         10.6170    0.5430   -3.7450 h1        1 IHA      0.071200
     39 H8         10.2080    0.6830   -5.5210 h1        1 IHA      0.071200
     40 H9          9.8730   -2.0150   -4.5070 hn        1 IHA      0.458800
     41 H10        15.5010   -2.2150   -5.4260 h4        1 IHA      0.041100
     42 H11        12.1490   -6.2500   -2.0110 h1        1 IHA      0.047533
     43 H12        13.6730   -5.8780   -1.0540 h1        1 IHA      0.047533
     44 H13        12.2390   -4.7260   -0.9830 h1        1 IHA      0.047533
     45 H14        15.2960   -4.1000   -9.0640 h1        1 IHA      0.047533
     46 H15        16.4010   -5.2660   -8.1670 h1        1 IHA      0.047533
     47 H16        14.6830   -5.7680   -8.5850 h1        1 IHA      0.047533
     48 H17        15.6810   -6.8760   -6.8040 ha        1 IHA      0.140500
     49 H18        15.3240   -8.1970   -4.7370 ha        1 IHA      0.132000
     50 H19        14.1880   -7.1920   -2.7710 ha        1 IHA      0.140500
@<TRIPOS>BOND
     1    1    2 1   
     2    2    3 1   
     3    2    4 1   
     4    4    5 1   
     5    4   33 1   
     6    4   34 1   
     7    5    6 1   
     8    6    7 ar  
     9    6    8 ar  
    10    7   11 ar  
    11    7   35 1   
    12    8    9 ar  
    13    8   36 1   
    14    9   10 ar  
    15    9   37 1   
    16   10   11 ar  
    17   10   13 1   
    18   11   12 1   
    19   12   14 2   
    20   13   14 1   
    21   14   15 1   
    22   15   16 1   
    23   15   38 1   
    24   15   39 1   
    25   16   17 1   
    26   16   40 1   
    27   17   18 ar  
    28   17   21 ar  
    29   18   19 ar  
    30   19   20 ar  
    31   20   22 ar  
    32   20   41 1   
    33   21   22 ar  
    34   22   23 1   
    35   23   24 ar  
    36   23   27 ar  
    37   24   25 1   
    38   24   32 ar  
    39   25   26 1   
    40   26   42 1   
    41   26   43 1   
    42   26   44 1   
    43   27   28 1   
    44   27   30 ar  
    45   28   29 1   
    46   29   45 1   
    47   29   46 1   
    48   29   47 1   
    49   30   31 ar  
    50   30   48 1   
    51   31   32 ar  
    52   31   49 1   
    53   32   50 1   
@<TRIPOS>SUBSTRUCTURE
     1 IHA         1 TEMP              0 ****  ****    0 ROOT
