@<TRIPOS>MOLECULE
IHA
   51    54     1     0     0
SMALL
bcc


@<TRIPOS>ATOM
      1 O27         0.3390   -1.2770   -0.4810 o         1 IHA     -0.799800
      2 C25         1.4370   -0.7200   -0.2350 c         1 IHA      0.932600
      3 O26         1.9980   -0.5930    0.8800 o         1 IHA     -0.799800
      4 C24         2.1450   -0.0600   -1.4680 c3        1 IHA     -0.031600
      5 O23         3.3920   -0.7520   -1.6250 os        1 IHA     -0.261900
      6 C22         4.2680   -0.2630   -2.5380 ca        1 IHA      0.185100
      7 C21         5.5120   -0.9180   -2.5740 ca        1 IHA     -0.138000
      8 C28         3.9940    0.8200   -3.4140 ca        1 IHA     -0.169000
      9 C29         4.9460    1.2600   -4.3160 ca        1 IHA     -0.058000
     10 C30         6.1930    0.6370   -4.3670 ca        1 IHA     -0.141100
     11 C20         6.4750   -0.4710   -3.4870 ca        1 IHA      0.114400
     12 N19         7.7550   -1.0030   -3.6440 nc        1 IHA     -0.539100
     13 S31         7.5440    0.9570   -5.3290 ss        1 IHA      0.046900
     14 C18         8.4080   -0.3230   -4.5880 cd        1 IHA      0.199200
     15 C17         9.7960   -0.6700   -5.0030 c3        1 IHA      0.133500
     16 N16        10.6000   -1.1480   -3.8230 n4        1 IHA     -0.728700
     17 C15        11.9860   -1.4910   -4.2230 ca        1 IHA      0.625900
     18 N14        12.8760   -0.4370   -4.4360 nb        1 IHA     -0.303000
     19 N13        14.0680   -0.7170   -4.7850 nb        1 IHA     -0.253000
     20 C12        14.4730   -2.0070   -4.9340 ca        1 IHA      0.284900
     21 N32        12.2770   -2.8270   -4.3570 nb        1 IHA     -0.620000
     22 C11        13.5640   -3.0970   -4.7050 cp        1 IHA      0.486500
     23 C10        14.0190   -4.4760   -4.8580 cp        1 IHA     -0.273500
     24 C3         13.7860   -5.4530   -3.8620 ca        1 IHA      0.206600
     25 O2         13.1730   -5.0050   -2.7170 os        1 IHA     -0.336400
     26 C1         12.8770   -5.9840   -1.7200 c3        1 IHA      0.111700
     27 C7         14.7090   -4.8700   -6.0300 ca        1 IHA      0.206600
     28 O8         14.9310   -3.8650   -6.9460 os        1 IHA     -0.336400
     29 C9         15.4980   -4.2540   -8.1980 c3        1 IHA      0.111700
     30 C6         15.1230   -6.1930   -6.2140 ca        1 IHA     -0.241500
     31 C5         14.8620   -7.1360   -5.2210 ca        1 IHA     -0.016000
     32 C4         14.2060   -6.7790   -4.0480 ca        1 IHA     -0.241500
     33 H2          1.5360   -0.1900   -2.3970 h1        1 IHA      0.029700
     34 H3          2.3330    1.0220   -1.2590 h1        1 IHA      0.029700
     35 H4          5.7040   -1.7590   -1.8910 ha        1 IHA      0.175000
     36 H5          3.0090    1.3120   -3.3720 ha        1 IHA      0.166000
     37 H6          4.7200    2.1000   -4.9890 ha        1 IHA      0.141000
     38 H7          9.7830   -1.5070   -5.7620 hx        1 IHA      0.115700
     39 H8         10.3130    0.2310   -5.4430 hx        1 IHA      0.115700
     40 H9         10.6240   -0.4100   -3.1050 hn        1 IHA      0.485800
     41 H10        15.5160   -2.1840   -5.2530 h4        1 IHA      0.083100
     42 H11        12.3600   -5.3870   -0.9260 h1        1 IHA      0.058700
     43 H12        13.8190   -6.4350   -1.3260 h1        1 IHA      0.058700
     44 H13        12.1980   -6.7700   -2.1310 h1        1 IHA      0.058700
     45 H14        14.8520   -5.0110   -8.7030 h1        1 IHA      0.058700
     46 H15        16.5330   -4.6460   -8.0490 h1        1 IHA      0.058700
     47 H16        15.5160   -3.2950   -8.7770 h1        1 IHA      0.058700
     48 H17        15.6490   -6.4970   -7.1290 ha        1 IHA      0.157000
     49 H18        15.1850   -8.1800   -5.3670 ha        1 IHA      0.152000
     50 H19        14.0190   -7.5400   -3.2760 ha        1 IHA      0.157000
     51 H162       10.1400   -1.9810   -3.4150 hn        1 IHA      0.485800
@<TRIPOS>BOND
     1    1    2 1   
     2    2    3 1   
     3    2    4 1   
     4    4    5 1   
     5    4   33 1   
     6    4   34 1   
     7    5    6 1   
     8    6    7 ar  
     9    6    8 ar  
    10    7   11 ar  
    11    7   35 1   
    12    8    9 ar  
    13    8   36 1   
    14    9   10 ar  
    15    9   37 1   
    16   10   11 ar  
    17   10   13 1   
    18   11   12 1   
    19   12   14 2   
    20   13   14 1   
    21   14   15 1   
    22   15   16 1   
    23   15   38 1   
    24   15   39 1   
    25   16   17 1   
    26   16   40 1   
    27   16   51 1   
    28   17   18 ar  
    29   17   21 ar  
    30   18   19 ar  
    31   19   20 ar  
    32   20   22 ar  
    33   20   41 1   
    34   21   22 ar  
    35   22   23 1   
    36   23   24 ar  
    37   23   27 ar  
    38   24   25 1   
    39   24   32 ar  
    40   25   26 1   
    41   26   42 1   
    42   26   43 1   
    43   26   44 1   
    44   27   28 1   
    45   27   30 ar  
    46   28   29 1   
    47   29   45 1   
    48   29   46 1   
    49   29   47 1   
    50   30   31 ar  
    51   30   48 1   
    52   31   32 ar  
    53   31   49 1   
    54   32   50 1   
@<TRIPOS>SUBSTRUCTURE
     1 IHA         1 TEMP              0 ****  ****    0 ROOT
