@<TRIPOS>MOLECULE
IHA
   50    41     1     0     0
SMALL
bcc


@<TRIPOS>ATOM
      1 O27        -3.4920   10.5100    1.6170 o         1 IHA     -0.552000
      2 C25        -2.6370    9.6620    1.3200 c1        1 IHA      0.346000
      3 O26        -1.3950    9.9230    1.4800 o         1 IHA     -0.552000
      4 C24        -3.0690    8.2760    0.8400 c2        1 IHA     -0.116000
      5 O23        -2.5320    7.2630    1.7360 os        1 IHA     -0.168000
      6 C22        -2.0130    6.1190    1.0650 c1        1 IHA      0.115000
      7 C21        -0.8410    5.7810    0.3780 c1        1 IHA     -0.129000
      8 C28        -2.6300    5.1790    1.9090 c1        1 IHA     -0.151000
      9 C29        -2.0700    3.8930    2.0650 c1        1 IHA     -0.129000
     10 C30        -0.9200    3.5570    1.3920 c1        1 IHA     -0.186500
     11 C20        -0.2880    4.5140    0.5310 c1        1 IHA     -0.186500
     12 N19         1.0170    3.8320   -0.1070 n1        1 IHA     -0.100000
     13 S31        -0.0740    2.2440    1.3530 s         1 IHA      0.390000
     14 C18         1.1190    2.4850    0.3980 c1        1 IHA     -0.285000
     15 C17         2.1080    1.4380   -0.1700 c2        1 IHA      0.004000
     16 N16         1.6900    0.1100    0.2290 n3        1 IHA     -0.216000
     17 C15         2.0520   -1.0390   -0.5850 c2        1 IHA      0.051000
     18 N14         3.0960   -0.9530   -1.4610 n2        1 IHA     -0.103000
     19 N13         3.4920   -2.0480   -2.1550 n1        1 IHA     -0.014000
     20 C12         2.8630   -3.2080   -1.9820 c1        1 IHA     -0.222500
     21 N32         1.4180   -2.2080   -0.4120 n1        1 IHA     -0.143000
     22 C11         1.8110   -3.2950   -1.1000 c1        1 IHA      0.129500
     23 C10         1.0540   -4.5800   -0.9650 c2        1 IHA     -0.127000
     24 C3         -0.0450   -4.8300   -1.7820 c1        1 IHA      0.129500
     25 O2         -0.4060   -3.9060   -2.7710 o         1 IHA     -0.203500
     26 C1         -1.7830   -3.5840   -2.7820 c3        1 IHA     -0.077000
     27 C7          1.4700   -5.5260   -0.0600 c1        1 IHA      0.130000
     28 O8          2.6120   -5.2920    0.7290 o         1 IHA     -0.203500
     29 C9          2.4790   -5.7220    2.0520 c3        1 IHA     -0.077000
     30 C6          0.7960   -6.7280    0.0410 c2        1 IHA     -0.256000
     31 C5         -0.2950   -6.9800   -0.7670 c1        1 IHA     -0.048000
     32 C4         -0.7150   -6.0260   -1.6820 c1        1 IHA     -0.222500
     33 H2         -2.7180    8.1210   -0.0880 h4        1 IHA      0.062000
     34 H3         -4.0650    8.2210    0.8320 h4        1 IHA      0.062000
     35 H4         -0.3810    6.4490   -0.1530 ha        1 IHA      0.145500
     36 H5         -3.4370    5.4160    2.3890 ha        1 IHA      0.154000
     37 H6         -2.5030    3.2370    2.6540 ha        1 IHA      0.145500
     38 H7          2.9910    1.6130    0.1730 h4        1 IHA      0.119500
     39 H8          2.1200    1.4950   -1.1210 h4        1 IHA      0.119500
     40 H9          1.1310    0.0030    0.9480 hn        1 IHA      0.210000
     41 H10         3.1500   -4.0010   -2.4840 ha        1 IHA      0.169500
     42 H11        -2.3280   -4.4260   -2.9680 h1        1 IHA      0.092333
     43 H12        -1.9590   -2.9150   -3.4880 h1        1 IHA      0.092333
     44 H13        -2.0410   -3.2110   -1.9060 h1        1 IHA      0.092333
     45 H14         1.8550   -5.1380    2.5230 h1        1 IHA      0.092333
     46 H15         2.1470   -6.6150    2.0650 h1        1 IHA      0.092333
     47 H16         3.3500   -5.6910    2.4930 h1        1 IHA      0.092333
     48 H17         1.0970   -7.4130    0.6990 ha        1 IHA      0.134000
     49 H18        -0.7490   -7.8280   -0.7110 ha        1 IHA      0.132000
     50 H19        -1.5310   -6.1760   -2.2110 ha        1 IHA      0.169500
@<TRIPOS>BOND
     1    1    2 1   
     2    2    3 1   
     3    4    5 1   
     4    4   33 1   
     5    4   34 1   
     6    5    6 1   
     7    6    8 1   
     8    7   11 1   
     9    7   35 1   
    10    8   36 1   
    11    9   10 1   
    12    9   37 1   
    13   12   14 1   
    14   13   14 1   
    15   15   16 1   
    16   15   38 1   
    17   15   39 1   
    18   16   17 1   
    19   16   40 1   
    20   17   18 1   
    21   17   21 1   
    22   18   19 1   
    23   20   22 1   
    24   20   41 1   
    25   22   23 1   
    26   23   24 1   
    27   23   27 1   
    28   24   32 1   
    29   25   26 1   
    30   26   42 1   
    31   26   43 1   
    32   26   44 1   
    33   27   30 1   
    34   28   29 1   
    35   29   45 1   
    36   29   46 1   
    37   29   47 1   
    38   30   31 1   
    39   30   48 1   
    40   31   49 1   
    41   32   50 1   
@<TRIPOS>SUBSTRUCTURE
     1 IHA         1 TEMP              0 ****  ****    0 ROOT
