@<TRIPOS>MOLECULE
IHB
   15    15     1     0     0
SMALL
bcc


@<TRIPOS>ATOM
      1 C1         -0.0030    0.0020   -0.0040 ca        1 IHB     -0.159600
      2 C2          1.3890    0.0770    0.0450 ca        1 IHB     -0.047000
      3 C3          2.0640    0.1370    1.2680 ca        1 IHB     -0.066100
      4 I3          4.0900    0.2450    1.2520 i         1 IHB     -0.209900
      5 C4          1.3180    0.1210    2.4570 ca        1 IHB      0.123100
      6 O4          1.8700    0.1760    3.7210 oh        1 IHB     -0.516100
      7 C5         -0.0840    0.0460    2.4190 ca        1 IHB     -0.190000
      8 C6         -0.7320   -0.0130    1.1900 ca        1 IHB     -0.059000
      9 C7         -0.7230   -0.0630   -1.3450 c         1 IHB      0.912200
     10 O1         -1.9840   -0.1300   -1.3290 o         1 IHB     -0.827300
     11 O2         -0.0190   -0.0470   -2.3930 o         1 IHB     -0.827300
     12 H2          1.9340    0.0870   -0.9150 ha        1 IHB      0.168000
     13 HO4         2.8330    0.2260    3.6230 ho        1 IHB      0.411000
     14 H5         -0.6440    0.0350    3.3630 ha        1 IHB      0.129000
     15 H6         -1.8320   -0.0730    1.1280 ha        1 IHB      0.159000
@<TRIPOS>BOND
     1    1    2 ar  
     2    1    8 ar  
     3    1    9 1   
     4    2    3 ar  
     5    2   12 1   
     6    3    4 1   
     7    3    5 ar  
     8    5    6 1   
     9    5    7 ar  
    10    6   13 1   
    11    7    8 ar  
    12    7   14 1   
    13    8   15 1   
    14    9   10 1   
    15    9   11 1   
@<TRIPOS>SUBSTRUCTURE
     1 IHB         1 TEMP              0 ****  ****    0 ROOT
