@<TRIPOS>MOLECULE
IHB
   15    15     1     0     0
SMALL
bcc


@<TRIPOS>ATOM
      1 C1         -0.1110   -0.0000    2.3360 ca        1 IHB     -0.159600
      2 C2          0.4180    0.0810    1.0470 ca        1 IHB     -0.047000
      3 C3         -0.4190    0.1430   -0.0700 ca        1 IHB     -0.066100
      4 I3          0.4290    0.2600   -1.9100 i         1 IHB     -0.209900
      5 C4         -1.8090    0.1230    0.1200 ca        1 IHB      0.123100
      6 O4         -2.7350    0.1790   -0.9040 oh        1 IHB     -0.516100
      7 C5         -2.3520    0.0420    1.4130 ca        1 IHB     -0.190000
      8 C6         -1.4980   -0.0190    2.5100 ca        1 IHB     -0.059000
      9 C7          0.8150   -0.0680    3.5440 c         1 IHB      0.912200
     10 O1          0.2820   -0.1400    4.6870 o         1 IHB     -0.827300
     11 O2          2.0600   -0.0470    3.3340 o         1 IHB     -0.827300
     12 H2          1.5170    0.0940    0.9460 ha        1 IHB      0.168000
     13 HO4        -2.2490    0.2330   -1.7400 ho        1 IHB      0.411000
     14 H5         -3.4420    0.0280    1.5340 ha        1 IHB      0.129000
     15 H6         -1.8940   -0.0840    3.5370 ha        1 IHB      0.159000
@<TRIPOS>BOND
     1    1    2 ar  
     2    1    8 ar  
     3    1    9 1   
     4    2    3 ar  
     5    2   12 1   
     6    3    4 1   
     7    3    5 ar  
     8    5    6 1   
     9    5    7 ar  
    10    6   13 1   
    11    7    8 ar  
    12    7   14 1   
    13    8   15 1   
    14    9   10 1   
    15    9   11 1   
@<TRIPOS>SUBSTRUCTURE
     1 IHB         1 TEMP              0 ****  ****    0 ROOT
