@<TRIPOS>MOLECULE
IHB
   15    12     1     0     0
SMALL
bcc


@<TRIPOS>ATOM
      1 C1         -0.6300    0.0430   -0.9680 c1        1 IHB     -0.139000
      2 C2          0.7560    0.0430   -0.9680 c1        1 IHB     -0.047000
      3 C3          1.4490    0.0430    0.2330 c1        1 IHB     -0.352000
      4 I3          3.5560    0.0640    0.2330 i         1 IHB      0.076000
      5 C4          0.7560    0.0430    1.4330 c2        1 IHB      0.078000
      6 O4          1.4600    0.0630    2.6520 oh        1 IHB     -0.270000
      7 C5         -0.6300    0.0430    1.4330 c1        1 IHB     -0.190000
      8 C6         -1.3230    0.0430    0.2330 c1        1 IHB     -0.059000
      9 C7         -1.3870    0.0700   -2.2780 c2        1 IHB      0.361000
     10 O1         -1.6230    1.1690   -2.8460 o         1 IHB     -0.562000
     11 O2         -1.7800   -1.0060   -2.8000 o         1 IHB     -0.562000
     12 H2          1.2440    0.0430   -1.8130 ha        1 IHB      0.168000
     13 HO4         1.5690   -0.7680    2.9440 ho        1 IHB      0.210000
     14 H5         -1.1180    0.0600    2.2780 ha        1 IHB      0.129000
     15 H6         -2.2990    0.0430    0.2330 ha        1 IHB      0.159000
@<TRIPOS>BOND
     1    1    8 1   
     2    1    9 1   
     3    2    3 1   
     4    2   12 1   
     5    3    5 1   
     6    5    6 1   
     7    5    7 1   
     8    6   13 1   
     9    7   14 1   
    10    8   15 1   
    11    9   10 1   
    12    9   11 1   
@<TRIPOS>SUBSTRUCTURE
     1 IHB         1 TEMP              0 ****  ****    0 ROOT
