@<TRIPOS>MOLECULE
IHC
   42    32     1     0     0
SMALL
bcc


@<TRIPOS>ATOM
      1 CL1         5.9120   -1.6260    1.3820 cl        1 IHC      0.009000
      2 CL2         4.9240   -2.3020   -4.0760 cl        1 IHC      0.013000
      3 C1         -8.8410    3.0320    1.0310 c1        1 IHC      0.348000
      4 N1          0.6630   -1.3200   -0.2370 n3        1 IHC     -0.265000
      5 O1         -9.5010    2.1640    1.6570 os        1 IHC     -0.549000
      6 C2         -7.3850    3.2690    1.3790 c3        1 IHC     -0.117000
      7 N2          1.7070   -3.4850   -0.0480 n1        1 IHC     -0.131000
      8 O2         -9.4170    3.7770    0.1910 o         1 IHC     -0.549000
      9 C3         -5.2060    2.4390    0.9430 c1        1 IHC      0.122000
     10 N3          2.7760   -4.2900   -0.1840 n1        1 IHC      0.014000
     11 O3         -6.5640    2.4600    0.5550 o         1 IHC     -0.162000
     12 C4         -4.2090    3.4350    1.1990 c1        1 IHC     -0.193000
     13 N4          2.9990   -1.6510   -0.7390 n1        1 IHC     -0.173000
     14 C5         -2.8570    3.0710    1.2760 c1        1 IHC     -0.061000
     15 N5         -2.7550   -0.6470    0.6310 n2        1 IHC     -0.097000
     16 C6         -2.4850    1.7470    1.1040 c1        1 IHC     -0.359000
     17 C7         -1.3510   -0.4430    0.7620 c1        1 IHC     -0.265000
     18 C8         -0.3320   -1.5540    0.7890 c2        1 IHC      0.046000
     19 C9          1.8130   -2.1640   -0.3240 c1        1 IHC      0.106000
     20 C10         3.9510   -3.7830   -0.5950 c1        1 IHC     -0.252000
     21 C11         4.0600   -2.4490   -0.8750 c1        1 IHC      0.064000
     22 C12         5.3960   -1.8680   -1.2800 c1        1 IHC     -0.028000
     23 C13         6.2740   -1.3900   -0.3050 c1        1 IHC     -0.031000
     24 C14         7.4670   -0.7980   -0.6790 c1        1 IHC     -0.131000
     25 C15         7.7960   -0.6780   -2.0380 c1        1 IHC     -0.118500
     26 C16         6.9240   -1.1530   -3.0060 c1        1 IHC     -0.118500
     27 C17         5.7230   -1.7490   -2.6310 c1        1 IHC     -0.029000
     28 C18        -3.4870    0.7440    0.8470 c1        1 IHC     -0.026000
     29 C19        -4.8330    1.1070    0.7710 c2        1 IHC     -0.132000
     30 S          -1.1120    1.0600    1.0640 s         1 IHC      0.381000
     31 H1          0.5750   -0.6150   -0.8000 hn        1 IHC      0.265000
     32 H3         -7.2340    3.0410    2.3030 h1        1 IHC      0.062000
     33 H4         -7.1650    4.2030    1.2350 h1        1 IHC      0.062000
     34 H5         -4.4650    4.3780    1.2700 ha        1 IHC      0.151000
     35 H6         -2.1780    3.7490    1.4480 ha        1 IHC      0.128000
     36 H7         -0.7780   -2.4090    0.6220 h4        1 IHC      0.111500
     37 H8          0.1000   -1.5780    1.6610 h4        1 IHC      0.111500
     38 H9          4.7260   -4.3670   -0.6940 ha        1 IHC      0.180000
     39 H10         8.0840   -0.4620    0.0070 ha        1 IHC      0.151000
     40 H11         8.6390   -0.2580   -2.3020 ha        1 IHC      0.147000
     41 H12         7.1520   -1.0690   -3.9490 ha        1 IHC      0.147000
     42 H13        -5.5080    0.4310    0.6350 ha        1 IHC      0.169000
@<TRIPOS>BOND
     1    1   23 1   
     2    2   27 1   
     3    3    6 1   
     4    3    8 1   
     5    4   18 1   
     6    4   19 1   
     7    4   31 1   
     8    6   11 1   
     9    6   32 1   
    10    6   33 1   
    11    7   19 1   
    12    9   12 1   
    13    9   29 1   
    14   10   20 1   
    15   12   34 1   
    16   13   21 1   
    17   14   16 1   
    18   14   35 1   
    19   15   17 1   
    20   15   28 1   
    21   17   30 1   
    22   18   36 1   
    23   18   37 1   
    24   20   38 1   
    25   22   27 1   
    26   23   24 1   
    27   24   39 1   
    28   25   26 1   
    29   25   40 1   
    30   26   41 1   
    31   28   29 1   
    32   29   42 1   
@<TRIPOS>SUBSTRUCTURE
     1 IHC         1 TEMP              0 ****  ****    0 ROOT
