@<TRIPOS>MOLECULE
IHC
   42    45     1     0     0
SMALL
bcc


@<TRIPOS>ATOM
      1 CL1         4.6800    2.1690   -2.2440 cl        1 IHC     -0.067400
      2 CL2         5.5990   -0.4900    2.3520 cl        1 IHC     -0.067400
      3 C1         -8.6650    2.2070    0.7350 c         1 IHC      0.928600
      4 O1         -8.7140    2.8250    1.8290 o         1 IHC     -0.814300
      5 C2         -7.9110    0.8400    0.7340 c3        1 IHC     -0.016600
      6 N2          2.7130   -2.2080   -1.2450 nb        1 IHC     -0.394000
      7 O2         -9.2210    2.5480   -0.3400 o         1 IHC     -0.814300
      8 C3         -5.7070    0.0430    0.3120 ca        1 IHC      0.167100
      9 N3          3.9540   -2.2680   -1.4690 nb        1 IHC     -0.249000
     10 O3         -6.5510    1.1150    0.3740 os        1 IHC     -0.278900
     11 C4         -6.0950   -1.2910    0.5770 ca        1 IHC     -0.193000
     12 N4          2.9760   -0.0320   -0.0860 nb        1 IHC     -0.699000
     13 C5         -5.1740   -2.3230    0.4910 ca        1 IHC     -0.061000
     14 N5         -2.0960   -0.5570   -0.4800 nc        1 IHC     -0.524100
     15 C6         -3.8550   -2.0480    0.1420 ca        1 IHC     -0.132100
     16 C7         -1.5130   -1.7420   -0.4650 cd        1 IHC      0.322200
     17 C8         -0.0810   -2.0030   -0.8230 c3        1 IHC      0.207500
     18 C9          2.1810   -1.0920   -0.5350 ca        1 IHC      0.824900
     19 C10         4.8030   -1.2860   -1.0530 ca        1 IHC      0.147900
     20 C11         4.2920   -0.1550   -0.3540 cp        1 IHC      0.434500
     21 C12         5.2190    0.9100    0.0780 cp        1 IHC     -0.135500
     22 C13         5.4590    2.0220   -0.7430 ca        1 IHC      0.048400
     23 C14         6.3450    3.0270   -0.3390 ca        1 IHC     -0.130500
     24 C15         6.9900    2.9260    0.8910 ca        1 IHC     -0.107000
     25 C16         6.7580    1.8320    1.7220 ca        1 IHC     -0.130500
     26 C17         5.8720    0.8290    1.3180 ca        1 IHC      0.048400
     27 C18        -3.4530   -0.6940   -0.1320 ca        1 IHC      0.113400
     28 C19        -4.3810    0.3500   -0.0450 ca        1 IHC     -0.132000
     29 S          -2.5250   -3.0840   -0.0360 ss        1 IHC     -0.070100
     30 H1          0.4610   -0.2140    0.1470 hn        1 IHC      0.469800
     31 H3         -7.9400    0.3830    1.7540 h1        1 IHC      0.022700
     32 H4         -8.3630    0.1520   -0.0240 h1        1 IHC      0.022700
     33 H5         -7.1360   -1.5130    0.8540 ha        1 IHC      0.151000
     34 H6         -5.4860   -3.3570    0.6990 ha        1 IHC      0.128000
     35 H7          0.0120   -1.9740   -1.9510 h1        1 IHC      0.072200
     36 H8          0.1940   -3.0440   -0.4790 h1        1 IHC      0.072200
     37 H9          5.8700   -1.4080   -1.2830 h4        1 IHC      0.043100
     38 H10         6.5260    3.8960   -0.9900 ha        1 IHC      0.151500
     39 H11         7.6830    3.7180    1.2110 ha        1 IHC      0.142000
     40 H12         7.2650    1.7610    2.6970 ha        1 IHC      0.151500
     41 H13        -4.0980    1.3930   -0.2480 ha        1 IHC      0.169000
     42 N1          0.8360   -1.0660   -0.2180 nh        1 IHC     -0.820900
@<TRIPOS>BOND
     1    1   22 1   
     2    2   26 1   
     3    3    4 1   
     4    3    5 1   
     5    3    7 1   
     6    5   10 1   
     7    5   31 1   
     8    5   32 1   
     9    6    9 ar  
    10    6   18 ar  
    11    8   10 1   
    12    8   11 ar  
    13    8   28 ar  
    14    9   19 ar  
    15   11   13 ar  
    16   11   33 1   
    17   12   18 ar  
    18   12   20 ar  
    19   13   15 ar  
    20   13   34 1   
    21   14   16 2   
    22   14   27 1   
    23   15   27 ar  
    24   15   29 1   
    25   16   17 1   
    26   16   29 1   
    27   17   35 1   
    28   17   36 1   
    29   17   42 1   
    30   18   42 1   
    31   19   20 ar  
    32   19   37 1   
    33   20   21 1   
    34   21   22 ar  
    35   21   26 ar  
    36   22   23 ar  
    37   23   24 ar  
    38   23   38 1   
    39   24   25 ar  
    40   24   39 1   
    41   25   26 ar  
    42   25   40 1   
    43   27   28 ar  
    44   28   41 1   
    45   30   42 1   
@<TRIPOS>SUBSTRUCTURE
     1 IHC         1 TEMP              0 ****  ****    0 ROOT
