@<TRIPOS>MOLECULE
IHC
   42    45     1     0     0
SMALL
bcc


@<TRIPOS>ATOM
      1 Cl1        -0.0510    0.0250    0.0240 cl        1 IHC     -0.053400
      2 Cl2         4.7230    1.3540    1.9310 cl        1 IHC     -0.038400
      3 C1         -9.7990    6.3680    3.2950 c         1 IHC      0.928600
      4 O1         -9.6950    7.2860    2.4420 o         1 IHC     -0.814300
      5 C2         -8.6830    6.2930    4.3840 c3        1 IHC     -0.016600
      6 N2          0.8480    0.5080    5.1390 n2        1 IHC     -0.582400
      7 O2        -10.7460    5.5470    3.3960 o         1 IHC     -0.814300
      8 C3         -6.6210    5.1490    4.7200 ca        1 IHC      0.167100
      9 N3          1.8530   -0.3150    4.8120 nu        1 IHC     -0.204100
     10 O3         -7.6930    5.3740    3.9040 os        1 IHC     -0.278900
     11 C4         -6.4370    5.7650    5.9790 ca        1 IHC     -0.193000
     12 N4          0.8000    1.1960    2.7580 ne        1 IHC     -0.639000
     13 C5         -5.3190    5.4790    6.7460 ca        1 IHC     -0.061000
     14 N5         -3.5170    3.0550    4.6460 nc        1 IHC     -0.526100
     15 C6         -4.3670    4.5790    6.2760 ca        1 IHC     -0.132100
     16 C7         -2.6140    3.0210    5.6090 cd        1 IHC      0.324200
     17 C8         -1.3950    2.1490    5.6090 c3        1 IHC      0.195500
     18 C9          0.3400    1.2670    4.1170 ce        1 IHC      0.758200
     19 C10         2.4090   -0.4900    3.6080 ch        1 IHC     -0.163200
     20 C11         1.7890    0.3490    2.5410 cf        1 IHC      0.399500
     21 C12         2.3560    0.1650    1.2030 cf        1 IHC     -0.120600
     22 C13         1.6370   -0.0410    0.0610 c2        1 IHC      0.033200
     23 C14         2.2730   -0.3440   -1.2840 c3        1 IHC     -0.031000
     24 C15         3.6240   -0.9660   -1.0670 c2        1 IHC     -0.164300
     25 C16         4.2380   -0.4460   -0.0180 c1        1 IHC     -0.056800
     26 C17         3.8200    0.2800    1.0200 cf        1 IHC      0.044300
     27 C18        -4.5480    3.9480    4.9960 ca        1 IHC      0.113400
     28 C19        -5.6750    4.2360    4.2190 ca        1 IHC     -0.132000
     29 S          -2.9200    4.0410    6.9780 ss        1 IHC     -0.072100
     30 H1         -1.1170    2.5910    3.5830 hn        1 IHC      0.457800
     31 H3         -8.2160    7.2990    4.5290 h1        1 IHC      0.022700
     32 H4         -9.1100    5.9100    5.3450 h1        1 IHC      0.022700
     33 H5         -7.1860    6.4780    6.3540 ha        1 IHC      0.151000
     34 H6         -5.1840    5.9640    7.7240 ha        1 IHC      0.128000
     35 H7         -0.7210    2.4640    6.4600 h1        1 IHC      0.067700
     36 H8         -1.7280    1.0850    5.8090 h1        1 IHC      0.067700
     37 H9          2.1940   -0.8420    5.5990 hn        1 IHC      0.482800
     38 H10         1.6390   -1.0810   -1.8470 hc        1 IHC      0.087700
     39 H11         2.3110    0.6060   -1.8820 hc        1 IHC      0.087700
     40 H12         3.9450   -1.8170   -1.6710 ha        1 IHC      0.156000
     41 H13        -5.8360    3.7660    3.2380 ha        1 IHC      0.168000
     42 N1         -0.6300    2.2390    4.3840 nu        1 IHC     -0.772200
@<TRIPOS>BOND
     1    1   22 1   
     2    2   26 1   
     3    3    4 1   
     4    3    5 1   
     5    3    7 1   
     6    5   10 1   
     7    5   31 1   
     8    5   32 1   
     9    6    9 1   
    10    6   18 2   
    11    8   10 1   
    12    8   11 ar  
    13    8   28 ar  
    14    9   19 3   
    15    9   37 1   
    16   11   13 ar  
    17   11   33 1   
    18   12   18 1   
    19   12   20 2   
    20   13   15 ar  
    21   13   34 1   
    22   14   16 2   
    23   14   27 1   
    24   15   27 ar  
    25   15   29 1   
    26   16   17 1   
    27   16   29 1   
    28   17   35 1   
    29   17   36 1   
    30   17   42 1   
    31   18   42 1   
    32   19   20 1   
    33   20   21 1   
    34   21   22 2   
    35   21   26 1   
    36   22   23 1   
    37   23   24 1   
    38   23   38 1   
    39   23   39 1   
    40   24   25 2   
    41   24   40 1   
    42   25   26 2   
    43   27   28 ar  
    44   28   41 1   
    45   30   42 1   
@<TRIPOS>SUBSTRUCTURE
     1 IHC         1 TEMP              0 ****  ****    0 ROOT
