@<TRIPOS>MOLECULE
IHC
   43    46     1     0     0
SMALL
bcc


@<TRIPOS>ATOM
      1 CL1         0.5520   -1.5130   -0.3800 cl        1 IHC     -0.083000
      2 CL2         2.5520    2.9080    1.4750 cl        1 IHC      0.044000
      3 C1         -8.4790    5.4030    4.0710 c2        1 IHC      0.283000
      4 O1         -9.6050    4.9440    4.1660 o         1 IHC     -0.253000
      5 C2         -7.7720    6.2810    3.0740 c3        1 IHC     -0.060000
      6 N2          0.0200   -0.4350    4.6420 n2        1 IHC     -0.210000
      7 O2         -7.5870    5.0890    5.0820 os        1 IHC     -0.260000
      8 C3         -6.2980    5.6850    4.8230 c3        1 IHC      0.255000
      9 N3          0.9050   -1.2790    4.0950 n3        1 IHC     -0.074000
     10 O3         -6.4590    6.4530    3.6110 os        1 IHC     -0.272000
     11 C4         -5.9450    6.6090    5.9520 c2        1 IHC     -0.118000
     12 N4          0.3950    1.0430    2.6830 n2        1 IHC     -0.124000
     13 C5         -4.9730    6.3030    6.8200 c2        1 IHC     -0.138000
     14 N5         -3.3120    3.3730    5.1440 n2        1 IHC     -0.170000
     15 C6         -4.1970    5.0680    6.7640 c2        1 IHC     -0.108000
     16 C7         -3.0010    2.3850    5.9040 c2        1 IHC     -0.024000
     17 C8         -1.9310    1.3690    5.5690 c3        1 IHC     -0.002000
     18 C9         -0.2160    0.7200    3.9420 c2        1 IHC      0.108000
     19 C10         1.5720   -1.1240    2.9480 c1        1 IHC     -0.159000
     20 C11         1.2560    0.1470    2.2340 c2        1 IHC     -0.009000
     21 C12         1.9760    0.3270    0.9690 c2        1 IHC     -0.035000
     22 C13         2.1360   -0.9220    0.1610 c3        1 IHC     -0.034000
     23 C14         3.0230   -0.7860   -1.0230 c2        1 IHC     -0.090000
     24 C15         3.5090    0.4150   -1.4130 c2        1 IHC     -0.199000
     25 C16         3.0450    1.6120   -0.7950 c1        1 IHC      0.011000
     26 C17         2.5250    1.5010    0.5390 c2        1 IHC     -0.084000
     27 C18        -4.3040    4.3180    5.4850 c2        1 IHC     -0.013000
     28 C19        -5.2890    4.6010    4.5960 c2        1 IHC     -0.138000
     29 S          -3.3590    4.5990    7.9710 s         1 IHC      0.047000
     30 H1         -1.3190    2.4410    3.8660 hn        1 IHC      0.262000
     31 H3         -7.6810    5.7910    2.0710 h1        1 IHC      0.139000
     32 H4         -8.2430    7.2930    2.9890 h1        1 IHC      0.139000
     33 H5         -6.5340    7.5350    6.0140 ha        1 IHC      0.158000
     34 H6         -4.7240    6.9820    7.6550 ha        1 IHC      0.165000
     35 H7         -3.4840    2.1540    6.8810 h4        1 IHC      0.136000
     36 H8         -2.4730    0.3930    5.3750 h1        1 IHC      0.113500
     37 H9          1.0470   -2.1070    4.6500 hn        1 IHC      0.284000
     38 H10         2.5350   -1.7310    0.8490 h1        1 IHC      0.195000
     39 H11         3.2220   -1.7150   -1.5810 ha        1 IHC      0.152000
     40 H12         4.1920    0.5150   -2.2720 ha        1 IHC      0.166000
     41 H13        -5.4040    4.0520    3.6470 ha        1 IHC      0.163000
     42 H121       -1.3020    1.2350    6.5000 h1        1 IHC      0.113500
     43 N1         -1.0490    1.7020    4.4820 n3        1 IHC     -0.276000
@<TRIPOS>BOND
     1    1   22 1   
     2    2   26 1   
     3    3    4 1   
     4    3    5 1   
     5    3    7 1   
     6    5   10 1   
     7    5   31 1   
     8    5   32 1   
     9    6    9 1   
    10    6   18 1   
    11    7    8 1   
    12    8   10 1   
    13    8   11 1   
    14    8   28 1   
    15    9   19 1   
    16    9   37 1   
    17   11   13 1   
    18   11   33 1   
    19   12   18 1   
    20   12   20 1   
    21   13   15 1   
    22   13   34 1   
    23   14   16 1   
    24   14   27 1   
    25   15   27 1   
    26   15   29 1   
    27   16   17 1   
    28   16   35 1   
    29   17   36 1   
    30   17   42 1   
    31   17   43 1   
    32   18   43 1   
    33   19   20 1   
    34   20   21 1   
    35   21   22 1   
    36   21   26 1   
    37   22   23 1   
    38   22   38 1   
    39   23   24 1   
    40   23   39 1   
    41   24   25 1   
    42   24   40 1   
    43   25   26 1   
    44   27   28 1   
    45   28   41 1   
    46   30   43 1   
@<TRIPOS>SUBSTRUCTURE
     1 IHC         1 TEMP              0 ****  ****    0 ROOT
