@<TRIPOS>MOLECULE
IHC
   42    45     1     0     0
SMALL
bcc


@<TRIPOS>ATOM
      1 CL1        -0.0530    0.0280    0.0150 cl        1 IHC     -0.053400
      2 CL2         4.7200    1.3750    1.9110 cl        1 IHC     -0.038400
      3 C1         -9.8100    6.3510    3.3220 c         1 IHC      0.928600
      4 O1         -9.7030    7.2600    2.4600 o         1 IHC     -0.814300
      5 C2         -8.6900    6.2780    4.4070 c3        1 IHC     -0.016600
      6 N2          0.8560    0.5120    5.1280 n2        1 IHC     -0.582400
      7 O2        -10.7630    5.5390    3.4360 o         1 IHC     -0.814300
      8 C3         -6.6250    5.1380    4.7360 ca        1 IHC      0.167100
      9 N3          1.8630   -0.3070    4.7990 nh        1 IHC     -0.204100
     10 O3         -7.7000    5.3610    3.9240 os        1 IHC     -0.278900
     11 C4         -6.4360    5.7550    5.9940 ca        1 IHC     -0.193000
     12 N4          0.8000    1.2020    2.7480 ne        1 IHC     -0.639000
     13 C5         -5.3140    5.4710    6.7560 ca        1 IHC     -0.061000
     14 N5         -3.5180    3.0490    4.6500 nc        1 IHC     -0.526100
     15 C6         -4.3630    4.5730    6.2830 ca        1 IHC     -0.132100
     16 C7         -2.6100    3.0170    5.6090 cd        1 IHC      0.324200
     17 C8         -1.3900    2.1460    5.6050 c3        1 IHC      0.195500
     18 C9          0.3440    1.2700    4.1080 ce        1 IHC      0.758200
     19 C10         2.4170   -0.4800    3.5920 ch        1 IHC     -0.163200
     20 C11         1.7920    0.3580    2.5280 cf        1 IHC      0.399500
     21 C12         2.3560    0.1770    1.1890 cf        1 IHC     -0.120600
     22 C13         1.6360   -0.0320    0.0480 c2        1 IHC      0.033200
     23 C14         2.2690   -0.3310   -1.2990 c3        1 IHC     -0.031000
     24 C15         3.6240   -0.9470   -1.0850 c2        1 IHC     -0.164300
     25 C16         4.2380   -0.4250   -0.0370 c1        1 IHC     -0.056800
     26 C17         3.8190    0.2980    1.0020 cf        1 IHC      0.044300
     27 C18        -4.5480    3.9400    5.0040 ca        1 IHC      0.113400
     28 C19        -5.6790    4.2250    4.2320 ca        1 IHC     -0.132000
     29 S          -2.9120    4.0370    6.9790 ss        1 IHC     -0.072100
     30 H1         -1.1200    2.5900    3.5790 hn        1 IHC      0.457800
     31 H3         -8.2230    7.2850    4.5490 h1        1 IHC      0.022700
     32 H4         -9.1120    5.8960    5.3700 h1        1 IHC      0.022700
     33 H5         -7.1850    6.4670    6.3710 ha        1 IHC      0.151000
     34 H6         -5.1770    5.9570    7.7340 ha        1 IHC      0.128000
     35 H7         -0.7140    2.4620    6.4540 h1        1 IHC      0.067700
     36 H8         -1.7210    1.0820    5.8050 h1        1 IHC      0.067700
     37 H9          2.2070   -0.8340    5.5840 hn        1 IHC      0.482800
     38 H10         1.6370   -1.0690   -1.8600 hc        1 IHC      0.087700
     39 H11         2.3020    0.6190   -1.8960 hc        1 IHC      0.087700
     40 H12         3.9470   -1.7970   -1.6900 ha        1 IHC      0.156000
     41 H13        -5.8430    3.7550    3.2520 ha        1 IHC      0.168000
     42 N1         -0.6300    2.2390    4.3780 nh        1 IHC     -0.772200
@<TRIPOS>BOND
     1    1   22 1   
     2    2   26 1   
     3    3    4 1   
     4    3    5 1   
     5    3    7 1   
     6    5   10 1   
     7    5   31 1   
     8    5   32 1   
     9    6    9 1   
    10    6   18 2   
    11    8   10 1   
    12    8   11 ar  
    13    8   28 ar  
    14    9   19 3   
    15    9   37 1   
    16   11   13 ar  
    17   11   33 1   
    18   12   18 1   
    19   12   20 2   
    20   13   15 ar  
    21   13   34 1   
    22   14   16 2   
    23   14   27 1   
    24   15   27 ar  
    25   15   29 1   
    26   16   17 1   
    27   16   29 1   
    28   17   35 1   
    29   17   36 1   
    30   17   42 1   
    31   18   42 1   
    32   19   20 1   
    33   20   21 1   
    34   21   22 2   
    35   21   26 1   
    36   22   23 1   
    37   23   24 1   
    38   23   38 1   
    39   23   39 1   
    40   24   25 2   
    41   24   40 1   
    42   25   26 2   
    43   27   28 ar  
    44   28   41 1   
    45   30   42 1   
@<TRIPOS>SUBSTRUCTURE
     1 IHC         1 TEMP              0 ****  ****    0 ROOT
