@<TRIPOS>MOLECULE
IHD
   50    49     1     0     0
SMALL
bcc


@<TRIPOS>ATOM
      1 C17        -7.8230    0.0740   -5.0140 c3        1 IHD     -0.092100
      2 C16        -6.3100    0.0740   -5.0140 c3        1 IHD     -0.080400
      3 C15        -5.8060    0.0740   -3.5880 c3        1 IHD     -0.079400
      4 C14        -4.2930    0.0640   -3.5880 c3        1 IHD     -0.079400
      5 C13        -3.7890    0.0670   -2.1610 c3        1 IHD     -0.079400
      6 C12        -2.2760    0.0500   -2.1610 c3        1 IHD     -0.079400
      7 C11        -1.7720    0.0540   -0.7350 c3        1 IHD     -0.079400
      8 C10        -0.2590    0.0250   -0.7350 c3        1 IHD     -0.079400
      9 C9          0.2450    0.0320    0.6910 c3        1 IHD     -0.079400
     10 C8          1.7580   -0.0090    0.6920 c3        1 IHD     -0.079400
     11 C7          2.2620   -0.0040    2.1180 c3        1 IHD     -0.079400
     12 C6          3.7740   -0.0530    2.1190 c3        1 IHD     -0.079400
     13 C5          4.2780   -0.0510    3.5450 c3        1 IHD     -0.078400
     14 C4          5.7900   -0.1070    3.5450 c3        1 IHD     -0.080400
     15 C3          6.2940   -0.1020    4.9720 c3        1 IHD     -0.076400
     16 C2          7.8060   -0.1600    4.9720 c3        1 IHD      0.068500
     17 I1          8.5080   -0.1630    6.9590 i         1 IHD     -0.253900
     18 H171       -8.1490    0.8700   -4.5510 hc        1 IHD      0.032700
     19 H172       -8.1480    0.0770   -5.9340 hc        1 IHD      0.032700
     20 H173       -8.1490   -0.7240   -4.5570 hc        1 IHD      0.032700
     21 H161       -5.9850   -0.7230   -5.4740 hc        1 IHD      0.038700
     22 H162       -5.9850    0.8710   -5.4740 hc        1 IHD      0.038700
     23 H151       -6.1370   -0.7200   -3.1260 hc        1 IHD      0.039700
     24 H152       -6.1260    0.8740   -3.1290 hc        1 IHD      0.039700
     25 H141       -3.9620    0.8570   -4.0520 hc        1 IHD      0.039700
     26 H142       -3.9730   -0.7370   -4.0440 hc        1 IHD      0.039700
     27 H131       -4.1230   -0.7230   -1.6960 hc        1 IHD      0.039700
     28 H132       -4.1050    0.8710   -1.7060 hc        1 IHD      0.039700
     29 H121       -1.9410    0.8390   -2.6270 hc        1 IHD      0.039700
     30 H122       -1.9600   -0.7540   -2.6160 hc        1 IHD      0.039700
     31 H111       -2.1120   -0.7320   -0.2670 hc        1 IHD      0.039700
     32 H112       -2.0820    0.8620   -0.2830 hc        1 IHD      0.039700
     33 H101        0.0510   -0.7830   -1.1860 hc        1 IHD      0.039700
     34 H102        0.0810    0.8110   -1.2040 hc        1 IHD      0.039700
     35 H91        -0.1020   -0.7490    1.1630 hc        1 IHD      0.039700
     36 H92        -0.0580    0.8440    1.1400 hc        1 IHD      0.039700
     37 H81         2.0610   -0.8210    0.2430 hc        1 IHD      0.039700
     38 H82         2.1050    0.7720    0.2210 hc        1 IHD      0.039700
     39 H71         1.9110   -0.7820    2.5910 hc        1 IHD      0.040700
     40 H72         1.9630    0.8110    2.5660 hc        1 IHD      0.040700
     41 H61         4.0730   -0.8670    1.6690 hc        1 IHD      0.039700
     42 H62         4.1250    0.7260    1.6480 hc        1 IHD      0.039700
     43 H51         3.9830    0.7650    3.9930 hc        1 IHD      0.041700
     44 H52         3.9240   -0.8280    4.0170 hc        1 IHD      0.041700
     45 H41         6.1450    0.6700    3.0720 hc        1 IHD      0.041700
     46 H42         6.0860   -0.9230    3.0990 hc        1 IHD      0.041700
     47 H31         6.0000    0.7140    5.4190 hc        1 IHD      0.053700
     48 H32         5.9390   -0.8780    5.4450 hc        1 IHD      0.053700
     49 H21         8.1010   -0.9740    4.5220 h1        1 IHD      0.071700
     50 H22         8.1620    0.6190    4.5030 h1        1 IHD      0.071700
@<TRIPOS>BOND
     1    1    2 1   
     2    1   18 1   
     3    1   19 1   
     4    1   20 1   
     5    2    3 1   
     6    2   21 1   
     7    2   22 1   
     8    3    4 1   
     9    3   23 1   
    10    3   24 1   
    11    4    5 1   
    12    4   25 1   
    13    4   26 1   
    14    5    6 1   
    15    5   27 1   
    16    5   28 1   
    17    6    7 1   
    18    6   29 1   
    19    6   30 1   
    20    7    8 1   
    21    7   31 1   
    22    7   32 1   
    23    8    9 1   
    24    8   33 1   
    25    8   34 1   
    26    9   10 1   
    27    9   35 1   
    28    9   36 1   
    29   10   11 1   
    30   10   37 1   
    31   10   38 1   
    32   11   12 1   
    33   11   39 1   
    34   11   40 1   
    35   12   13 1   
    36   12   41 1   
    37   12   42 1   
    38   13   14 1   
    39   13   43 1   
    40   13   44 1   
    41   14   15 1   
    42   14   45 1   
    43   14   46 1   
    44   15   16 1   
    45   15   47 1   
    46   15   48 1   
    47   16   17 1   
    48   16   49 1   
    49   16   50 1   
@<TRIPOS>SUBSTRUCTURE
     1 IHD         1 TEMP              0 ****  ****    0 ROOT
