@<TRIPOS>MOLECULE
IHD
   50    49     1     0     0
SMALL
bcc


@<TRIPOS>ATOM
      1 C17         0.1910    0.0900    0.1260 c3        1 IHD     -0.092100
      2 C16         1.6970    0.0530    0.1240 c3        1 IHD     -0.080400
      3 C15         2.2540    0.0210    1.5310 c3        1 IHD     -0.079400
      4 C14         3.7670   -0.0160    1.5240 c3        1 IHD     -0.079400
      5 C13         4.3220   -0.0480    2.9320 c3        1 IHD     -0.079400
      6 C12         5.8360   -0.0860    2.9250 c3        1 IHD     -0.079400
      7 C11         6.3910   -0.1180    4.3330 c3        1 IHD     -0.079400
      8 C10         7.9040   -0.1550    4.3260 c3        1 IHD     -0.079400
      9 C9          8.4600   -0.1880    5.7330 c3        1 IHD     -0.079400
     10 C8          9.9730   -0.2250    5.7260 c3        1 IHD     -0.079400
     11 C7         10.5280   -0.2580    7.1340 c3        1 IHD     -0.079400
     12 C6         12.0410   -0.2950    7.1270 c3        1 IHD     -0.079400
     13 C5         12.5960   -0.3280    8.5350 c3        1 IHD     -0.078400
     14 C4         14.1090   -0.3650    8.5270 c3        1 IHD     -0.080400
     15 C3         14.6610   -0.3990    9.9390 c3        1 IHD     -0.076400
     16 C2         16.1650   -0.4350    9.9190 c3        1 IHD      0.068500
     17 I1         17.0050   -0.4820   11.8090 i         1 IHD     -0.253900
     18 H171       -0.2260   -0.8110    0.6370 hc        1 IHD      0.032700
     19 H172       -0.1810    0.9980    0.6600 hc        1 IHD      0.032700
     20 H173       -0.1990    0.1130   -0.9200 hc        1 IHD      0.032700
     21 H161        2.0510   -0.8520   -0.4380 hc        1 IHD      0.038700
     22 H162        2.0950    0.9530   -0.4150 hc        1 IHD      0.038700
     23 H151        1.8570   -0.8790    2.0710 hc        1 IHD      0.039700
     24 H152        1.9020    0.9250    2.0940 hc        1 IHD      0.039700
     25 H141        4.1630    0.8840    0.9840 hc        1 IHD      0.039700
     26 H142        4.1180   -0.9210    0.9610 hc        1 IHD      0.039700
     27 H131        3.9710    0.8560    3.4950 hc        1 IHD      0.039700
     28 H132        3.9260   -0.9480    3.4720 hc        1 IHD      0.039700
     29 H121        6.2320    0.8150    2.3850 hc        1 IHD      0.039700
     30 H122        6.1870   -0.9900    2.3610 hc        1 IHD      0.039700
     31 H111        6.0400    0.7860    4.8960 hc        1 IHD      0.039700
     32 H112        5.9950   -1.0180    4.8730 hc        1 IHD      0.039700
     33 H101        8.3000    0.7450    3.7860 hc        1 IHD      0.039700
     34 H102        8.2550   -1.0590    3.7620 hc        1 IHD      0.039700
     35 H91         8.0640   -1.0880    6.2730 hc        1 IHD      0.039700
     36 H92         8.1080    0.7170    6.2970 hc        1 IHD      0.039700
     37 H81        10.3240   -1.1290    5.1620 hc        1 IHD      0.039700
     38 H82        10.3690    0.6760    5.1870 hc        1 IHD      0.039700
     39 H71        10.1320   -1.1580    7.6740 hc        1 IHD      0.040700
     40 H72        10.1770    0.6460    7.6980 hc        1 IHD      0.040700
     41 H61        12.3930   -1.1990    6.5620 hc        1 IHD      0.039700
     42 H62        12.4370    0.6060    6.5870 hc        1 IHD      0.039700
     43 H51        12.2450    0.5760    9.0990 hc        1 IHD      0.041700
     44 H52        12.2000   -1.2290    9.0740 hc        1 IHD      0.041700
     45 H41        14.4610   -1.2690    7.9630 hc        1 IHD      0.041700
     46 H42        14.5050    0.5360    7.9880 hc        1 IHD      0.041700
     47 H31        14.3020    0.5070   10.4970 hc        1 IHD      0.053700
     48 H32        14.2580   -1.3000   10.4720 hc        1 IHD      0.053700
     49 H21        16.5730    0.4670    9.4090 h1        1 IHD      0.071700
     50 H22        16.5280   -1.3420    9.3830 h1        1 IHD      0.071700
@<TRIPOS>BOND
     1    1    2 1   
     2    1   18 1   
     3    1   19 1   
     4    1   20 1   
     5    2    3 1   
     6    2   21 1   
     7    2   22 1   
     8    3    4 1   
     9    3   23 1   
    10    3   24 1   
    11    4    5 1   
    12    4   25 1   
    13    4   26 1   
    14    5    6 1   
    15    5   27 1   
    16    5   28 1   
    17    6    7 1   
    18    6   29 1   
    19    6   30 1   
    20    7    8 1   
    21    7   31 1   
    22    7   32 1   
    23    8    9 1   
    24    8   33 1   
    25    8   34 1   
    26    9   10 1   
    27    9   35 1   
    28    9   36 1   
    29   10   11 1   
    30   10   37 1   
    31   10   38 1   
    32   11   12 1   
    33   11   39 1   
    34   11   40 1   
    35   12   13 1   
    36   12   41 1   
    37   12   42 1   
    38   13   14 1   
    39   13   43 1   
    40   13   44 1   
    41   14   15 1   
    42   14   45 1   
    43   14   46 1   
    44   15   16 1   
    45   15   47 1   
    46   15   48 1   
    47   16   17 1   
    48   16   49 1   
    49   16   50 1   
@<TRIPOS>SUBSTRUCTURE
     1 IHD         1 TEMP              0 ****  ****    0 ROOT
