@<TRIPOS>MOLECULE
IHD
   50    49     1     0     0
SMALL
bcc


@<TRIPOS>ATOM
      1 C17        -1.7580   -5.6430   10.5050 c3        1 IHD     -0.092100
      2 C16        -0.7250   -5.7810    9.4160 c3        1 IHD     -0.080400
      3 C15        -1.3550   -5.7070    8.0410 c3        1 IHD     -0.079400
      4 C14        -0.3150   -5.8460    6.9510 c3        1 IHD     -0.079400
      5 C13        -0.9450   -5.7720    5.5770 c3        1 IHD     -0.079400
      6 C12         0.0960   -5.9100    4.4860 c3        1 IHD     -0.079400
      7 C11        -0.5350   -5.8370    3.1120 c3        1 IHD     -0.079400
      8 C10         0.5050   -5.9750    2.0220 c3        1 IHD     -0.079400
      9 C9         -0.1260   -5.9010    0.6480 c3        1 IHD     -0.079400
     10 C8          0.9150   -6.0400   -0.4430 c3        1 IHD     -0.079400
     11 C7          0.2840   -5.9660   -1.8170 c3        1 IHD     -0.079400
     12 C6          1.3250   -6.1040   -2.9070 c3        1 IHD     -0.079400
     13 C5          0.6940   -6.0300   -4.2800 c3        1 IHD     -0.078400
     14 C4          1.7350   -6.1680   -5.3700 c3        1 IHD     -0.080400
     15 C3          1.0990   -6.0940   -6.7450 c3        1 IHD     -0.076400
     16 C2          2.1420   -6.2320   -7.8200 c3        1 IHD      0.068500
     17 I1          1.3590   -6.1420   -9.7330 i         1 IHD     -0.253900
     18 H171       -2.5180   -6.4580   10.4340 hc        1 IHD      0.032700
     19 H172       -1.2730   -5.7000   11.5100 hc        1 IHD      0.032700
     20 H173       -2.2880   -4.6630   10.4250 hc        1 IHD      0.032700
     21 H161        0.0420   -4.9690    9.5200 hc        1 IHD      0.038700
     22 H162       -0.1870   -6.7590    9.5290 hc        1 IHD      0.038700
     23 H151       -1.8920   -4.7290    7.9270 hc        1 IHD      0.039700
     24 H152       -2.1210   -6.5190    7.9360 hc        1 IHD      0.039700
     25 H141        0.2230   -6.8240    7.0660 hc        1 IHD      0.039700
     26 H142        0.4520   -5.0330    7.0570 hc        1 IHD      0.039700
     27 H131       -1.7120   -6.5840    5.4710 hc        1 IHD      0.039700
     28 H132       -1.4820   -4.7940    5.4620 hc        1 IHD      0.039700
     29 H121        0.8620   -5.0980    4.5930 hc        1 IHD      0.039700
     30 H122        0.6330   -6.8880    4.6010 hc        1 IHD      0.039700
     31 H111       -1.3020   -6.6490    3.0060 hc        1 IHD      0.039700
     32 H112       -1.0730   -4.8590    2.9970 hc        1 IHD      0.039700
     33 H101        1.2720   -5.1630    2.1280 hc        1 IHD      0.039700
     34 H102        1.0430   -6.9530    2.1370 hc        1 IHD      0.039700
     35 H91        -0.8920   -6.7140    0.5420 hc        1 IHD      0.039700
     36 H92        -0.6630   -4.9230    0.5330 hc        1 IHD      0.039700
     37 H81         1.4520   -7.0180   -0.3280 hc        1 IHD      0.039700
     38 H82         1.6810   -5.2270   -0.3360 hc        1 IHD      0.039700
     39 H71        -0.4820   -6.7780   -1.9230 hc        1 IHD      0.040700
     40 H72        -0.2530   -4.9880   -1.9310 hc        1 IHD      0.040700
     41 H61         2.0910   -5.2920   -2.8010 hc        1 IHD      0.039700
     42 H62         1.8620   -7.0820   -2.7920 hc        1 IHD      0.039700
     43 H51         0.1560   -5.0520   -4.3950 hc        1 IHD      0.041700
     44 H52        -0.0730   -6.8430   -4.3870 hc        1 IHD      0.041700
     45 H41         2.5010   -5.3550   -5.2650 hc        1 IHD      0.041700
     46 H42         2.2720   -7.1470   -5.2560 hc        1 IHD      0.041700
     47 H31         0.5610   -5.1140   -6.8500 hc        1 IHD      0.053700
     48 H32         0.3320   -6.9080   -6.8410 hc        1 IHD      0.053700
     49 H21         2.6670   -7.2110   -7.7330 h1        1 IHD      0.071700
     50 H22         2.8960   -5.4160   -7.7420 h1        1 IHD      0.071700
@<TRIPOS>BOND
     1    1    2 1   
     2    1   18 1   
     3    1   19 1   
     4    1   20 1   
     5    2    3 1   
     6    2   21 1   
     7    2   22 1   
     8    3    4 1   
     9    3   23 1   
    10    3   24 1   
    11    4    5 1   
    12    4   25 1   
    13    4   26 1   
    14    5    6 1   
    15    5   27 1   
    16    5   28 1   
    17    6    7 1   
    18    6   29 1   
    19    6   30 1   
    20    7    8 1   
    21    7   31 1   
    22    7   32 1   
    23    8    9 1   
    24    8   33 1   
    25    8   34 1   
    26    9   10 1   
    27    9   35 1   
    28    9   36 1   
    29   10   11 1   
    30   10   37 1   
    31   10   38 1   
    32   11   12 1   
    33   11   39 1   
    34   11   40 1   
    35   12   13 1   
    36   12   41 1   
    37   12   42 1   
    38   13   14 1   
    39   13   43 1   
    40   13   44 1   
    41   14   15 1   
    42   14   45 1   
    43   14   46 1   
    44   15   16 1   
    45   15   47 1   
    46   15   48 1   
    47   16   17 1   
    48   16   49 1   
    49   16   50 1   
@<TRIPOS>SUBSTRUCTURE
     1 IHD         1 TEMP              0 ****  ****    0 ROOT
