@<TRIPOS>MOLECULE
IHE
   55    58     1     0     0
SMALL
bcc


@<TRIPOS>ATOM
      1 C01         5.2160    0.6150   -1.5330 c3        1 IHE      0.168300
      2 C02         6.4290   -0.7670    0.6660 c3        1 IHE      0.168300
      3 N03         7.1520   -0.6530   -0.5920 n3        1 IHE     -0.732600
      4 C04         6.7430    0.5170   -1.3550 c3        1 IHE      0.168300
      5 C05         4.9020   -0.6690    0.4910 c3        1 IHE      0.168300
      6 N06         4.4930    0.5020   -0.2730 n3        1 IHE     -0.736600
      7 C15         8.5840   -0.7280   -0.4180 c3        1 IHE      0.157100
      8 C16         3.0510    0.5720   -0.4600 c3        1 IHE      0.149800
      9 C17         2.3510    1.1120    0.8150 c3        1 IHE      0.041300
     10 N18         0.9450    1.3270    0.6420 na        1 IHE     -0.255000
     11 C19         0.3110    2.5190    0.2190 cc        1 IHE      0.410700
     12 N20        -1.0170    2.4000    0.0670 nd        1 IHE     -0.543100
     13 C21        -0.0720    0.3630    0.7310 ca        1 IHE      0.446800
     14 N22        -0.0140   -0.9570    1.0770 nb        1 IHE     -0.699000
     15 C23        -1.2390   -1.5560    1.0570 ca        1 IHE      0.787000
     16 N24        -2.4650   -1.0240    0.7460 nb        1 IHE     -0.764000
     17 C25        -2.5230    0.3070    0.4180 ca        1 IHE      0.760200
     18 C26        -1.3010    1.0630    0.3790 ca        1 IHE     -0.214200
     19 N28        -3.7200    0.9490    0.1850 nh        1 IHE     -0.837900
     20 C29        -4.9780    0.2460    0.0170 c3        1 IHE      0.218500
     21 C30        -6.1660    1.2050    0.2250 c3        1 IHE     -0.093400
     22 C31        -7.4710    0.4410    0.1440 c3        1 IHE     -0.075400
     23 C32        -7.6130   -0.2780   -1.1810 c3        1 IHE     -0.080400
     24 C33        -6.4310   -1.1900   -1.4350 c3        1 IHE     -0.075400
     25 C34        -5.1200   -0.4360   -1.3560 c3        1 IHE     -0.093400
     26 N35        -1.2660   -4.0880    1.6850 n1        1 IHE     -0.335800
     27 C27        -1.2530   -2.9620    1.4050 cg        1 IHE      0.154800
     28 H011        4.9890    1.6250   -1.9740 h1        1 IHE      0.040200
     29 H012        4.8870   -0.1710   -2.2740 h1        1 IHE      0.040200
     30 H021        6.6600   -1.7790    1.1040 h1        1 IHE      0.038200
     31 H022        6.7600    0.0160    1.4100 h1        1 IHE      0.038200
     32 H041        7.1140    1.4740   -0.8840 h1        1 IHE      0.038200
     33 H042        7.2020    0.4360   -2.3800 h1        1 IHE      0.038200
     34 H051        4.4440   -0.5900    1.5160 h1        1 IHE      0.040200
     35 H052        4.5300   -1.6250    0.0190 h1        1 IHE      0.040200
     36 H151        9.0050    0.1220    0.1870 h1        1 IHE      0.033367
     37 H152        8.8340   -1.6910    0.1000 h1        1 IHE      0.033367
     38 H153        9.0710   -0.7230   -1.4280 h1        1 IHE      0.033367
     39 H161        2.8320    1.2720   -1.3150 h1        1 IHE      0.048200
     40 H162        2.6070   -0.4330   -0.7170 h1        1 IHE      0.048200
     41 H171        2.4910    0.3750    1.6570 h1        1 IHE      0.077700
     42 H172        2.8170    2.0940    1.1120 h1        1 IHE      0.077700
     43 H19         0.8860    3.4410    0.0640 h5        1 IHE      0.077800
     44 H28        -3.6590    1.8570   -0.2220 hn        1 IHE      0.446800
     45 H29        -5.0370   -0.5560    0.8130 h1        1 IHE      0.086700
     46 H301       -6.0850    1.7010    1.2280 hc        1 IHE      0.048700
     47 H302       -6.1500    2.0080   -0.5570 hc        1 IHE      0.048700
     48 H311       -7.5220   -0.3030    0.9820 hc        1 IHE      0.045700
     49 H312       -8.3240    1.1570    0.2780 hc        1 IHE      0.045700
     50 H321       -8.5590   -0.8790   -1.1830 hc        1 IHE      0.041700
     51 H322       -7.6900    0.4750   -2.0090 hc        1 IHE      0.041700
     52 H331       -6.4300   -2.0210   -0.6820 hc        1 IHE      0.045700
     53 H332       -6.5270   -1.6560   -2.4500 hc        1 IHE      0.045700
     54 H341       -5.0780    0.3350   -2.1690 hc        1 IHE      0.048700
     55 H342       -4.2710   -1.1500   -1.5130 hc        1 IHE      0.048700
@<TRIPOS>BOND
     1    1    4 1   
     2    1    6 1   
     3    1   28 1   
     4    1   29 1   
     5    2    3 1   
     6    2    5 1   
     7    2   30 1   
     8    2   31 1   
     9    3    4 1   
    10    3    7 1   
    11    4   32 1   
    12    4   33 1   
    13    5    6 1   
    14    5   34 1   
    15    5   35 1   
    16    6    8 1   
    17    7   36 1   
    18    7   37 1   
    19    7   38 1   
    20    8    9 1   
    21    8   39 1   
    22    8   40 1   
    23    9   10 1   
    24    9   41 1   
    25    9   42 1   
    26   10   11 1   
    27   10   13 1   
    28   11   12 2   
    29   11   43 1   
    30   12   18 1   
    31   13   14 ar  
    32   13   18 ar  
    33   14   15 ar  
    34   15   16 ar  
    35   15   27 1   
    36   16   17 ar  
    37   17   18 ar  
    38   17   19 1   
    39   19   20 1   
    40   19   44 1   
    41   20   21 1   
    42   20   25 1   
    43   20   45 1   
    44   21   22 1   
    45   21   46 1   
    46   21   47 1   
    47   22   23 1   
    48   22   48 1   
    49   22   49 1   
    50   23   24 1   
    51   23   50 1   
    52   23   51 1   
    53   24   25 1   
    54   24   52 1   
    55   24   53 1   
    56   25   54 1   
    57   25   55 1   
    58   26   27 3   
@<TRIPOS>SUBSTRUCTURE
     1 IHE         1 TEMP              0 ****  ****    0 ROOT
