@<TRIPOS>MOLECULE
IHE
   55    58     1     0     0
SMALL
bcc


@<TRIPOS>ATOM
      1 C01         0.1130    0.2340   -0.1590 c3        1 IHE      0.168300
      2 C02         1.8240    0.9710    2.0200 c3        1 IHE      0.168300
      3 N03         2.3660    0.1890    0.9180 n3        1 IHE     -0.732600
      4 C04         1.6350    0.4080   -0.3210 c3        1 IHE      0.168300
      5 C05         0.3020    0.7990    2.1840 c3        1 IHE      0.168300
      6 N06        -0.4300    1.0180    0.9430 n3        1 IHE     -0.736600
      7 C15         3.7910    0.3700    0.7590 c3        1 IHE      0.157100
      8 C16        -1.8640    0.8250    1.0990 c3        1 IHE      0.148800
      9 C17        -2.5250    2.0660    1.7540 c3        1 IHE      0.041300
     10 N18        -3.9540    1.9860    1.8090 na        1 IHE     -0.255000
     11 C19        -4.8720    2.4540    0.8390 cc        1 IHE      0.410700
     12 N20        -6.1520    2.1640    1.1220 nd        1 IHE     -0.543100
     13 C21        -4.7240    1.3130    2.7710 ca        1 IHE      0.446800
     14 N22        -4.3460    0.6600    3.9100 nb        1 IHE     -0.699000
     15 C23        -5.4070    0.1430    4.5930 ca        1 IHE      0.787000
     16 N24        -6.7460    0.1950    4.2920 nb        1 IHE     -0.764000
     17 C25        -7.1250    0.8680    3.1580 ca        1 IHE      0.760200
     18 C26        -6.1060    1.4500    2.3270 ca        1 IHE     -0.214200
     19 N28        -8.4490    1.0530    2.8290 nu        1 IHE     -0.837900
     20 C29        -9.5370    0.3570    3.4900 c3        1 IHE      0.218500
     21 C30       -10.8740    1.0790    3.2390 c3        1 IHE     -0.093400
     22 C31       -11.9850    0.4000    4.0120 c3        1 IHE     -0.075400
     23 C32       -12.1090   -1.0630    3.6380 c3        1 IHE     -0.080400
     24 C33       -10.7920   -1.7860    3.8260 c3        1 IHE     -0.075400
     25 C34        -9.6740   -1.1150    3.0570 c3        1 IHE     -0.093400
     26 N35        -4.8200   -1.1450    6.7830 n1        1 IHE     -0.335800
     27 C27        -5.0810   -0.5720    5.8080 cg        1 IHE      0.154800
     28 H011       -0.1160   -0.8650   -0.0410 h1        1 IHE      0.040200
     29 H012       -0.3740    0.5910   -1.1100 h1        1 IHE      0.040200
     30 H021        2.0550    2.0700    1.9050 h1        1 IHE      0.038200
     31 H022        2.3130    0.6120    2.9690 h1        1 IHE      0.038200
     32 H041        1.8380    1.4320   -0.7510 h1        1 IHE      0.038200
     33 H042        1.9880   -0.3570   -1.0680 h1        1 IHE      0.038200
     34 H051        0.0970   -0.2250    2.6130 h1        1 IHE      0.040200
     35 H052       -0.0510    1.5630    2.9320 h1        1 IHE      0.040200
     36 H151        4.1540   -0.3230   -0.0440 h1        1 IHE      0.033367
     37 H152        4.2970    0.1030    1.7240 h1        1 IHE      0.033367
     38 H153        4.0800    1.4210    0.4830 h1        1 IHE      0.033367
     39 H161       -2.1060   -0.0840    1.7240 h1        1 IHE      0.048200
     40 H162       -2.3210    0.6700    0.0800 h1        1 IHE      0.048200
     41 H171       -2.1400    2.1800    2.8080 h1        1 IHE      0.077700
     42 H172       -2.2530    2.9900    1.1680 h1        1 IHE      0.077700
     43 H19        -4.5290    3.0170   -0.0380 h5        1 IHE      0.077800
     44 H28        -8.6300    1.3880    1.9070 hn        1 IHE      0.446800
     45 H29        -9.3360    0.3760    4.6030 h1        1 IHE      0.086700
     46 H301      -11.1160    1.0670    2.1440 hc        1 IHE      0.048700
     47 H302      -10.7960    2.1500    3.5610 hc        1 IHE      0.048700
     48 H311      -12.9530    0.9250    3.8020 hc        1 IHE      0.045700
     49 H312      -11.7840    0.4890    5.1120 hc        1 IHE      0.045700
     50 H321      -12.8980   -1.5460    4.2710 hc        1 IHE      0.041700
     51 H322      -12.4350   -1.1490    2.5680 hc        1 IHE      0.041700
     52 H331      -10.8930   -2.8480    3.4780 hc        1 IHE      0.045700
     53 H332      -10.5310   -1.8140    4.9170 hc        1 IHE      0.045700
     54 H341       -9.8860   -1.1690    1.9580 hc        1 IHE      0.048700
     55 H342       -8.7120   -1.6570    3.2500 hc        1 IHE      0.048700
@<TRIPOS>BOND
     1    1    4 1   
     2    1    6 1   
     3    1   28 1   
     4    1   29 1   
     5    2    3 1   
     6    2    5 1   
     7    2   30 1   
     8    2   31 1   
     9    3    4 1   
    10    3    7 1   
    11    4   32 1   
    12    4   33 1   
    13    5    6 1   
    14    5   34 1   
    15    5   35 1   
    16    6    8 1   
    17    7   36 1   
    18    7   37 1   
    19    7   38 1   
    20    8    9 1   
    21    8   39 1   
    22    8   40 1   
    23    9   10 1   
    24    9   41 1   
    25    9   42 1   
    26   10   11 1   
    27   10   13 1   
    28   11   12 2   
    29   11   43 1   
    30   12   18 1   
    31   13   14 ar  
    32   13   18 ar  
    33   14   15 ar  
    34   15   16 ar  
    35   15   27 1   
    36   16   17 ar  
    37   17   18 ar  
    38   17   19 1   
    39   19   20 1   
    40   19   44 1   
    41   20   21 1   
    42   20   25 1   
    43   20   45 1   
    44   21   22 1   
    45   21   46 1   
    46   21   47 1   
    47   22   23 1   
    48   22   48 1   
    49   22   49 1   
    50   23   24 1   
    51   23   50 1   
    52   23   51 1   
    53   24   25 1   
    54   24   52 1   
    55   24   53 1   
    56   25   54 1   
    57   25   55 1   
    58   26   27 3   
@<TRIPOS>SUBSTRUCTURE
     1 IHE         1 TEMP              0 ****  ****    0 ROOT
