@<TRIPOS>MOLECULE
IHE
   56    59     1     0     0
SMALL
bcc


@<TRIPOS>ATOM
      1 C01        -0.2880   -0.1410    0.0000 c3        1 IHE      0.170800
      2 C02         1.6190    0.7930    1.9310 c3        1 IHE      0.168300
      3 N03         2.0310   -0.1670    0.9180 n3        1 IHE     -0.732600
      4 C04         1.2240   -0.0620   -0.2880 c3        1 IHE      0.168300
      5 C05         0.1110    0.7180    2.2360 c3        1 IHE      0.170800
      6 N06        -0.7150    0.7900    1.0370 n3        1 IHE     -0.742600
      7 C15         3.4500   -0.1160    0.6460 c3        1 IHE      0.155100
      8 C16        -2.1340    0.6960    1.3250 c3        1 IHE      0.161800
      9 C17        -2.6990    2.1000    1.6710 c3        1 IHE      0.020300
     10 N18        -4.1290    2.1120    1.8530 na        1 IHE     -0.231000
     11 C19        -5.1060    2.3980    0.8810 cc        1 IHE      0.499700
     12 N20        -6.3770    2.2940    1.3250 nd        1 IHE     -0.583100
     13 C21        -4.8290    1.7750    3.0220 ca        1 IHE      0.443800
     14 N22        -4.3980    1.4170    4.2550 nb        1 IHE     -0.593000
     15 C23        -5.4080    1.1880    5.1510 ca        1 IHE      0.785000
     16 N24        -6.7660    1.2810    4.9360 nb        1 IHE     -0.664000
     17 C25        -7.1760    1.6390    3.6970 ca        1 IHE      0.548200
     18 C26        -6.2590    1.9060    2.6600 ca        1 IHE     -0.130200
     19 N28        -8.6230    1.7760    3.4340 n4        1 IHE     -0.749700
     20 C29        -9.3930    0.4790    3.6000 c3        1 IHE      0.128500
     21 C30       -10.9000    0.7630    3.5790 c3        1 IHE     -0.099400
     22 C31       -11.6540   -0.5330    3.8100 c3        1 IHE     -0.077900
     23 C32       -11.2880   -1.5790    2.7790 c3        1 IHE     -0.091400
     24 C33        -9.7940   -1.8210    2.7460 c3        1 IHE     -0.077900
     25 C34        -9.0280   -0.5330    2.5100 c3        1 IHE     -0.099400
     26 N35        -4.6950    0.4900    7.5540 n1        1 IHE     -0.243800
     27 C27        -5.0140    0.8010    6.4830 cg        1 IHE      0.115800
     28 H011       -0.8310    0.1240   -0.9490 h1        1 IHE      0.039700
     29 H012       -0.5500   -1.2060    0.2690 h1        1 IHE      0.039700
     30 H021        1.8780    1.8520    1.6370 h1        1 IHE      0.044950
     31 H022        2.1720    0.5520    2.8820 h1        1 IHE      0.044950
     32 H041        1.4890   -0.9270   -0.9580 h1        1 IHE      0.044950
     33 H042        1.4350    0.8930   -0.8530 h1        1 IHE      0.044950
     34 H051       -0.0930   -0.2250    2.8230 h1        1 IHE      0.039700
     35 H052       -0.1530    1.5970    2.8880 h1        1 IHE      0.039700
     36 H151        3.7070   -0.9360   -0.0740 h1        1 IHE      0.039700
     37 H152        4.0060   -0.2900    1.6040 h1        1 IHE      0.039700
     38 H153        3.7850    0.8640    0.2090 h1        1 IHE      0.039700
     39 H161       -2.3530   -0.0010    2.1870 h1        1 IHE      0.046700
     40 H162       -2.6760    0.3000    0.4200 h1        1 IHE      0.046700
     41 H171       -2.2240    2.4730    2.6240 h1        1 IHE      0.095700
     42 H172       -2.4580    2.8230    0.8390 h1        1 IHE      0.095700
     43 H19        -4.8250    2.6940   -0.1450 h5        1 IHE      0.109800
     44 H28        -8.7460    2.1160    2.4700 hn        1 IHE      0.469300
     45 H29        -9.1110    0.0580    4.6130 hx        1 IHE      0.125700
     46 H301      -11.1740    1.4970    4.3830 hc        1 IHE      0.064200
     47 H302      -11.1990    1.1980    2.5890 hc        1 IHE      0.064200
     48 H311      -12.7550   -0.3210    3.7590 hc        1 IHE      0.067950
     49 H312      -11.4330   -0.9190    4.8400 hc        1 IHE      0.067950
     50 H321      -11.8150   -2.5400    3.0220 hc        1 IHE      0.066200
     51 H322      -11.6410   -1.2520    1.7660 hc        1 IHE      0.066200
     52 H331       -9.4620   -2.2860    3.7120 hc        1 IHE      0.067950
     53 H332       -9.5460   -2.5420    1.9230 hc        1 IHE      0.067950
     54 H341       -7.9270   -0.7430    2.5300 hc        1 IHE      0.064200
     55 H342       -9.2880   -0.1220    1.4990 hc        1 IHE      0.064200
     56 H282       -9.0150    2.4700    4.0860 hn        1 IHE      0.469300
@<TRIPOS>BOND
     1    1    4 1   
     2    1    6 1   
     3    1   28 1   
     4    1   29 1   
     5    2    3 1   
     6    2    5 1   
     7    2   30 1   
     8    2   31 1   
     9    3    4 1   
    10    3    7 1   
    11    4   32 1   
    12    4   33 1   
    13    5    6 1   
    14    5   34 1   
    15    5   35 1   
    16    6    8 1   
    17    7   36 1   
    18    7   37 1   
    19    7   38 1   
    20    8    9 1   
    21    8   39 1   
    22    8   40 1   
    23    9   10 1   
    24    9   41 1   
    25    9   42 1   
    26   10   11 1   
    27   10   13 1   
    28   11   12 2   
    29   11   43 1   
    30   12   18 1   
    31   13   14 ar  
    32   13   18 ar  
    33   14   15 ar  
    34   15   16 ar  
    35   15   27 1   
    36   16   17 ar  
    37   17   18 ar  
    38   17   19 1   
    39   19   20 1   
    40   19   44 1   
    41   19   56 1   
    42   20   21 1   
    43   20   25 1   
    44   20   45 1   
    45   21   22 1   
    46   21   46 1   
    47   21   47 1   
    48   22   23 1   
    49   22   48 1   
    50   22   49 1   
    51   23   24 1   
    52   23   50 1   
    53   23   51 1   
    54   24   25 1   
    55   24   52 1   
    56   24   53 1   
    57   25   54 1   
    58   25   55 1   
    59   26   27 3   
@<TRIPOS>SUBSTRUCTURE
     1 IHE         1 TEMP              0 ****  ****    0 ROOT
