@<TRIPOS>MOLECULE
IHE
   55    58     1     0     0
SMALL
bcc


@<TRIPOS>ATOM
      1 C01         0.1100    0.2410   -0.1610 c3        1 IHE      0.167800
      2 C02         1.8250    0.9720    2.0170 c3        1 IHE      0.168300
      3 N03         2.3650    0.1930    0.9130 n3        1 IHE     -0.732600
      4 C04         1.6320    0.4140   -0.3250 c3        1 IHE      0.168300
      5 C05         0.3030    0.8010    2.1830 c3        1 IHE      0.167800
      6 N06        -0.4310    1.0220    0.9440 n3        1 IHE     -0.736600
      7 C15         3.7890    0.3730    0.7530 c3        1 IHE      0.157100
      8 C16        -1.8650    0.8290    1.1010 c3        1 IHE      0.148800
      9 C17        -2.5240    2.0680    1.7610 c3        1 IHE      0.041300
     10 N18        -3.9540    1.9880    1.8170 na        1 IHE     -0.255000
     11 C19        -4.8720    2.4620    0.8490 cc        1 IHE      0.410700
     12 N20        -6.1510    2.1710    1.1320 nd        1 IHE     -0.543100
     13 C21        -4.7240    1.3110    2.7760 ca        1 IHE      0.446800
     14 N22        -4.3450    0.6520    3.9110 nb        1 IHE     -0.699000
     15 C23        -5.4060    0.1320    4.5910 ca        1 IHE      0.787000
     16 N24        -6.7450    0.1860    4.2920 nb        1 IHE     -0.764000
     17 C25        -7.1240    0.8660    3.1620 ca        1 IHE      0.760200
     18 C26        -6.1050    1.4510    2.3330 ca        1 IHE     -0.214200
     19 N28        -8.4490    1.0530    2.8340 nh        1 IHE     -0.837900
     20 C29        -9.5360    0.3530    3.4920 c3        1 IHE      0.218500
     21 C30       -10.8730    1.0780    3.2460 c3        1 IHE     -0.093400
     22 C31       -11.9840    0.3950    4.0160 c3        1 IHE     -0.075400
     23 C32       -12.1090   -1.0650    3.6340 c3        1 IHE     -0.080400
     24 C33       -10.7930   -1.7900    3.8170 c3        1 IHE     -0.075400
     25 C34        -9.6750   -1.1150    3.0510 c3        1 IHE     -0.093400
     26 N35        -4.8190   -1.1670    6.7750 n1        1 IHE     -0.335800
     27 C27        -5.0800   -0.5890    5.8030 cg        1 IHE      0.154800
     28 H011       -0.1180   -0.8590   -0.0450 h1        1 IHE      0.040200
     29 H012       -0.3780    0.5990   -1.1110 h1        1 IHE      0.040200
     30 H021        2.0560    2.0720    1.9040 h1        1 IHE      0.038200
     31 H022        2.3150    0.6110    2.9640 h1        1 IHE      0.038200
     32 H041        1.9850   -0.3490   -1.0740 h1        1 IHE      0.038200
     33 H042        1.8350    1.4390   -0.7530 h1        1 IHE      0.038200
     34 H051       -0.0480    1.5640    2.9330 h1        1 IHE      0.040200
     35 H052        0.0990   -0.2240    2.6100 h1        1 IHE      0.040200
     36 H151        4.0790    1.4250    0.4780 h1        1 IHE      0.033367
     37 H152        4.1520   -0.3180   -0.0520 h1        1 IHE      0.033367
     38 H153        4.2970    0.1040    1.7160 h1        1 IHE      0.033367
     39 H161       -2.1060   -0.0820    1.7230 h1        1 IHE      0.048200
     40 H162       -2.3230    0.6770    0.0820 h1        1 IHE      0.048200
     41 H171       -2.2520    2.9940    1.1780 h1        1 IHE      0.077700
     42 H172       -2.1390    2.1780    2.8150 h1        1 IHE      0.077700
     43 H19        -4.5290    3.0290   -0.0250 h5        1 IHE      0.077800
     44 H28        -8.6290    1.3930    1.9140 hn        1 IHE      0.446800
     45 H29        -9.3340    0.3670    4.6060 h1        1 IHE      0.086700
     46 H301      -10.7940    2.1470    3.5740 hc        1 IHE      0.048700
     47 H302      -11.1150    1.0720    2.1510 hc        1 IHE      0.048700
     48 H311      -11.7830    0.4790    5.1170 hc        1 IHE      0.045700
     49 H312      -12.9510    0.9230    3.8100 hc        1 IHE      0.045700
     50 H321      -12.4360   -1.1450    2.5640 hc        1 IHE      0.041700
     51 H322      -12.8980   -1.5510    4.2650 hc        1 IHE      0.041700
     52 H331      -10.5310   -1.8240    4.9080 hc        1 IHE      0.045700
     53 H332      -10.8950   -2.8490    3.4640 hc        1 IHE      0.045700
     54 H341       -8.7130   -1.6590    3.2410 hc        1 IHE      0.048700
     55 H342       -9.8880   -1.1640    1.9520 hc        1 IHE      0.048700
@<TRIPOS>BOND
     1    1    4 1   
     2    1    6 1   
     3    1   28 1   
     4    1   29 1   
     5    2    3 1   
     6    2    5 1   
     7    2   30 1   
     8    2   31 1   
     9    3    4 1   
    10    3    7 1   
    11    4   32 1   
    12    4   33 1   
    13    5    6 1   
    14    5   34 1   
    15    5   35 1   
    16    6    8 1   
    17    7   36 1   
    18    7   37 1   
    19    7   38 1   
    20    8    9 1   
    21    8   39 1   
    22    8   40 1   
    23    9   10 1   
    24    9   41 1   
    25    9   42 1   
    26   10   11 1   
    27   10   13 1   
    28   11   12 2   
    29   11   43 1   
    30   12   18 1   
    31   13   14 ar  
    32   13   18 ar  
    33   14   15 ar  
    34   15   16 ar  
    35   15   27 1   
    36   16   17 ar  
    37   17   18 ar  
    38   17   19 1   
    39   19   20 1   
    40   19   44 1   
    41   20   21 1   
    42   20   25 1   
    43   20   45 1   
    44   21   22 1   
    45   21   46 1   
    46   21   47 1   
    47   22   23 1   
    48   22   48 1   
    49   22   49 1   
    50   23   24 1   
    51   23   50 1   
    52   23   51 1   
    53   24   25 1   
    54   24   52 1   
    55   24   53 1   
    56   25   54 1   
    57   25   55 1   
    58   26   27 3   
@<TRIPOS>SUBSTRUCTURE
     1 IHE         1 TEMP              0 ****  ****    0 ROOT
