@<TRIPOS>MOLECULE
IHE
   55    54     1     0     0
SMALL
bcc


@<TRIPOS>ATOM
      1 C01         4.2870    1.0970    1.0670 c3        1 IHE      0.167800
      2 C02         6.3230    1.9570   -0.7120 c3        1 IHE      0.168300
      3 N03         6.4230    2.2520    0.6870 n3        1 IHE     -0.732600
      4 C04         5.7230    1.2990    1.5060 c3        1 IHE      0.168300
      5 C05         4.8730    1.7530   -1.1600 c3        1 IHE      0.167800
      6 N06         4.1760    0.7990   -0.3360 n3        1 IHE     -0.736600
      7 C15         7.8450    2.2890    1.0900 c3        1 IHE      0.157100
      8 C16         2.7620    0.7810   -0.7110 c3        1 IHE      0.148800
      9 C17         2.3860   -0.6010   -1.2520 c3        1 IHE      0.041300
     10 N18         0.9650   -0.7720   -1.1720 n3        1 IHE     -0.099400
     11 C19         0.3010   -0.3830   -2.2830 c1        1 IHE      0.175400
     12 N20        -1.0160   -0.6020   -2.0810 ne        1 IHE     -0.388400
     13 C21         0.0390   -1.2400   -0.2640 c1        1 IHE      0.000700
     14 N22         0.1760   -1.8060    0.9950 n1        1 IHE     -0.417300
     15 C23        -0.9060   -2.2500    1.6540 cg        1 IHE      0.370800
     16 N24        -2.1690   -2.1420    1.0750 n1        1 IHE     -0.563800
     17 C25        -2.3030   -1.6000   -0.1310 c1        1 IHE      0.619600
     18 C26        -1.1720   -1.1360   -0.8200 cg        1 IHE     -0.170000
     19 N28        -3.6520   -1.3880   -0.7990 n3        1 IHE     -0.700800
     20 C29        -4.7590   -0.8680   -0.0380 c3        1 IHE      0.217500
     21 C30        -5.3730    0.2970   -0.8040 c3        1 IHE     -0.093400
     22 C31        -6.6440    0.7930   -0.1740 c3        1 IHE     -0.075400
     23 C32        -7.6430   -0.3280    0.0800 c3        1 IHE     -0.081400
     24 C33        -7.0290   -1.4920    0.8460 c3        1 IHE     -0.075400
     25 C34        -5.7550   -1.9880    0.2150 c3        1 IHE     -0.093400
     26 N35        -0.7780   -3.6770    3.8540 n1        1 IHE     -0.417300
     27 C27        -0.8330   -3.0650    2.9110 cg        1 IHE      0.370800
     28 H011        3.7800    1.9080    1.2590 h1        1 IHE      0.040450
     29 H012        3.8890    0.3290    1.5970 h1        1 IHE      0.040450
     30 H021        6.8190    1.1660   -0.8960 h1        1 IHE      0.037950
     31 H022        6.7160    2.7090   -1.2260 h1        1 IHE      0.037950
     32 H041        6.1820    0.4540    1.4610 h1        1 IHE      0.037950
     33 H042        5.7280    1.6210    2.4530 h1        1 IHE      0.037950
     34 H051        4.4230    2.5780   -1.1210 h1        1 IHE      0.040450
     35 H052        4.8710    1.4280   -2.1030 h1        1 IHE      0.040450
     36 H151        7.9060    2.4220    2.0570 h1        1 IHE      0.033367
     37 H152        8.2660    1.4520    0.8550 h1        1 IHE      0.033367
     38 H153        8.3030    3.0320    0.6230 h1        1 IHE      0.033367
     39 H161        2.5960    1.4750   -1.4200 h1        1 IHE      0.048200
     40 H162        2.2060    0.9860    0.0890 h1        1 IHE      0.048200
     41 H171        2.8350   -1.3030   -0.7100 h1        1 IHE      0.077700
     42 H172        2.6800   -0.6780   -2.2120 h1        1 IHE      0.077700
     43 H19         0.7140    0.0240   -3.1050 DU        1 IHE      0.207000
     44 H28        -3.7610   -1.5930   -1.6800 hn        1 IHE      0.446800
     45 H29        -4.4290   -0.5430    0.8180 h1        1 IHE      0.086700
     46 H301       -4.7310    1.0280   -0.8350 hc        1 IHE      0.048950
     47 H302       -5.5710    0.0050   -1.7310 hc        1 IHE      0.048950
     48 H311       -6.4310    1.2160    0.6640 hc        1 IHE      0.045700
     49 H312       -7.0530    1.4530   -0.7650 hc        1 IHE      0.045700
     50 H321       -8.4090    0.0350    0.6050 hc        1 IHE      0.041700
     51 H322       -7.9690   -0.6470   -0.7610 hc        1 IHE      0.041700
     52 H331       -6.8410   -1.2100    1.7380 hc        1 IHE      0.045700
     53 H332       -7.6810   -2.2330    0.8770 hc        1 IHE      0.045700
     54 H341       -5.9640   -2.4090   -0.6160 hc        1 IHE      0.048950
     55 H342       -5.3210   -2.6840    0.8430 hc        1 IHE      0.048950
@<TRIPOS>BOND
     1    1    4 1   
     2    1    6 1   
     3    1   28 1   
     4    1   29 1   
     5    2    3 1   
     6    2    5 1   
     7    2   30 1   
     8    2   31 1   
     9    3    4 1   
    10    3    7 1   
    11    4   32 1   
    12    4   33 1   
    13    5    6 1   
    14    5   34 1   
    15    5   35 1   
    16    6    8 1   
    17    7   36 1   
    18    7   37 1   
    19    7   38 1   
    20    8    9 1   
    21    8   39 1   
    22    8   40 1   
    23    9   10 1   
    24    9   41 1   
    25    9   42 1   
    26   10   11 2   
    27   10   13 1   
    28   11   12 2   
    29   12   18 1   
    30   13   18 3   
    31   14   15 3   
    32   15   27 1   
    33   16   17 3   
    34   17   19 1   
    35   19   20 1   
    36   19   44 1   
    37   20   21 1   
    38   20   25 1   
    39   20   45 1   
    40   21   22 1   
    41   21   46 1   
    42   21   47 1   
    43   22   23 1   
    44   22   48 1   
    45   22   49 1   
    46   23   24 1   
    47   23   50 1   
    48   23   51 1   
    49   24   25 1   
    50   24   52 1   
    51   24   53 1   
    52   25   54 1   
    53   25   55 1   
    54   26   27 3   
@<TRIPOS>SUBSTRUCTURE
     1 IHE         1 TEMP              0 ****  ****    0 ROOT
