@<TRIPOS>MOLECULE
IHG
   21    20     1     0     0
SMALL
bcc


@<TRIPOS>ATOM
      1 C1          0.0910    0.2830   -0.2910 c3        1 IHG     -0.156100
      2 C2          1.5660    0.0540    0.0080 c3        1 IHG      0.156500
      3 C3          1.7840   -0.1620    1.4930 c3        1 IHG     -0.156100
      4 NE          2.0440   -1.1690   -0.8070 n4        1 IHG     -0.781000
      5 CZ          3.5190   -1.2330   -1.0040 c2        1 IHG      0.636100
      6 NH1         3.9870   -2.3620   -1.9550 n4        1 IHG     -0.521500
      7 NH2         4.4640   -0.5270   -0.5350 n2        1 IHG     -0.615100
      8 OH          3.0780   -2.4770   -2.9480 oh        1 IHG     -0.386300
      9 H11        -0.2240    1.2130    0.2590 hc        1 IHG      0.103033
     10 H12        -0.5490   -0.5580    0.0720 hc        1 IHG      0.103033
     11 H13        -0.1000    0.4590   -1.3790 hc        1 IHG      0.103033
     12 H21         2.1600    0.9390   -0.3710 hx        1 IHG      0.112700
     13 H31         1.1590   -1.0010    1.8900 hc        1 IHG      0.103033
     14 H32         1.4590    0.7740    2.0260 hc        1 IHG      0.103033
     15 H33         2.8530   -0.3450    1.7560 hc        1 IHG      0.103033
     16 HE1         1.7260   -2.0200   -0.3170 hn        1 IHG      0.488800
     17 HH11        4.9420   -2.1170   -2.3160 hn        1 IHG      0.517800
     18 HH21        4.3560    0.2290    0.1180 hn        1 IHG      0.547400
     19 HH1         3.4980   -2.9010   -3.7440 ho        1 IHG      0.534000
     20 HE3         1.5780   -1.1300   -1.7320 hn        1 IHG      0.488800
     21 HH13        4.0370   -3.2540   -1.4120 hn        1 IHG      0.517800
@<TRIPOS>BOND
     1    1    2 1   
     2    1    9 1   
     3    1   10 1   
     4    1   11 1   
     5    2    3 1   
     6    2    4 1   
     7    2   12 1   
     8    3   13 1   
     9    3   14 1   
    10    3   15 1   
    11    4    5 1   
    12    4   16 1   
    13    4   20 1   
    14    5    6 1   
    15    5    7 2   
    16    6    8 1   
    17    6   17 1   
    18    6   21 1   
    19    7   18 1   
    20    8   19 1   
@<TRIPOS>SUBSTRUCTURE
     1 IHG         1 TEMP              0 ****  ****    0 ROOT
