@<TRIPOS>MOLECULE
IHG
   19    18     1     0     0
SMALL
bcc


@<TRIPOS>ATOM
      1 C1         -0.9710    0.3960    2.8540 c3        1 IHG     -0.111100
      2 C2          0.0120    0.2630    1.6870 c3        1 IHG      0.193500
      3 C3          1.0680   -0.7790    2.0580 c3        1 IHG     -0.111100
      4 NE         -0.7140   -0.0170    0.4520 nh        1 IHG     -0.786200
      5 CZ         -0.0260    0.1240   -0.7950 c2        1 IHG      0.691100
      6 NH1        -0.7880   -0.4720   -1.9310 nh        1 IHG     -0.573700
      7 NH2         1.1350    0.7120   -0.8840 n2        1 IHG     -0.840100
      8 OH         -0.2830   -0.0950   -3.1110 oh        1 IHG     -0.416300
      9 H11        -0.4000    0.6940    3.7660 hc        1 IHG      0.041700
     10 H12        -1.7400    1.1770    2.6430 hc        1 IHG      0.041700
     11 H13        -1.4880   -0.5720    3.0590 hc        1 IHG      0.041700
     12 H21         0.5290    1.2610    1.5570 h1        1 IHG      0.086700
     13 H31         0.6010   -1.7780    2.2270 hc        1 IHG      0.041700
     14 H32         1.8380   -0.8720    1.2560 hc        1 IHG      0.041700
     15 H33         1.5780   -0.4630    2.9990 hc        1 IHG      0.041700
     16 HE1        -1.2130   -0.8840    0.5130 hn        1 IHG      0.392800
     17 HH11       -1.7450   -0.1200   -1.9010 hn        1 IHG      0.392800
     18 HH21        1.4620    0.8640   -1.8140 hn        1 IHG      0.402400
     19 HH1         0.2160   -0.8720   -3.4300 ho        1 IHG      0.428000
@<TRIPOS>BOND
     1    1    2 1   
     2    1    9 1   
     3    1   10 1   
     4    1   11 1   
     5    2    3 1   
     6    2    4 1   
     7    2   12 1   
     8    3   13 1   
     9    3   14 1   
    10    3   15 1   
    11    4    5 1   
    12    4   16 1   
    13    5    6 1   
    14    5    7 2   
    15    6    8 1   
    16    6   17 1   
    17    7   18 1   
    18    8   19 1   
@<TRIPOS>SUBSTRUCTURE
     1 IHG         1 TEMP              0 ****  ****    0 ROOT
