@<TRIPOS>MOLECULE
IHG
   21    20     1     0     0
SMALL
bcc


@<TRIPOS>ATOM
      1 C1          0.0760    0.2500   -0.2850 c3        1 IHG     -0.156100
      2 C2          1.5560    0.0450    0.0080 c3        1 IHG      0.156500
      3 C3          1.7860   -0.1580    1.4920 c3        1 IHG     -0.156100
      4 NE          2.0480   -1.1750   -0.8020 n4        1 IHG     -0.781000
      5 CZ          3.5230   -1.2170   -1.0090 c2        1 IHG      0.636100
      6 NH1         4.0030   -2.3410   -1.9590 n4        1 IHG     -0.521500
      7 NH2         4.4590   -0.4950   -0.5480 n2        1 IHG     -0.615100
      8 OH          3.0900   -2.4730   -2.9460 oh        1 IHG     -0.386300
      9 H11        -0.5490   -0.5990    0.0880 hc        1 IHG      0.103033
     10 H12        -0.1240    0.4170   -1.3720 hc        1 IHG      0.103033
     11 H13        -0.2500    1.1780    0.2620 hc        1 IHG      0.103033
     12 H21         2.1340    0.9370   -0.3800 hx        1 IHG      0.112700
     13 H31         1.4490    0.7760    2.0220 hc        1 IHG      0.103033
     14 H32         1.1750   -1.0040    1.8980 hc        1 IHG      0.103033
     15 H33         2.8580   -0.3240    1.7510 hc        1 IHG      0.103033
     16 HE1         1.7480   -2.0270   -0.3050 hn        1 IHG      0.488800
     17 HH11        4.0690   -3.2310   -1.4140 hn        1 IHG      0.517800
     18 HH21        4.3430    0.2620    0.1030 hn        1 IHG      0.547400
     19 HH1         3.5110   -2.8930   -3.7440 ho        1 IHG      0.534000
     20 HE3         1.5760   -1.1490   -1.7240 hn        1 IHG      0.488800
     21 HH13        4.9520   -2.0840   -2.3260 hn        1 IHG      0.517800
@<TRIPOS>BOND
     1    1    2 1   
     2    1    9 1   
     3    1   10 1   
     4    1   11 1   
     5    2    3 1   
     6    2    4 1   
     7    2   12 1   
     8    3   13 1   
     9    3   14 1   
    10    3   15 1   
    11    4    5 1   
    12    4   16 1   
    13    4   20 1   
    14    5    6 1   
    15    5    7 2   
    16    6    8 1   
    17    6   17 1   
    18    6   21 1   
    19    7   18 1   
    20    8   19 1   
@<TRIPOS>SUBSTRUCTURE
     1 IHG         1 TEMP              0 ****  ****    0 ROOT
