@<TRIPOS>MOLECULE
IHG
   19    17     1     0     0
SMALL
bcc


@<TRIPOS>ATOM
      1 C1         -1.8450   -0.5330    0.8260 c3        1 IHG     -0.113600
      2 C2         -0.3050   -0.5390    0.8050 c3        1 IHG      0.185500
      3 C3          0.2220   -0.4910    2.2140 c3        1 IHG     -0.113600
      4 NE          0.1620    0.5910    0.0900 nh        1 IHG     -0.747000
      5 CZ          0.9790    0.4120   -1.1200 c2        1 IHG      0.274000
      6 NH1         0.3780    0.4980   -2.4020 nh        1 IHG     -0.471500
      7 NH2         2.2750    0.1710   -1.0140 n1        1 IHG     -0.300000
      8 OH          0.7190    1.5380   -3.2550 oh        1 IHG     -0.412300
      9 H11        -2.1650    0.3000    1.2420 hc        1 IHG      0.044033
     10 H12        -2.1700   -1.3020    1.3410 hc        1 IHG      0.044033
     11 H13        -2.1860   -0.5900   -0.1020 hc        1 IHG      0.044033
     12 H21         0.0130   -1.3580    0.3650 h1        1 IHG      0.057700
     13 H31         0.0340    0.3980    2.6080 hc        1 IHG      0.044033
     14 H32        -0.2140   -1.1840    2.7510 hc        1 IHG      0.044033
     15 H33         1.1930   -0.6460    2.2040 hc        1 IHG      0.044033
     16 HE1        -0.0170    1.4240    0.3960 hn        1 IHG      0.389800
     17 HH11       -0.1550   -0.1720   -2.6960 hn        1 IHG      0.405800
     18 HH21        2.6590    0.1160   -0.2000 DU        1 IHG      0.159000
     19 HH1         0.4230    1.3680   -4.0540 ho        1 IHG      0.421000
@<TRIPOS>BOND
     1    1    2 1   
     2    1    9 1   
     3    1   10 1   
     4    1   11 1   
     5    2    3 1   
     6    2    4 1   
     7    2   12 1   
     8    3   13 1   
     9    3   14 1   
    10    3   15 1   
    11    4    5 1   
    12    4   16 1   
    13    5    6 1   
    14    5    7 2   
    15    6    8 1   
    16    6   17 1   
    17    8   19 1   
@<TRIPOS>SUBSTRUCTURE
     1 IHG         1 TEMP              0 ****  ****    0 ROOT
