@<TRIPOS>MOLECULE
IHG
   21    20     1     0     0
SMALL
bcc


@<TRIPOS>ATOM
      1 C1          0.0650    0.2220   -0.2620 c3        1 IHG     -0.156100
      2 C2          1.5490    0.0320    0.0200 c3        1 IHG      0.156500
      3 C3          1.7900   -0.1820    1.5010 c3        1 IHG     -0.156100
      4 NE          2.0510   -1.1740   -0.8040 ny        1 IHG     -0.781000
      5 CZ          3.5250   -1.1970   -1.0200 c2        1 IHG      0.636100
      6 NH1         4.0120   -2.3080   -1.9820 ny        1 IHG     -0.521500
      7 NH2         4.4550   -0.4680   -0.5590 n2        1 IHG     -0.615100
      8 OH          3.0940   -2.4430   -2.9650 oh        1 IHG     -0.386300
      9 H11        -0.2680    1.1410    0.2950 hc        1 IHG      0.103033
     10 H12        -0.5480   -0.6370    0.1070 hc        1 IHG      0.103033
     11 H13        -0.1440    0.3970   -1.3470 hc        1 IHG      0.103033
     12 H21         2.1140    0.9340   -0.3630 hx        1 IHG      0.112700
     13 H31         1.1920   -1.0390    1.9030 hc        1 IHG      0.103033
     14 H32         1.4460    0.7430    2.0420 hc        1 IHG      0.103033
     15 H33         2.8660   -0.3370    1.7510 hc        1 IHG      0.103033
     16 HE1         1.7620   -2.0350   -0.3140 hn        1 IHG      0.488800
     17 HH11        4.9550   -2.0370   -2.3530 hn        1 IHG      0.517800
     18 HH21        4.3340    0.2820    0.0990 hn        1 IHG      0.547400
     19 HH1         3.5160   -2.8520   -3.7680 ho        1 IHG      0.534000
     20 HE3         1.5720   -1.1460   -1.7240 hn        1 IHG      0.488800
     21 HH13        4.0920   -3.2010   -1.4450 hn        1 IHG      0.517800
@<TRIPOS>BOND
     1    1    2 1   
     2    1    9 1   
     3    1   10 1   
     4    1   11 1   
     5    2    3 1   
     6    2    4 1   
     7    2   12 1   
     8    3   13 1   
     9    3   14 1   
    10    3   15 1   
    11    4    5 1   
    12    4   16 1   
    13    4   20 1   
    14    5    6 1   
    15    5    7 2   
    16    6    8 1   
    17    6   17 1   
    18    6   21 1   
    19    7   18 1   
    20    8   19 1   
@<TRIPOS>SUBSTRUCTURE
     1 IHG         1 TEMP              0 ****  ****    0 ROOT
