@<TRIPOS>MOLECULE
IHH
   50    54     1     0     0
SMALL
bcc


@<TRIPOS>ATOM
      1 C1         -0.7390   -1.6170    1.2970 ca        1 IHH     -0.039000
      2 C2          0.3020   -2.5640    1.1560 ca        1 IHH     -0.064000
      3 C3          1.2980   -2.6650    2.0990 ca        1 IHH     -0.137300
      4 C4         -0.7770   -0.7660    2.3830 ca        1 IHH     -0.126000
      5 C5          0.2280   -0.8280    3.3720 ca        1 IHH     -0.207600
      6 C6          1.2920   -1.7990    3.2380 ca        1 IHH      0.427600
      7 C8          2.2360   -1.0660    5.2240 ca        1 IHH      0.721900
      8 C10         0.3060    0.0070    4.5440 ca        1 IHH      0.579200
      9 C12         4.4990   -0.3590    5.8580 ca        1 IHH     -0.080400
     10 C13         5.3860   -0.8420    4.8780 ca        1 IHH     -0.087500
     11 C14         6.5030   -0.0830    4.5470 ca        1 IHH     -0.101500
     12 C15         6.7470    1.1470    5.1740 ca        1 IHH     -0.002300
     13 C28        -5.0580   -0.8470    8.7720 cx        1 IHH     -0.098900
     14 C29        -5.8670    0.1780    8.0490 cx        1 IHH     -0.098900
     15 C27        -4.3750    0.3820    8.2120 cx        1 IHH     -0.128400
     16 C24        -3.4800    0.2920    7.0700 cc        1 IHH      0.017400
     17 C23        -2.3390    1.0700    6.7820 cd        1 IHH     -0.248300
     18 N25        -3.6090   -0.6220    6.0060 na        1 IHH      0.044400
     19 N26        -2.6780   -0.4960    5.0870 nc        1 IHH     -0.462800
     20 C22        -1.8690    0.5460    5.5190 cd        1 IHH      0.290200
     21 N21        -0.7300    1.0500    4.7760 n4        1 IHH     -0.690400
     22 N9          1.2750   -0.0870    5.4640 nb        1 IHH     -0.676000
     23 N7          2.2920   -1.9070    4.1760 nb        1 IHH     -0.593000
     24 N11         3.3340   -1.1670    6.2410 n4        1 IHH     -0.596100
     25 C17         4.7310    0.8710    6.4990 ca        1 IHH     -0.087500
     26 C16         5.8580    1.6110    6.1530 ca        1 IHH     -0.101500
     27 C18         7.9520    1.9510    4.8130 c3        1 IHH      0.009000
     28 C19         8.1000    2.0760    3.3800 c1        1 IHH      0.178700
     29 N20         8.2260    2.1920    2.2300 n1        1 IHH     -0.303800
     30 H1         -1.5280   -1.5670    0.5240 ha        1 IHH      0.189000
     31 H2          0.3060   -3.2320    0.2730 ha        1 IHH      0.194000
     32 H3          2.1080   -3.4100    1.9900 ha        1 IHH      0.195000
     33 H4         -1.6200   -0.0610    2.4670 ha        1 IHH      0.158000
     34 H13         5.2150   -1.8070    4.3710 ha        1 IHH      0.163000
     35 H14         7.2050   -0.4550    3.7790 ha        1 IHH      0.182000
     36 H29        -6.2770   -0.0550    7.0500 hc        1 IHH      0.094200
     37 H29A       -6.5450    0.8400    8.6220 hc        1 IHH      0.094200
     38 H27        -4.0330    1.1590    8.9300 hc        1 IHH      0.124700
     39 H23        -1.9250    1.8820    7.3730 ha        1 IHH      0.199000
     40 HN11        2.9790   -0.8490    7.1550 hn        1 IHH      0.485800
     41 H17         4.0480    1.2590    7.2720 ha        1 IHH      0.163000
     42 H16         6.0470    2.5740    6.6600 ha        1 IHH      0.182000
     43 H18         7.8970    2.9820    5.2680 hc        1 IHH      0.111200
     44 H18A        8.8710    1.4480    5.2390 hc        1 IHH      0.111200
     45 H181       -4.3300   -1.3130    5.8990 hn        1 IHH      0.365700
     46 H19        -1.0440    1.3960    3.8540 hn        1 IHH      0.488300
     47 H28        -5.1470   -0.9330    9.8720 hc        1 IHH      0.094200
     48 H212       -0.3380    1.8390    5.3180 hn        1 IHH      0.488300
     49 H112        3.6230   -2.1570    6.3140 hn        1 IHH      0.485800
     50 H28A       -4.8800   -1.8320    8.3030 hc        1 IHH      0.094200
@<TRIPOS>BOND
     1    1    2 ar  
     2    1    4 ar  
     3    1   30 1   
     4    2    3 ar  
     5    2   31 1   
     6    3    6 ar  
     7    3   32 1   
     8    4    5 ar  
     9    4   33 1   
    10    5    6 ar  
    11    5    8 ar  
    12    6   23 ar  
    13    7   22 ar  
    14    7   23 ar  
    15    7   24 1   
    16    8   21 1   
    17    8   22 ar  
    18    9   10 ar  
    19    9   24 1   
    20    9   25 ar  
    21   10   11 ar  
    22   10   34 1   
    23   11   12 ar  
    24   11   35 1   
    25   12   26 ar  
    26   12   27 1   
    27   13   14 1   
    28   13   15 1   
    29   13   47 1   
    30   13   50 1   
    31   14   15 1   
    32   14   36 1   
    33   14   37 1   
    34   15   16 1   
    35   15   38 1   
    36   16   17 2   
    37   16   18 1   
    38   17   20 1   
    39   17   39 1   
    40   18   19 1   
    41   18   45 1   
    42   19   20 2   
    43   20   21 1   
    44   21   46 1   
    45   21   48 1   
    46   24   40 1   
    47   24   49 1   
    48   25   26 ar  
    49   25   41 1   
    50   26   42 1   
    51   27   28 1   
    52   27   43 1   
    53   27   44 1   
    54   28   29 3   
@<TRIPOS>SUBSTRUCTURE
     1 IHH         1 TEMP              0 ****  ****    0 ROOT
