@<TRIPOS>MOLECULE
IHH
   48    52     1     0     0
SMALL
bcc


@<TRIPOS>ATOM
      1 C1          0.5420   -5.1600   -0.4590 ca        1 IHH     -0.155000
      2 C2         -0.8500   -5.0670   -0.2420 ca        1 IHH     -0.095000
      3 C3         -1.4380   -3.8600    0.0380 ca        1 IHH     -0.191300
      4 C4          1.3320   -4.0350   -0.3880 ca        1 IHH     -0.080000
      5 C5          0.7650   -2.7750   -0.0940 ca        1 IHH     -0.313600
      6 C6         -0.6440   -2.6690    0.1200 ca        1 IHH      0.469600
      7 C8         -0.4730   -0.3750    0.4690 ca        1 IHH      0.899900
      8 C10         1.5210   -1.5250   -0.0030 ca        1 IHH      0.718200
      9 C12        -2.4000    1.1620    0.6920 ca        1 IHH      0.145600
     10 C13        -2.8020    2.3080   -0.0340 ca        1 IHH     -0.139500
     11 C14        -4.1440    2.6580   -0.1100 ca        1 IHH     -0.102500
     12 C15        -5.1210    1.8810    0.5210 ca        1 IHH     -0.108300
     13 C28         6.3790    3.4600   -0.7840 cx        1 IHH     -0.126900
     14 C29         5.5920    3.9210    0.4030 cx        1 IHH     -0.126900
     15 C27         4.9460    3.0160   -0.6180 cx        1 IHH     -0.062400
     16 C24         4.6200    1.6340   -0.2960 cc        1 IHH     -0.071600
     17 C23         3.5210    0.8700   -0.7210 cd        1 IHH     -0.246300
     18 N25         5.3880    0.7950    0.5270 na        1 IHH     -0.006600
     19 N26         4.8670   -0.4170    0.6660 nc        1 IHH     -0.545800
     20 C22         3.7090   -0.4290   -0.0960 cd        1 IHH      0.503200
     21 N21         2.8980   -1.5620   -0.2910 nh        1 IHH     -0.789600
     22 N9          0.9210   -0.3550    0.2680 nb        1 IHH     -0.793000
     23 N7         -1.2660   -1.4730    0.3970 nb        1 IHH     -0.762000
     24 N11        -1.0240    0.8780    0.8350 nh        1 IHH     -0.707300
     25 C17        -3.3890    0.3880    1.3360 ca        1 IHH     -0.139500
     26 C16        -4.7290    0.7480    1.2390 ca        1 IHH     -0.102500
     27 C18        -6.5580    2.2700    0.4470 c3        1 IHH      0.030000
     28 C19        -7.1910    1.8020   -0.7690 c1        1 IHH      0.213700
     29 N20        -7.7080    1.4300   -1.7420 n1        1 IHH     -0.372800
     30 H1          0.9860   -6.1400   -0.6880 ha        1 IHH      0.137000
     31 H2         -1.4630   -5.9800   -0.3040 ha        1 IHH      0.137000
     32 H3         -2.5250   -3.7850    0.2020 ha        1 IHH      0.154000
     33 H4          2.4110   -4.1380   -0.5770 ha        1 IHH      0.130000
     34 H13        -2.0560    2.9350   -0.5440 ha        1 IHH      0.148000
     35 H14        -4.4400    3.5530   -0.6790 ha        1 IHH      0.135500
     36 H28A        7.1930    2.7270   -0.6430 hc        1 IHH      0.075700
     37 H29         5.8360    3.5200    1.4030 hc        1 IHH      0.075700
     38 H29A        5.2600    4.9730    0.4560 hc        1 IHH      0.075700
     39 H27         4.1840    3.4590   -1.2940 hc        1 IHH      0.101700
     40 H23         2.7000    1.1710   -1.3600 ha        1 IHH      0.178000
     41 HN11       -0.4260    1.6580    0.6420 hn        1 IHH      0.437800
     42 H17        -3.1130   -0.5040    1.9190 ha        1 IHH      0.148000
     43 H16        -5.4880    0.1280    1.7420 ha        1 IHH      0.135500
     44 H18        -7.1190    1.8480    1.3280 hc        1 IHH      0.078200
     45 H18A       -6.6530    3.3930    0.4910 hc        1 IHH      0.078200
     46 H181        6.2400    1.0260    0.9800 hn        1 IHH      0.322700
     47 H19         3.3350   -2.4280   -0.0380 hn        1 IHH      0.434800
     48 H28         6.6150    4.1800   -1.5890 hc        1 IHH      0.075700
@<TRIPOS>BOND
     1    1    2 ar  
     2    1    4 ar  
     3    1   30 1   
     4    2    3 ar  
     5    2   31 1   
     6    3    6 ar  
     7    3   32 1   
     8    4    5 ar  
     9    4   33 1   
    10    5    6 ar  
    11    5    8 ar  
    12    6   23 ar  
    13    7   22 ar  
    14    7   23 ar  
    15    7   24 1   
    16    8   21 1   
    17    8   22 ar  
    18    9   10 ar  
    19    9   24 1   
    20    9   25 ar  
    21   10   11 ar  
    22   10   34 1   
    23   11   12 ar  
    24   11   35 1   
    25   12   26 ar  
    26   12   27 1   
    27   13   14 1   
    28   13   15 1   
    29   13   36 1   
    30   13   48 1   
    31   14   15 1   
    32   14   37 1   
    33   14   38 1   
    34   15   16 1   
    35   15   39 1   
    36   16   17 2   
    37   16   18 1   
    38   17   20 1   
    39   17   40 1   
    40   18   19 1   
    41   18   46 1   
    42   19   20 2   
    43   20   21 1   
    44   21   47 1   
    45   24   41 1   
    46   25   26 ar  
    47   25   42 1   
    48   26   43 1   
    49   27   28 1   
    50   27   44 1   
    51   27   45 1   
    52   28   29 3   
@<TRIPOS>SUBSTRUCTURE
     1 IHH         1 TEMP              0 ****  ****    0 ROOT
