@<TRIPOS>MOLECULE
IHH
   48    52     1     0     0
SMALL
bcc


@<TRIPOS>ATOM
      1 C1         -0.2750   -0.1920   -0.0680 ca        1 IHH     -0.155000
      2 C2          1.1030    0.0750   -0.2130 ca        1 IHH     -0.095000
      3 C3          1.9000    0.2750    0.8870 ca        1 IHH     -0.191300
      4 C4         -0.8420   -0.2530    1.1850 ca        1 IHH     -0.080000
      5 C5         -0.0570   -0.0440    2.3410 ca        1 IHH     -0.313600
      6 C6          1.3400    0.2200    2.2060 ca        1 IHH      0.469600
      7 C8          1.5930    0.3610    4.5140 ca        1 IHH      0.899900
      8 C10        -0.5680   -0.0950    3.7120 ca        1 IHH      0.718200
      9 C12         3.7670    0.5350    5.6830 ca        1 IHH      0.145600
     10 C13         4.3970   -0.2690    6.6630 ca        1 IHH     -0.139500
     11 C14         5.7820   -0.3170    6.7510 ca        1 IHH     -0.102500
     12 C15         6.5780    0.4210    5.8700 ca        1 IHH     -0.108300
     13 C28        -4.3860   -1.5070    9.4120 cx        1 IHH     -0.126900
     14 C29        -3.5570   -0.3320    9.8280 cx        1 IHH     -0.126900
     15 C27        -3.0660   -1.2430    8.7290 cx        1 IHH     -0.062400
     16 C24        -3.0130   -0.7890    7.3470 cc        1 IHH     -0.071600
     17 C23        -2.0660   -1.1010    6.3570 cd        1 IHH     -0.246300
     18 N25        -3.9440    0.0690    6.7430 na        1 IHH     -0.006600
     19 N26        -3.6630    0.3340    5.4740 nc        1 IHH     -0.545800
     20 C22        -2.5100   -0.3740    5.1780 cd        1 IHH      0.503200
     21 N21        -1.9200   -0.4360    3.9030 nu        1 IHH     -0.789600
     22 N9          0.2340    0.1010    4.7710 nb        1 IHH     -0.793000
     23 N7          2.1680    0.4190    3.2870 nb        1 IHH     -0.762000
     24 N11         2.3590    0.6410    5.6730 nu        1 IHH     -0.707300
     25 C17         4.5760    1.2860    4.8050 ca        1 IHH     -0.139500
     26 C16         5.9620    1.2170    4.9010 ca        1 IHH     -0.102500
     27 C18         8.0650    0.3770    5.9790 c3        1 IHH      0.030000
     28 C19         8.6320   -0.7620    5.2850 c1        1 IHH      0.213700
     29 N20         9.0960   -1.6720    4.7310 n1        1 IHH     -0.372800
     30 H1         -0.8890   -0.3550   -0.9660 ha        1 IHH      0.137000
     31 H2          1.5360    0.1180   -1.2250 ha        1 IHH      0.137000
     32 H3          2.9770    0.4780    0.7750 ha        1 IHH      0.154000
     33 H4         -1.9160   -0.4780    1.2660 ha        1 IHH      0.130000
     34 H13         3.7950   -0.8650    7.3670 ha        1 IHH      0.148000
     35 H14         6.2550   -0.9480    7.5190 ha        1 IHH      0.135500
     36 H28A       -5.3260   -1.3370    8.8580 hc        1 IHH      0.075700
     37 H29        -3.8960    0.6880    9.5730 hc        1 IHH      0.075700
     38 H29A       -3.0350   -0.3560   10.8020 hc        1 IHH      0.075700
     39 H27        -2.2180   -1.9230    8.9600 hc        1 IHH      0.101700
     40 H23        -1.1870   -1.7270    6.4420 ha        1 IHH      0.178000
     41 HN11        1.9230    0.3560    6.5280 hn        1 IHH      0.437800
     42 H17         4.1220    1.9310    4.0370 ha        1 IHH      0.148000
     43 H16         6.5780    1.8040    4.2010 ha        1 IHH      0.135500
     44 H18         8.5120    1.3170    5.5490 hc        1 IHH      0.078200
     45 H18A        8.3670    0.3220    7.0640 hc        1 IHH      0.078200
     46 H181       -4.7500    0.4640    7.1680 hn        1 IHH      0.322700
     47 H19        -2.5170   -0.1290    3.1600 hn        1 IHH      0.434800
     48 H28        -4.4630   -2.3800   10.0850 hc        1 IHH      0.075700
@<TRIPOS>BOND
     1    1    2 ar  
     2    1    4 ar  
     3    1   30 1   
     4    2    3 ar  
     5    2   31 1   
     6    3    6 ar  
     7    3   32 1   
     8    4    5 ar  
     9    4   33 1   
    10    5    6 ar  
    11    5    8 ar  
    12    6   23 ar  
    13    7   22 ar  
    14    7   23 ar  
    15    7   24 1   
    16    8   21 1   
    17    8   22 ar  
    18    9   10 ar  
    19    9   24 1   
    20    9   25 ar  
    21   10   11 ar  
    22   10   34 1   
    23   11   12 ar  
    24   11   35 1   
    25   12   26 ar  
    26   12   27 1   
    27   13   14 1   
    28   13   15 1   
    29   13   36 1   
    30   13   48 1   
    31   14   15 1   
    32   14   37 1   
    33   14   38 1   
    34   15   16 1   
    35   15   39 1   
    36   16   17 2   
    37   16   18 1   
    38   17   20 1   
    39   17   40 1   
    40   18   19 1   
    41   18   46 1   
    42   19   20 2   
    43   20   21 1   
    44   21   47 1   
    45   24   41 1   
    46   25   26 ar  
    47   25   42 1   
    48   26   43 1   
    49   27   28 1   
    50   27   44 1   
    51   27   45 1   
    52   28   29 3   
@<TRIPOS>SUBSTRUCTURE
     1 IHH         1 TEMP              0 ****  ****    0 ROOT
