@<TRIPOS>MOLECULE
IHI
   56    60     1     0     0
SMALL
bcc


@<TRIPOS>ATOM
      1 C01         0.0580    0.0260    0.0440 cc        1 IHI      0.416700
      2 N02         1.3960   -0.0540   -0.0210 nd        1 IHI     -0.541100
      3 C03         1.8220   -0.1080    1.3120 ca        1 IHI     -0.202200
      4 C04         0.6680   -0.0540    2.2070 ca        1 IHI      0.446800
      5 N05        -0.4520    0.0300    1.3650 na        1 IHI     -0.249000
      6 C07         3.1210   -0.2040    1.9170 ca        1 IHI      0.746200
      7 N08         0.7630   -0.0790    3.5690 nb        1 IHI     -0.688000
      8 N09         3.2170   -0.2150    3.2810 nb        1 IHI     -0.750000
      9 C10         2.0510   -0.1580    4.0080 ca        1 IHI      0.780000
     10 N11         4.2320   -0.3490    1.0950 nh        1 IHI     -0.697300
     11 C12        -1.8440    0.1040    1.7270 c3        1 IHI      0.060000
     12 C13        -2.3730   -1.1090    2.5230 c3        1 IHI     -0.093400
     13 C14        -3.5490   -0.5920    3.3370 c3        1 IHI     -0.078400
     14 C15        -3.4620    0.9290    3.3650 c3        1 IHI     -0.078400
     15 C16        -2.2320    1.3390    2.5690 c3        1 IHI     -0.093400
     16 N27         2.3640   -0.2010    6.5960 n1        1 IHI     -0.333800
     17 C32         5.5590   -0.2110    1.5630 ca        1 IHI      0.103600
     18 C33         6.0540   -1.0090    2.6100 ca        1 IHI     -0.082000
     19 C34         7.3830   -0.9030    3.0190 ca        1 IHI     -0.146000
     20 C35         8.2500   -0.0170    2.3890 ca        1 IHI     -0.104000
     21 C36         7.7950    0.7780    1.3370 ca        1 IHI     -0.188000
     22 C37         6.4630    0.6930    0.9280 ca        1 IHI      0.095100
     23 O38         5.9400    1.4220   -0.1280 os        1 IHI     -0.344900
     24 C39         6.7280    2.5330   -0.5710 c3        1 IHI      0.136400
     25 C26         2.2240   -0.1810    5.4440 cg        1 IHI      0.154800
     26 C40         5.8350    3.3090   -1.5240 c3        1 IHI     -0.113400
     27 C41         6.6250    4.4880   -2.0960 c3        1 IHI      0.043300
     28 N51         5.8850    5.3180   -2.9960 na        1 IHI     -0.211900
     29 C52         5.7890    5.1730   -4.3910 cc        1 IHI      0.389400
     30 N53         4.9630    6.0960   -4.9240 nd        1 IHI     -0.665000
     31 C54         4.4950    6.8560   -3.8520 cd        1 IHI      0.291200
     32 C55         5.0480    6.3850   -2.6480 cc        1 IHI     -0.255600
     33 H01        -0.6120    0.0840   -0.8240 h5        1 IHI      0.077800
     34 H11         4.0920   -0.0570    0.1450 hn        1 IHI      0.463800
     35 H12        -2.4130    0.1550    0.7490 h1        1 IHI      0.061700
     36 H131       -1.5840   -1.5200    3.2030 hc        1 IHI      0.061700
     37 H132       -2.6830   -1.9260    1.8270 hc        1 IHI      0.061700
     38 H141       -4.5160   -0.9170    2.8760 hc        1 IHI      0.048200
     39 H142       -3.5180   -1.0100    4.3730 hc        1 IHI      0.048200
     40 H151       -4.3830    1.3800    2.9180 hc        1 IHI      0.048200
     41 H152       -3.3850    1.3030    4.4170 hc        1 IHI      0.048200
     42 H161       -2.4450    2.2110    1.9040 hc        1 IHI      0.061700
     43 H162       -1.4030    1.6310    3.2620 hc        1 IHI      0.061700
     44 H33         5.3910   -1.7250    3.1210 ha        1 IHI      0.159000
     45 H34         7.7420   -1.5310    3.8480 ha        1 IHI      0.141000
     46 H35         9.2980    0.0600    2.7150 ha        1 IHI      0.136000
     47 H36         8.4920    1.4680    0.8410 ha        1 IHI      0.137000
     48 H391        7.6420    2.1470   -1.0960 h1        1 IHI      0.043200
     49 H392        7.0320    3.1630    0.3050 h1        1 IHI      0.043200
     50 H401        5.4830    2.6320   -2.3450 hc        1 IHI      0.073200
     51 H402        4.9250    3.6690   -0.9770 hc        1 IHI      0.073200
     52 H411        7.5260    4.0910   -2.6460 h1        1 IHI      0.060700
     53 H412        6.9880    5.1310   -1.2420 h1        1 IHI      0.060700
     54 H52         6.3410    4.4070   -4.9430 h5        1 IHI      0.060100
     55 H54         3.8030    7.6840   -4.0010 h4        1 IHI      0.043100
     56 H55         4.9240    6.7180   -1.6200 h4        1 IHI      0.176000
@<TRIPOS>BOND
     1    1    2 2   
     2    1    5 1   
     3    1   33 1   
     4    2    3 1   
     5    3    4 ar  
     6    3    6 ar  
     7    4    5 1   
     8    4    7 ar  
     9    5   11 1   
    10    6    8 ar  
    11    6   10 1   
    12    7    9 ar  
    13    8    9 ar  
    14    9   25 1   
    15   10   17 1   
    16   10   34 1   
    17   11   12 1   
    18   11   15 1   
    19   11   35 1   
    20   12   13 1   
    21   12   36 1   
    22   12   37 1   
    23   13   14 1   
    24   13   38 1   
    25   13   39 1   
    26   14   15 1   
    27   14   40 1   
    28   14   41 1   
    29   15   42 1   
    30   15   43 1   
    31   16   25 3   
    32   17   18 ar  
    33   17   22 ar  
    34   18   19 ar  
    35   18   44 1   
    36   19   20 ar  
    37   19   45 1   
    38   20   21 ar  
    39   20   46 1   
    40   21   22 ar  
    41   21   47 1   
    42   22   23 1   
    43   23   24 1   
    44   24   26 1   
    45   24   48 1   
    46   24   49 1   
    47   26   27 1   
    48   26   50 1   
    49   26   51 1   
    50   27   28 1   
    51   27   52 1   
    52   27   53 1   
    53   28   29 1   
    54   28   32 1   
    55   29   30 2   
    56   29   54 1   
    57   30   31 1   
    58   31   32 2   
    59   31   55 1   
    60   32   56 1   
@<TRIPOS>SUBSTRUCTURE
     1 IHI         1 TEMP              0 ****  ****    0 ROOT
