@<TRIPOS>MOLECULE
IHI
   57    61     1     0     0
SMALL
bcc


@<TRIPOS>ATOM
      1 C01         0.6580    0.5890   -0.0710 cc        1 IHI      0.495700
      2 N02         1.9410    0.1730   -0.1200 nd        1 IHI     -0.579100
      3 C03         2.2230   -0.2690    1.1720 ca        1 IHI     -0.130200
      4 C04         1.0290   -0.1040    2.0340 ca        1 IHI      0.447800
      5 N05         0.0520    0.4520    1.1940 na        1 IHI     -0.227000
      6 C07         3.3580   -0.8230    1.7990 ca        1 IHI      0.553200
      7 N08         1.0050   -0.4540    3.3430 nb        1 IHI     -0.594000
      8 N09         3.3490   -1.1870    3.1000 nb        1 IHI     -0.659000
      9 C10         2.1800   -0.9840    3.8020 ca        1 IHI      0.779000
     10 N11         4.5880   -1.0280    0.9950 n4        1 IHI     -0.597100
     11 C12        -1.3130    0.8130    1.5220 c3        1 IHI      0.043000
     12 C13        -2.1940   -0.3640    1.9920 c3        1 IHI     -0.090900
     13 C14        -3.2640    0.2530    2.8800 c3        1 IHI     -0.080400
     14 C15        -2.8000    1.6510    3.2690 c3        1 IHI     -0.080400
     15 C16        -1.4470    1.8930    2.6160 c3        1 IHI     -0.090900
     16 N27         2.2360   -1.7000    6.3030 n1        1 IHI     -0.252800
     17 C32         5.8110   -0.5400    1.6350 ca        1 IHI     -0.099400
     18 C33         6.4070   -1.2790    2.6750 ca        1 IHI     -0.047000
     19 C34         7.5810   -0.8230    3.2590 ca        1 IHI     -0.144000
     20 C35         8.1720    0.3680    2.8240 ca        1 IHI     -0.033000
     21 C36         7.5960    1.1130    1.8010 ca        1 IHI     -0.192000
     22 C37         6.4080    0.6730    1.2000 ca        1 IHI      0.176100
     23 O38         5.7590    1.3250    0.1800 os        1 IHI     -0.360900
     24 C39         6.3350    2.5680   -0.2710 c3        1 IHI      0.138400
     25 C26         2.2110   -1.3810    5.1880 cg        1 IHI      0.119800
     26 C40         5.3590    3.0950   -1.3060 c3        1 IHI     -0.117400
     27 C41         5.9410    4.3580   -1.9530 c3        1 IHI      0.049300
     28 N51         5.0620    4.9880   -2.8860 na        1 IHI     -0.222900
     29 C52         4.8260    4.5970   -4.2180 cc        1 IHI      0.391400
     30 N53         3.8600    5.3450   -4.7820 nd        1 IHI     -0.652000
     31 C54         3.4400    6.2410   -3.7960 cd        1 IHI      0.303200
     32 C55         4.1650    6.0300   -2.6120 cc        1 IHI     -0.258600
     33 H01         0.1070    1.0040   -0.9320 h5        1 IHI      0.107800
     34 H11         4.4650   -0.5320    0.0940 hn        1 IHI      0.482300
     35 H12        -1.7520    1.2240    0.5620 h1        1 IHI      0.079700
     36 H131       -2.6430   -0.8890    1.1130 hc        1 IHI      0.062950
     37 H132       -1.5980   -1.1140    2.5710 hc        1 IHI      0.062950
     38 H141       -3.4250   -0.3800    3.7890 hc        1 IHI      0.061450
     39 H142       -4.2400    0.3040    2.3350 hc        1 IHI      0.061450
     40 H151       -2.7170    1.7480    4.3800 hc        1 IHI      0.061450
     41 H152       -3.5410    2.4160    2.9230 hc        1 IHI      0.061450
     42 H161       -0.6320    1.8060    3.3780 hc        1 IHI      0.062950
     43 H162       -1.3860    2.9130    2.1650 hc        1 IHI      0.062950
     44 H33         5.9470   -2.2160    3.0360 ha        1 IHI      0.169000
     45 H34         8.0460   -1.4040    4.0720 ha        1 IHI      0.172000
     46 H35         9.1050    0.7210    3.2970 ha        1 IHI      0.168000
     47 H36         8.0750    2.0460    1.4660 ha        1 IHI      0.167000
     48 H391        6.4300    3.2700    0.5980 h1        1 IHI      0.059700
     49 H392        7.3430    2.3590   -0.7150 h1        1 IHI      0.059700
     50 H401        4.3770    3.3200   -0.8150 hc        1 IHI      0.072200
     51 H402        5.1730    2.3110   -2.0860 hc        1 IHI      0.072200
     52 H411        6.8940    4.0830   -2.4920 h1        1 IHI      0.066200
     53 H412        6.1940    5.1010   -1.1430 h1        1 IHI      0.066200
     54 H52         5.3950    3.8020   -4.7090 h5        1 IHI      0.062100
     55 H54         2.6640    6.9800   -3.9940 h4        1 IHI      0.051100
     56 H55         4.1310    6.5340   -1.6490 h4        1 IHI      0.177000
     57 H112        4.6910   -2.0370    0.8180 hn        1 IHI      0.482300
@<TRIPOS>BOND
     1    1    2 2   
     2    1    5 1   
     3    1   33 1   
     4    2    3 1   
     5    3    4 ar  
     6    3    6 ar  
     7    4    5 1   
     8    4    7 ar  
     9    5   11 1   
    10    6    8 ar  
    11    6   10 1   
    12    7    9 ar  
    13    8    9 ar  
    14    9   25 1   
    15   10   17 1   
    16   10   34 1   
    17   10   57 1   
    18   11   12 1   
    19   11   15 1   
    20   11   35 1   
    21   12   13 1   
    22   12   36 1   
    23   12   37 1   
    24   13   14 1   
    25   13   38 1   
    26   13   39 1   
    27   14   15 1   
    28   14   40 1   
    29   14   41 1   
    30   15   42 1   
    31   15   43 1   
    32   16   25 3   
    33   17   18 ar  
    34   17   22 ar  
    35   18   19 ar  
    36   18   44 1   
    37   19   20 ar  
    38   19   45 1   
    39   20   21 ar  
    40   20   46 1   
    41   21   22 ar  
    42   21   47 1   
    43   22   23 1   
    44   23   24 1   
    45   24   26 1   
    46   24   48 1   
    47   24   49 1   
    48   26   27 1   
    49   26   50 1   
    50   26   51 1   
    51   27   28 1   
    52   27   52 1   
    53   27   53 1   
    54   28   29 1   
    55   28   32 1   
    56   29   30 2   
    57   29   54 1   
    58   30   31 1   
    59   31   32 2   
    60   31   55 1   
    61   32   56 1   
@<TRIPOS>SUBSTRUCTURE
     1 IHI         1 TEMP              0 ****  ****    0 ROOT
