@<TRIPOS>MOLECULE
IHI
   56    49     1     0     0
SMALL
bcc


@<TRIPOS>ATOM
      1 C01        -2.8100    1.0980   -0.9710 c1        1 IHI     -0.039000
      2 N02        -1.5000    1.2260   -1.2410 n2        1 IHI     -0.114000
      3 C03        -0.8940    1.7630   -0.1450 c1        1 IHI     -0.211000
      4 C04        -1.8320    1.9630    0.7930 c1        1 IHI      0.055000
      5 N05        -3.0250    1.5510    0.2850 n1        1 IHI     -0.166000
      6 C07         0.4320    2.0500    0.1320 c1        1 IHI      0.225000
      7 N08        -1.4730    2.4570    2.0390 n1        1 IHI     -0.162000
      8 N09         0.7870    2.5410    1.3670 n1        1 IHI     -0.116500
      9 C10        -0.1600    2.7420    2.3120 c1        1 IHI      0.041500
     10 N11         1.5840    1.8470   -0.7320 n3        1 IHI     -0.218000
     11 C12        -4.4670    1.5210    0.0330 c2        1 IHI      0.040000
     12 C13        -5.1060    0.0830    0.5650 c3        1 IHI     -0.172000
     13 C14        -5.2870    0.2190    1.8810 c3        1 IHI     -0.157000
     14 C15        -5.4860    1.7540    2.1030 c3        1 IHI     -0.157000
     15 C16        -5.0560    2.4520    0.7100 c3        1 IHI     -0.172000
     16 N27        -0.0870    3.3870    4.9560 n1        1 IHI     -0.116500
     17 C32         2.9090    1.8360   -0.1710 c2        1 IHI      0.023000
     18 C33         3.3300    2.8920    0.6540 c2        1 IHI     -0.083000
     19 C34         4.6280    2.9100    1.1560 c1        1 IHI     -0.145000
     20 C35         5.5200    1.8710    0.8380 c1        1 IHI     -0.145500
     21 C36         5.1050    0.8220    0.0190 c1        1 IHI     -0.145500
     22 C37         3.7920    0.8030   -0.4890 c1        1 IHI      0.049000
     23 O38         3.4150   -0.1820   -1.4600 os        1 IHI     -0.228000
     24 C39         3.7040   -1.5120   -1.0770 c3        1 IHI     -0.014000
     25 C26        -0.1180    3.1080    3.8110 c1        1 IHI      0.041500
     26 C40         2.9390   -2.4700   -1.9750 c3        1 IHI     -0.192000
     27 C41         2.8920   -3.8630   -1.3250 c3        1 IHI     -0.016000
     28 N51         1.7470   -4.5720   -1.8080 n3        1 IHI     -0.167000
     29 C52         1.7420   -5.4980   -2.7990 c1        1 IHI     -0.099000
     30 N53         0.4880   -5.9740   -2.9180 n2        1 IHI     -0.139000
     31 C54        -0.2760   -5.3540   -2.0160 c1        1 IHI     -0.174000
     32 C55         0.5120   -4.4810   -1.3250 c1        1 IHI     -0.166000
     33 H01        -3.4980    0.7270   -1.5840 DU        1 IHI      0.189750
     34 H11         1.4750    1.7930   -1.6110 hn        1 IHI      0.259000
     35 H12        -4.6460    1.6370   -0.9360 ha        1 IHI      0.101000
     36 H131       -4.4910   -0.6390    0.3880 hc        1 IHI      0.101000
     37 H132       -5.9610   -0.0880    0.1230 hc        1 IHI      0.101000
     38 H141       -6.0990   -0.2810    2.1720 hc        1 IHI      0.087500
     39 H142       -4.4910   -0.1000    2.3730 hc        1 IHI      0.087500
     40 H151       -4.9090    2.0680    2.8310 hc        1 IHI      0.087500
     41 H152       -6.4230    1.9480    2.3040 hc        1 IHI      0.087500
     42 H161       -5.8490    2.7690    0.2310 hc        1 IHI      0.101000
     43 H162       -4.4220    3.2130    0.8810 hc        1 IHI      0.101000
     44 H33         2.7180    3.6050    0.8750 ha        1 IHI      0.159000
     45 H34         4.9230    3.6530    1.7370 ha        1 IHI      0.141000
     46 H35         6.4470    1.8850    1.1980 ha        1 IHI      0.136500
     47 H36         5.7120    0.1160   -0.1970 ha        1 IHI      0.136500
     48 H391        3.4400   -1.6480   -0.1630 h1        1 IHI      0.082000
     49 H392        4.6620   -1.6770   -1.1680 h1        1 IHI      0.082000
     50 H401        2.0410   -2.1430   -2.1000 hc        1 IHI      0.112000
     51 H402        3.3940   -2.5310   -2.8550 hc        1 IHI      0.112000
     52 H411        2.8290   -3.7660   -0.3320 h1        1 IHI      0.100000
     53 H412        3.7020   -4.3580   -1.5530 h1        1 IHI      0.100000
     54 H52         2.4810   -5.7600   -3.3110 DU        1 IHI      0.189750
     55 H54        -1.2160   -5.4980   -1.8780 DU        1 IHI      0.189750
     56 H55         0.2320   -3.9120   -0.6290 DU        1 IHI      0.189750
@<TRIPOS>BOND
     1    1    2 1   
     2    1    5 1   
     3    2    3 1   
     4    3    6 1   
     5    4    7 1   
     6    6   10 1   
     7    8    9 1   
     8    9   25 1   
     9   10   17 1   
    10   10   34 1   
    11   11   12 1   
    12   11   15 1   
    13   11   35 1   
    14   12   13 1   
    15   12   36 1   
    16   12   37 1   
    17   13   14 1   
    18   13   38 1   
    19   13   39 1   
    20   14   15 1   
    21   14   40 1   
    22   14   41 1   
    23   15   42 1   
    24   15   43 1   
    25   16   25 1   
    26   17   18 1   
    27   17   22 1   
    28   18   19 1   
    29   18   44 1   
    30   19   45 1   
    31   20   21 1   
    32   20   46 1   
    33   21   47 1   
    34   22   23 1   
    35   23   24 1   
    36   24   26 1   
    37   24   48 1   
    38   24   49 1   
    39   26   27 1   
    40   26   50 1   
    41   26   51 1   
    42   27   28 1   
    43   27   52 1   
    44   27   53 1   
    45   28   29 1   
    46   28   32 1   
    47   29   30 1   
    48   30   31 1   
    49   31   32 1   
@<TRIPOS>SUBSTRUCTURE
     1 IHI         1 TEMP              0 ****  ****    0 ROOT
