@<TRIPOS>MOLECULE
IHI
   56    60     1     0     0
SMALL
bcc


@<TRIPOS>ATOM
      1 C01         0.0650    0.0120    0.0410 cc        1 IHI      0.416700
      2 N02         1.4030   -0.0710   -0.0230 nd        1 IHI     -0.541100
      3 C03         1.8290   -0.1140    1.3100 ca        1 IHI     -0.202200
      4 C04         0.6760   -0.0510    2.2040 ca        1 IHI      0.446800
      5 N05        -0.4440    0.0280    1.3610 na        1 IHI     -0.249000
      6 C07         3.1280   -0.2070    1.9160 ca        1 IHI      0.746200
      7 N08         0.7710   -0.0640    3.5660 nb        1 IHI     -0.688000
      8 N09         3.2240   -0.2070    3.2790 nb        1 IHI     -0.751000
      9 C10         2.0590   -0.1420    4.0050 ca        1 IHI      0.780000
     10 N11         4.2390   -0.3600    1.0940 nu        1 IHI     -0.697300
     11 C12        -1.8360    0.1070    1.7230 c3        1 IHI      0.060000
     12 C13        -2.3660   -1.0980    2.5300 c3        1 IHI     -0.093400
     13 C14        -3.5420   -0.5720    3.3390 c3        1 IHI     -0.078400
     14 C15        -3.4520    0.9500    3.3540 c3        1 IHI     -0.078400
     15 C16        -2.2220    1.3500    2.5550 c3        1 IHI     -0.093400
     16 N27         2.3720   -0.1640    6.5940 n1        1 IHI     -0.333800
     17 C32         5.5660   -0.2200    1.5610 ca        1 IHI      0.104600
     18 C33         6.0610   -1.0100    2.6150 ca        1 IHI     -0.082000
     19 C34         7.3890   -0.9020    3.0230 ca        1 IHI     -0.145000
     20 C35         8.2580   -0.0220    2.3850 ca        1 IHI     -0.104000
     21 C36         7.8040    0.7640    1.3270 ca        1 IHI     -0.187000
     22 C37         6.4720    0.6770    0.9180 ca        1 IHI      0.094100
     23 O38         5.9510    1.3960   -0.1460 os        1 IHI     -0.344900
     24 C39         6.7280    2.5190   -0.5790 c3        1 IHI      0.136400
     25 C26         2.2320   -0.1540    5.4420 cg        1 IHI      0.154800
     26 C40         5.8280    3.2930   -1.5270 c3        1 IHI     -0.113400
     27 C41         6.6070    4.4840   -2.0900 c3        1 IHI      0.043300
     28 N51         5.8590    5.3140   -2.9840 na        1 IHI     -0.211900
     29 C52         5.7670    5.1790   -4.3800 cc        1 IHI      0.389400
     30 N53         4.9330    6.0980   -4.9070 nd        1 IHI     -0.665000
     31 C54         4.4550    6.8440   -3.8290 cd        1 IHI      0.291200
     32 C55         5.0110    6.3690   -2.6290 cc        1 IHI     -0.255600
     33 H01        -0.6050    0.0640   -0.8270 h5        1 IHI      0.077800
     34 H11         4.1000   -0.0760    0.1420 hn        1 IHI      0.463800
     35 H12        -2.4050    0.1500    0.7450 h1        1 IHI      0.061700
     36 H131       -1.5790   -1.5050    3.2130 hc        1 IHI      0.061700
     37 H132       -2.6780   -1.9200    1.8410 hc        1 IHI      0.061700
     38 H141       -3.5100   -0.9810    4.3800 hc        1 IHI      0.048200
     39 H142       -4.5090   -0.8990    2.8820 hc        1 IHI      0.048200
     40 H151       -3.3760    1.3330    4.4020 hc        1 IHI      0.048200
     41 H152       -4.3730    1.3970    2.9020 hc        1 IHI      0.048200
     42 H161       -2.4330    2.2170    1.8820 hc        1 IHI      0.061700
     43 H162       -1.3920    1.6460    3.2460 hc        1 IHI      0.061700
     44 H33         5.3960   -1.7210    3.1320 ha        1 IHI      0.159000
     45 H34         7.7480   -1.5240    3.8570 ha        1 IHI      0.141000
     46 H35         9.3060    0.0560    2.7100 ha        1 IHI      0.136000
     47 H36         8.5010    1.4480    0.8240 ha        1 IHI      0.137000
     48 H391        7.0250    3.1450    0.3030 h1        1 IHI      0.042700
     49 H392        7.6460    2.1460   -1.1060 h1        1 IHI      0.042700
     50 H401        5.4830    2.6190   -2.3530 hc        1 IHI      0.072700
     51 H402        4.9150    3.6410   -0.9780 hc        1 IHI      0.072700
     52 H411        6.9640    5.1240   -1.2310 h1        1 IHI      0.060700
     53 H412        7.5120    4.1000   -2.6430 h1        1 IHI      0.060700
     54 H52         6.3270    4.4230   -4.9380 h5        1 IHI      0.060100
     55 H54         3.7550    7.6660   -3.9720 h4        1 IHI      0.043100
     56 H55         4.8830    6.6920   -1.5980 h4        1 IHI      0.176000
@<TRIPOS>BOND
     1    1    2 2   
     2    1    5 1   
     3    1   33 1   
     4    2    3 1   
     5    3    4 ar  
     6    3    6 ar  
     7    4    5 1   
     8    4    7 ar  
     9    5   11 1   
    10    6    8 ar  
    11    6   10 1   
    12    7    9 ar  
    13    8    9 ar  
    14    9   25 1   
    15   10   17 1   
    16   10   34 1   
    17   11   12 1   
    18   11   15 1   
    19   11   35 1   
    20   12   13 1   
    21   12   36 1   
    22   12   37 1   
    23   13   14 1   
    24   13   38 1   
    25   13   39 1   
    26   14   15 1   
    27   14   40 1   
    28   14   41 1   
    29   15   42 1   
    30   15   43 1   
    31   16   25 3   
    32   17   18 ar  
    33   17   22 ar  
    34   18   19 ar  
    35   18   44 1   
    36   19   20 ar  
    37   19   45 1   
    38   20   21 ar  
    39   20   46 1   
    40   21   22 ar  
    41   21   47 1   
    42   22   23 1   
    43   23   24 1   
    44   24   26 1   
    45   24   48 1   
    46   24   49 1   
    47   26   27 1   
    48   26   50 1   
    49   26   51 1   
    50   27   28 1   
    51   27   52 1   
    52   27   53 1   
    53   28   29 1   
    54   28   32 1   
    55   29   30 2   
    56   29   54 1   
    57   30   31 1   
    58   31   32 2   
    59   31   55 1   
    60   32   56 1   
@<TRIPOS>SUBSTRUCTURE
     1 IHI         1 TEMP              0 ****  ****    0 ROOT
