@<TRIPOS>MOLECULE
IHI
   56    60     1     0     0
SMALL
bcc


@<TRIPOS>ATOM
      1 C01         6.5190   -6.1630   -2.8880 cc        1 IHI      0.416700
      2 N02         6.7190   -4.9270   -2.4030 nd        1 IHI     -0.541100
      3 C03         7.8510   -4.4520   -3.0760 ca        1 IHI     -0.202200
      4 C04         8.3410   -5.4670   -4.0060 ca        1 IHI      0.446800
      5 N05         7.4660   -6.5550   -3.8650 na        1 IHI     -0.249000
      6 C07         8.5710   -3.2100   -3.0170 ca        1 IHI      0.746200
      7 N08         9.4400   -5.3000   -4.8000 nb        1 IHI     -0.688000
      8 N09         9.6780   -3.0490   -3.8020 nb        1 IHI     -0.751000
      9 C10        10.0330   -4.0840   -4.6330 ca        1 IHI      0.780000
     10 N11         8.0790   -2.1910   -2.2100 nh        1 IHI     -0.697300
     11 C12         7.4870   -7.8200   -4.5520 c3        1 IHI      0.060000
     12 C13         7.3340   -7.7290   -6.0860 c3        1 IHI     -0.093400
     13 C14         8.0120   -8.9700   -6.6460 c3        1 IHI     -0.078400
     14 C15         8.9000   -9.5490   -5.5510 c3        1 IHI     -0.078400
     15 C16         8.7630   -8.6610   -4.3240 c3        1 IHI     -0.093400
     16 N27        12.1520   -3.6500   -6.0900 n1        1 IHI     -0.333800
     17 C32         8.8250   -1.0330   -1.8930 ca        1 IHI      0.104600
     18 C33         9.3300   -0.1860   -2.8970 ca        1 IHI     -0.082000
     19 C34        10.0120    0.9830   -2.5660 ca        1 IHI     -0.145000
     20 C35        10.1920    1.3460   -1.2350 ca        1 IHI     -0.104000
     21 C36         9.6910    0.5390   -0.2160 ca        1 IHI     -0.187000
     22 C37         9.0200   -0.6440   -0.5330 ca        1 IHI      0.094100
     23 O38         8.4600   -1.4830    0.4180 os        1 IHI     -0.344900
     24 C39         8.9290   -1.3030    1.7600 c3        1 IHI      0.136400
     25 C26        11.2090   -3.8440   -5.4420 cg        1 IHI      0.154800
     26 C40         8.4130   -2.5050    2.5330 c3        1 IHI     -0.113400
     27 C41         8.8170   -2.3600    4.0020 c3        1 IHI      0.043300
     28 N51         8.4090   -3.4450    4.8400 na        1 IHI     -0.211900
     29 C52         7.2050   -3.5500    5.5590 cc        1 IHI      0.389400
     30 N53         7.1200   -4.7310    6.2030 nd        1 IHI     -0.665000
     31 C54         8.2890   -5.4250    5.8880 cd        1 IHI      0.291200
     32 C55         9.0970   -4.6480    5.0390 cc        1 IHI     -0.255600
     33 H01         5.7070   -6.8350   -2.5820 h5        1 IHI      0.077800
     34 H11         7.4500   -2.4920   -1.4900 hn        1 IHI      0.463800
     35 H12         6.6060   -8.4050   -4.1460 h1        1 IHI      0.061700
     36 H131        7.8250   -6.8060   -6.4870 hc        1 IHI      0.061700
     37 H132        6.2530   -7.6900   -6.3670 hc        1 IHI      0.061700
     38 H141        8.6170   -8.7060   -7.5500 hc        1 IHI      0.048200
     39 H142        7.2480   -9.7220   -6.9650 hc        1 IHI      0.048200
     40 H151        8.5880  -10.5970   -5.3120 hc        1 IHI      0.048200
     41 H152        9.9670   -9.5880   -5.8850 hc        1 IHI      0.048200
     42 H161        8.6680   -9.2650   -3.3890 hc        1 IHI      0.061700
     43 H162        9.6650   -8.0060   -4.2190 hc        1 IHI      0.061700
     44 H33         9.1930   -0.4460   -3.9590 ha        1 IHI      0.159000
     45 H34        10.4060    1.6220   -3.3700 ha        1 IHI      0.141000
     46 H35        10.7290    2.2720   -0.9810 ha        1 IHI      0.136000
     47 H36         9.8300    0.8390    0.8320 ha        1 IHI      0.137000
     48 H391       10.0500   -1.2600    1.7740 h1        1 IHI      0.042700
     49 H392        8.5080   -0.3470    2.1680 h1        1 IHI      0.042700
     50 H401        7.2980   -2.5660    2.4330 hc        1 IHI      0.072700
     51 H402        8.8390   -3.4450    2.0960 hc        1 IHI      0.072700
     52 H411        9.9400   -2.2690    4.0640 h1        1 IHI      0.060700
     53 H412        8.3640   -1.4110    4.4130 h1        1 IHI      0.060700
     54 H52         6.4610   -2.7480    5.5820 h5        1 IHI      0.060100
     55 H54         8.4830   -6.4210    6.2820 h4        1 IHI      0.043100
     56 H55        10.0680   -4.8450    4.5900 h4        1 IHI      0.176000
@<TRIPOS>BOND
     1    1    2 2   
     2    1    5 1   
     3    1   33 1   
     4    2    3 1   
     5    3    4 ar  
     6    3    6 ar  
     7    4    5 1   
     8    4    7 ar  
     9    5   11 1   
    10    6    8 ar  
    11    6   10 1   
    12    7    9 ar  
    13    8    9 ar  
    14    9   25 1   
    15   10   17 1   
    16   10   34 1   
    17   11   12 1   
    18   11   15 1   
    19   11   35 1   
    20   12   13 1   
    21   12   36 1   
    22   12   37 1   
    23   13   14 1   
    24   13   38 1   
    25   13   39 1   
    26   14   15 1   
    27   14   40 1   
    28   14   41 1   
    29   15   42 1   
    30   15   43 1   
    31   16   25 3   
    32   17   18 ar  
    33   17   22 ar  
    34   18   19 ar  
    35   18   44 1   
    36   19   20 ar  
    37   19   45 1   
    38   20   21 ar  
    39   20   46 1   
    40   21   22 ar  
    41   21   47 1   
    42   22   23 1   
    43   23   24 1   
    44   24   26 1   
    45   24   48 1   
    46   24   49 1   
    47   26   27 1   
    48   26   50 1   
    49   26   51 1   
    50   27   28 1   
    51   27   52 1   
    52   27   53 1   
    53   28   29 1   
    54   28   32 1   
    55   29   30 2   
    56   29   54 1   
    57   30   31 1   
    58   31   32 2   
    59   31   55 1   
    60   32   56 1   
@<TRIPOS>SUBSTRUCTURE
     1 IHI         1 TEMP              0 ****  ****    0 ROOT
