@<TRIPOS>MOLECULE
IHJ
   67    71     1     0     0
SMALL
bcc


@<TRIPOS>ATOM
      1 N01         0.1350    0.3070    0.0750 na        1 IHJ     -0.225000
      2 C02         0.3130    1.6720    0.3710 cc        1 IHJ      0.493700
      3 N03         1.0830    1.9080    1.4550 nd        1 IHJ     -0.587100
      4 C05         1.8180   -2.0290    2.3290 ca        1 IHJ      0.782000
      5 N06         1.0300   -1.7300    1.2510 nb        1 IHJ     -0.599000
      6 C07         0.8540   -0.4010    1.0500 ca        1 IHJ      0.446800
      7 C08         1.4480    0.6420    1.9150 ca        1 IHJ     -0.135200
      8 C09         2.2390    0.1680    2.9820 ca        1 IHJ      0.556200
      9 N10         2.4290   -1.1520    3.2000 nb        1 IHJ     -0.647000
     10 N11         2.8820    1.1460    3.8920 n4        1 IHJ     -0.597100
     11 N13         2.2230   -4.5540    2.8090 n1        1 IHJ     -0.251800
     12 C16        -0.6290   -0.2550   -1.0210 c3        1 IHJ      0.032000
     13 C17        -2.1270    0.1220   -0.9970 c3        1 IHJ     -0.091900
     14 C18        -2.5800    0.1140   -2.4490 c3        1 IHJ     -0.083400
     15 C19        -1.3370    0.1410   -3.3290 c3        1 IHJ     -0.083400
     16 C20        -0.1190    0.1650   -2.4180 c3        1 IHJ     -0.091900
     17 C30         2.1890    1.2550    5.1780 ca        1 IHJ     -0.104400
     18 C31         0.9330    1.8890    5.2470 ca        1 IHJ     -0.066000
     19 C32         0.2820    1.9930    6.4670 ca        1 IHJ     -0.146000
     20 C33         0.8630    1.4650    7.6270 ca        1 IHJ     -0.034000
     21 C34         2.1030    0.8410    7.5780 ca        1 IHJ     -0.190000
     22 C35         2.7840    0.7310    6.3550 ca        1 IHJ      0.192100
     23 O40         4.0270    0.1750    6.2010 os        1 IHJ     -0.358900
     24 C41         4.5890   -0.4960    7.3510 c3        1 IHJ      0.137400
     25 C42         5.8950   -1.0950    6.8610 c3        1 IHJ     -0.093400
     26 C43         6.5510   -1.8560    8.0160 c3        1 IHJ      0.177800
     27 N51         7.7480   -2.5720    7.6020 n3        1 IHJ     -0.732600
     28 C52         8.8870   -1.6900    7.3920 c3        1 IHJ      0.168300
     29 C53        10.1750   -2.4440    7.0110 c3        1 IHJ      0.168300
     30 N54        10.4830   -3.5280    7.9310 n3        1 IHJ     -0.732600
     31 C55         9.3500   -4.4230    8.1150 c3        1 IHJ      0.168300
     32 C56         8.0590   -3.6770    8.5010 c3        1 IHJ      0.168300
     33 C61        11.6950   -4.2310    7.5770 c3        1 IHJ      0.156100
     34 C12         2.0430   -3.4280    2.5950 cg        1 IHJ      0.120800
     35 H02        -0.1500    2.4580   -0.2480 h5        1 IHJ      0.106800
     36 H11         3.8600    0.8540    4.0690 hn        1 IHJ      0.484300
     37 H16        -0.5430   -1.3810   -0.9340 h1        1 IHJ      0.106700
     38 H171       -2.2850    1.1350   -0.5470 hc        1 IHJ      0.059200
     39 H172       -2.7020   -0.6150   -0.3840 hc        1 IHJ      0.059200
     40 H181       -3.1860   -0.8030   -2.6610 hc        1 IHJ      0.062700
     41 H182       -3.2350    0.9970   -2.6560 hc        1 IHJ      0.062700
     42 H191       -1.3100   -0.7630   -3.9890 hc        1 IHJ      0.062700
     43 H192       -1.3410    1.0380   -3.9970 hc        1 IHJ      0.062700
     44 H201        0.6700   -0.5430   -2.7710 hc        1 IHJ      0.059200
     45 H202        0.3290    1.1910   -2.3960 hc        1 IHJ      0.059200
     46 H31         0.4670    2.3050    4.3380 ha        1 IHJ      0.163000
     47 H32        -0.6990    2.4930    6.5220 ha        1 IHJ      0.168000
     48 H33         0.3310    1.5480    8.5900 ha        1 IHJ      0.167000
     49 H34         2.5510    0.4350    8.4980 ha        1 IHJ      0.170000
     50 H411        4.7580    0.2600    8.1610 h1        1 IHJ      0.058200
     51 H412        3.8740   -1.2870    7.6970 h1        1 IHJ      0.058200
     52 H421        6.5670   -0.2780    6.4930 hc        1 IHJ      0.067700
     53 H422        5.6960   -1.7860    6.0010 hc        1 IHJ      0.067700
     54 H431        5.8080   -2.6080    8.4090 h1        1 IHJ      0.036200
     55 H432        6.7640   -1.1230    8.8500 h1        1 IHJ      0.036200
     56 H521        8.6330   -0.9960    6.5420 h1        1 IHJ      0.037200
     57 H522        9.0960   -1.0570    8.3040 h1        1 IHJ      0.037200
     58 H531       10.0780   -2.8110    5.9470 h1        1 IHJ      0.041200
     59 H532       11.0260   -1.7090    7.0460 h1        1 IHJ      0.041200
     60 H551        9.1490   -5.0400    7.1910 h1        1 IHJ      0.041200
     61 H552        9.6010   -5.1290    8.9550 h1        1 IHJ      0.041200
     62 H561        7.2100   -4.4150    8.4460 h1        1 IHJ      0.037200
     63 H562        8.1490   -3.3270    9.5710 h1        1 IHJ      0.037200
     64 H611       11.6320   -4.7570    6.5850 h1        1 IHJ      0.037367
     65 H612       11.9150   -4.9910    8.3720 h1        1 IHJ      0.037367
     66 H613       12.5400   -3.4950    7.5380 h1        1 IHJ      0.037367
     67 H112        2.8750    2.0670    3.4300 hn        1 IHJ      0.484300
@<TRIPOS>BOND
     1    1    2 1   
     2    1    6 1   
     3    1   12 1   
     4    2    3 2   
     5    2   35 1   
     6    3    7 1   
     7    4    5 ar  
     8    4    9 ar  
     9    4   34 1   
    10    5    6 ar  
    11    6    7 ar  
    12    7    8 ar  
    13    8    9 ar  
    14    8   10 1   
    15   10   17 1   
    16   10   36 1   
    17   10   67 1   
    18   11   34 3   
    19   12   13 1   
    20   12   16 1   
    21   12   37 1   
    22   13   14 1   
    23   13   38 1   
    24   13   39 1   
    25   14   15 1   
    26   14   40 1   
    27   14   41 1   
    28   15   16 1   
    29   15   42 1   
    30   15   43 1   
    31   16   44 1   
    32   16   45 1   
    33   17   18 ar  
    34   17   22 ar  
    35   18   19 ar  
    36   18   46 1   
    37   19   20 ar  
    38   19   47 1   
    39   20   21 ar  
    40   20   48 1   
    41   21   22 ar  
    42   21   49 1   
    43   22   23 1   
    44   23   24 1   
    45   24   25 1   
    46   24   50 1   
    47   24   51 1   
    48   25   26 1   
    49   25   52 1   
    50   25   53 1   
    51   26   27 1   
    52   26   54 1   
    53   26   55 1   
    54   27   28 1   
    55   27   32 1   
    56   28   29 1   
    57   28   56 1   
    58   28   57 1   
    59   29   30 1   
    60   29   58 1   
    61   29   59 1   
    62   30   31 1   
    63   30   33 1   
    64   31   32 1   
    65   31   60 1   
    66   31   61 1   
    67   32   62 1   
    68   32   63 1   
    69   33   64 1   
    70   33   65 1   
    71   33   66 1   
@<TRIPOS>SUBSTRUCTURE
     1 IHJ         1 TEMP              0 ****  ****    0 ROOT
