@<TRIPOS>MOLECULE
IHJ
   66    74     1     0     0
SMALL
bcc


@<TRIPOS>ATOM
      1 N01         0.0000    0.0000    0.0000 na        1 IHJ      0.353000
      2 C02         1.3620    0.0000    0.0000 c2        1 IHJ     -0.256000
      3 N03         1.8080    0.0000    1.2240 n2        1 IHJ     -0.081000
      4 C05        -1.6590    0.0020    3.2450 c2        1 IHJ      0.122000
      5 N06        -1.5870    0.0010    1.9220 n2        1 IHJ     -0.064000
      6 C07        -0.4110    0.0000    1.3110 c2        1 IHJ     -0.156000
      7 C08         0.7650    0.0060    2.0850 c2        1 IHJ     -0.190000
      8 C09         0.6410    0.0010    3.4870 c2        1 IHJ      0.089000
      9 N10        -0.5750    0.0010    4.0150 n2        1 IHJ     -0.155000
     10 N11         1.7640    0.0000    4.2970 nu        1 IHJ      0.132000
     11 N13        -3.9650    0.0080    4.3770 n1        1 IHJ     -0.030000
     12 C16        -0.8670    0.0000   -1.1810 c3        1 IHJ     -0.034000
     13 C17        -0.5970    1.2510   -2.0340 c3        1 IHJ     -0.409000
     14 C18        -0.1220    0.7510   -3.4130 DU        1 IHJ     -0.100000
     15 C19        -0.7000   -0.6820   -3.5160 DU        1 IHJ     -0.222000
     16 C20        -0.5470   -1.2180   -2.0710 DU        1 IHJ     -0.420000
     17 C30         1.6270    0.1320    5.6840 ca        1 IHJ     -0.155000
     18 C31         0.4550    0.6440    6.2210 ca        1 IHJ     -0.110000
     19 C32         0.3220    0.7740    7.5910 ca        1 IHJ     -0.139000
     20 C33         1.3530    0.3890    8.4280 ca        1 IHJ     -0.061000
     21 C34         2.5220   -0.1280    7.9000 ca        1 IHJ     -0.221000
     22 C35         2.6630   -0.2600    6.5290 ca        1 IHJ      0.067000
     23 O40         3.8120   -0.7670    6.0070 os        1 IHJ     -0.168000
     24 C41         4.6690   -1.0660    7.1110 c3        1 IHJ     -0.174000
     25 C42         5.9880   -1.6430    6.5920 c3        1 IHJ     -0.114000
     26 C43         6.9060   -1.9620    7.7730 c3        1 IHJ     -0.166000
     27 N51         8.1710   -2.5160    7.2750 n3        1 IHJ      0.053000
     28 C52         8.9460   -1.3880    6.7440 c3        1 IHJ     -0.421000
     29 C53        10.3320   -1.8730    6.3160 c3        1 IHJ      0.160500
     30 N54        11.0620   -2.3780    7.4850 n3        1 IHJ     -0.262000
     31 C55        10.2860   -3.5070    8.0160 c3        1 IHJ      0.160500
     32 C56         8.9000   -3.0220    8.4440 c3        1 IHJ     -0.421000
     33 C61        12.3270   -2.9340    6.9860 c3        1 IHJ     -0.096000
     34 C12        -2.9490    0.0030    3.8670 c1        1 IHJ     -0.086000
     35 H02         2.2630   -0.1020   -0.5920 h5        1 IHJ      0.193000
     36 H11         2.3750   -0.7180    4.6330 hn        1 IHJ      0.139000
     37 H16        -1.9080   -0.0250   -0.8820 h1        1 IHJ      0.123000
     38 H171        0.2870    0.9750   -2.5960 DU        1 IHJ      0.143000
     39 H172       -0.2320    1.9240   -1.2670 hc        1 IHJ      0.154000
     40 H181       -0.8620    0.5070   -4.1650 ha        1 IHJ      0.104500
     41 H182        0.6100    1.3160   -3.9760 ha        1 IHJ      0.104500
     42 H191        0.0100   -1.3840   -3.0960 DU        1 IHJ      0.196000
     43 H192       -1.0810   -0.9730   -4.4880 ha        1 IHJ      0.120000
     44 H201        0.1020   -0.8860   -2.8720 DU        1 IHJ      0.196000
     45 H202       -0.2930   -2.2140   -1.7290 ha        1 IHJ      0.154000
     46 H31        -0.4360    0.8840    5.6540 ha        1 IHJ      0.162000
     47 H32        -0.6750    1.0370    7.9220 ha        1 IHJ      0.110000
     48 H33         1.1470    0.5530    9.4790 ha        1 IHJ      0.103000
     49 H34         3.2690   -0.5250    8.5760 ha        1 IHJ      0.154000
     50 H411        4.6480   -2.1440    7.2110 h1        1 IHJ      0.127000
     51 H412        3.9760   -0.6340    7.8220 h1        1 IHJ      0.127000
     52 H421        6.5490   -1.2840    5.7380 hc        1 IHJ      0.086000
     53 H422        5.9080   -2.7230    6.6240 hc        1 IHJ      0.086000
     54 H431        6.7500   -0.9640    8.1630 h1        1 IHJ      0.104000
     55 H432        6.5970   -2.9440    8.1120 h1        1 IHJ      0.104000
     56 H521       10.0040   -1.6080    6.6630 h1        1 IHJ      0.063750
     57 H522        9.0560   -0.4370    7.2510 h1        1 IHJ      0.063750
     58 H531       10.2610   -2.4180    5.3820 h1        1 IHJ      0.087500
     59 H532       10.9350   -0.9740    6.2750 h1        1 IHJ      0.087500
     60 H551       10.2180   -4.3260    7.3110 h1        1 IHJ      0.087500
     61 H552       10.7350   -3.7440    8.9730 h1        1 IHJ      0.087500
     62 H561        8.7860   -2.5610    9.4170 h1        1 IHJ      0.063750
     63 H562        9.8590   -3.1980    7.9720 h1        1 IHJ      0.063750
     64 H611       12.3080   -3.7970    6.3330 h1        1 IHJ      0.059000
     65 H612       12.4700   -2.2310    6.1740 h1        1 IHJ      0.059000
     66 H613       13.0450   -2.7230    7.7690 h1        1 IHJ      0.059000
@<TRIPOS>BOND
     1    1    2 1   
     2    1    6 1   
     3    1   12 1   
     4    2    3 1   
     5    2   35 1   
     6    3    7 1   
     7    4    5 1   
     8    4    9 1   
     9    4   34 1   
    10    5    6 1   
    11    6    7 1   
    12    7    8 1   
    13    8    9 1   
    14    8   10 1   
    15   10   17 1   
    16   10   36 1   
    17   11   34 1   
    18   12   13 1   
    19   12   16 1   
    20   12   37 1   
    21   13   14 1   
    22   13   38 1   
    23   13   39 1   
    24   14   15 1   
    25   14   38 1   
    26   14   40 1   
    27   14   41 1   
    28   15   16 1   
    29   15   42 1   
    30   15   43 1   
    31   15   44 1   
    32   16   42 1   
    33   16   44 1   
    34   16   45 1   
    35   17   18 1   
    36   17   22 1   
    37   18   19 1   
    38   18   46 1   
    39   19   20 1   
    40   19   47 1   
    41   20   21 1   
    42   20   48 1   
    43   21   22 1   
    44   21   49 1   
    45   22   23 1   
    46   23   24 1   
    47   24   25 1   
    48   24   50 1   
    49   24   51 1   
    50   25   26 1   
    51   25   52 1   
    52   25   53 1   
    53   26   27 1   
    54   26   54 1   
    55   26   55 1   
    56   27   28 1   
    57   27   32 1   
    58   28   29 1   
    59   28   56 1   
    60   28   57 1   
    61   29   30 1   
    62   29   58 1   
    63   29   59 1   
    64   30   31 1   
    65   30   33 1   
    66   31   32 1   
    67   31   60 1   
    68   31   61 1   
    69   32   62 1   
    70   32   63 1   
    71   33   64 1   
    72   33   65 1   
    73   33   66 1   
    74   42   44 1   
@<TRIPOS>SUBSTRUCTURE
     1 IHJ         1 TEMP              0 ****  ****    0 ROOT
