@<TRIPOS>MOLECULE
IHJ
   66    70     1     0     0
SMALL
bcc


@<TRIPOS>ATOM
      1 N01         3.8210    1.7220   -0.2160 na        1 IHJ     -0.247000
      2 C02         2.6250    2.1190   -0.8580 cc        1 IHJ      0.413700
      3 N03         1.7650    1.1110   -1.0730 nd        1 IHJ     -0.541100
      4 C05         4.0680   -1.8190    0.5980 ca        1 IHJ      0.783000
      5 N06         4.5600   -0.5480    0.5790 nb        1 IHJ     -0.692000
      6 C07         3.7020    0.3390   -0.0060 ca        1 IHJ      0.446800
      7 C08         2.4000   -0.0250   -0.5550 ca        1 IHJ     -0.200200
      8 C09         2.0180   -1.4080   -0.4740 ca        1 IHJ      0.748200
      9 N10         2.8700   -2.2960    0.1220 nb        1 IHJ     -0.749000
     10 N11         0.8260   -1.8070   -1.0670 nh        1 IHJ     -0.693300
     11 N13         5.6090   -3.6120    1.6980 n1        1 IHJ     -0.334800
     12 C16         4.9320    2.5620    0.1500 c3        1 IHJ      0.048000
     13 C17         5.6060    3.2730   -1.0460 c3        1 IHJ     -0.093400
     14 C18         6.1930    4.5610   -0.4910 c3        1 IHJ     -0.081400
     15 C19         5.5500    4.8210    0.8650 c3        1 IHJ     -0.081400
     16 C20         4.5710    3.6920    1.1410 c3        1 IHJ     -0.093400
     17 C30         0.2400   -3.0740   -0.8420 ca        1 IHJ      0.097600
     18 C31         0.9400   -4.2650   -1.1090 ca        1 IHJ     -0.081000
     19 C32         0.3270   -5.5050   -0.9400 ca        1 IHJ     -0.149000
     20 C33        -0.9940   -5.5890   -0.5140 ca        1 IHJ     -0.103000
     21 C34        -1.7200   -4.4290   -0.2500 ca        1 IHJ     -0.190000
     22 C35        -1.1160   -3.1790   -0.4060 ca        1 IHJ      0.100100
     23 O40        -1.7560   -1.9800   -0.1470 os        1 IHJ     -0.344900
     24 C41        -3.1770   -2.0520    0.0290 c3        1 IHJ      0.133400
     25 C42        -3.6540   -0.6100    0.0910 c3        1 IHJ     -0.090400
     26 C43        -5.1770   -0.5960    0.1950 c3        1 IHJ      0.173800
     27 N51        -5.7310    0.7150    0.5040 n3        1 IHJ     -0.727600
     28 C52        -5.4310    1.7130   -0.5130 c3        1 IHJ      0.166800
     29 C53        -6.0750    3.0820   -0.2260 c3        1 IHJ      0.167800
     30 N54        -7.5000    2.9930    0.0570 n3        1 IHJ     -0.732600
     31 C55        -7.7920    2.0050    1.0850 c3        1 IHJ      0.167800
     32 C56        -7.1570    0.6330    0.7930 c3        1 IHJ      0.166800
     33 C61        -8.0870    4.2820    0.3470 c3        1 IHJ      0.157100
     34 C12         4.9240   -2.8140    1.2090 cg        1 IHJ      0.155800
     35 H02         2.4550    3.1660   -1.1400 h5        1 IHJ      0.077800
     36 H11         0.1650   -1.0660   -1.2140 hn        1 IHJ      0.461800
     37 H16         5.7020    1.8950    0.6430 h1        1 IHJ      0.097700
     38 H171        6.3970    2.6190   -1.4880 hc        1 IHJ      0.055700
     39 H172        4.8640    3.4990   -1.8530 hc        1 IHJ      0.055700
     40 H181        7.3030    4.4680   -0.3830 hc        1 IHJ      0.049200
     41 H182        6.0000    5.4110   -1.1930 hc        1 IHJ      0.049200
     42 H191        6.3340    4.8600    1.6640 hc        1 IHJ      0.049200
     43 H192        5.0220    5.8070    0.8730 hc        1 IHJ      0.049200
     44 H201        3.5190    4.0430    0.9870 hc        1 IHJ      0.055700
     45 H202        4.6530    3.3240    2.1920 hc        1 IHJ      0.055700
     46 H31         1.9860   -4.2260   -1.4540 ha        1 IHJ      0.157000
     47 H32         0.8990   -6.4210   -1.1490 ha        1 IHJ      0.139000
     48 H33        -1.4720   -6.5710   -0.3810 ha        1 IHJ      0.135000
     49 H34        -2.7620   -4.5080    0.0890 ha        1 IHJ      0.139000
     50 H411       -3.4010   -2.5940    0.9860 h1        1 IHJ      0.042200
     51 H412       -3.6410   -2.5980   -0.8340 h1        1 IHJ      0.042200
     52 H421       -3.3150   -0.0690   -0.8310 hc        1 IHJ      0.065700
     53 H422       -3.1880   -0.0990    0.9730 hc        1 IHJ      0.065700
     54 H431       -5.4850   -1.2900    1.0290 h1        1 IHJ      0.031700
     55 H432       -5.6030   -1.0130   -0.7670 h1        1 IHJ      0.031700
     56 H521       -4.3150    1.8610   -0.5290 h1        1 IHJ      0.037700
     57 H522       -5.7520    1.3700   -1.5400 h1        1 IHJ      0.037700
     58 H531       -5.9470    3.7200   -1.1450 h1        1 IHJ      0.037200
     59 H532       -5.5120    3.5760    0.6190 h1        1 IHJ      0.037200
     60 H551       -7.4540    2.3500    2.1050 h1        1 IHJ      0.037200
     61 H552       -8.9090    1.8650    1.1200 h1        1 IHJ      0.037200
     62 H561       -7.2850   -0.0060    1.7110 h1        1 IHJ      0.037700
     63 H562       -7.7260    0.1440   -0.0520 h1        1 IHJ      0.037700
     64 H611       -7.6770    4.7610    1.2790 h1        1 IHJ      0.032367
     65 H612       -7.8970    4.9670   -0.5190 h1        1 IHJ      0.032367
     66 H613       -9.1950    4.1530    0.4710 h1        1 IHJ      0.032367
@<TRIPOS>BOND
     1    1    2 1   
     2    1    6 1   
     3    1   12 1   
     4    2    3 2   
     5    2   35 1   
     6    3    7 1   
     7    4    5 ar  
     8    4    9 ar  
     9    4   34 1   
    10    5    6 ar  
    11    6    7 ar  
    12    7    8 ar  
    13    8    9 ar  
    14    8   10 1   
    15   10   17 1   
    16   10   36 1   
    17   11   34 3   
    18   12   13 1   
    19   12   16 1   
    20   12   37 1   
    21   13   14 1   
    22   13   38 1   
    23   13   39 1   
    24   14   15 1   
    25   14   40 1   
    26   14   41 1   
    27   15   16 1   
    28   15   42 1   
    29   15   43 1   
    30   16   44 1   
    31   16   45 1   
    32   17   18 ar  
    33   17   22 ar  
    34   18   19 ar  
    35   18   46 1   
    36   19   20 ar  
    37   19   47 1   
    38   20   21 ar  
    39   20   48 1   
    40   21   22 ar  
    41   21   49 1   
    42   22   23 1   
    43   23   24 1   
    44   24   25 1   
    45   24   50 1   
    46   24   51 1   
    47   25   26 1   
    48   25   52 1   
    49   25   53 1   
    50   26   27 1   
    51   26   54 1   
    52   26   55 1   
    53   27   28 1   
    54   27   32 1   
    55   28   29 1   
    56   28   56 1   
    57   28   57 1   
    58   29   30 1   
    59   29   58 1   
    60   29   59 1   
    61   30   31 1   
    62   30   33 1   
    63   31   32 1   
    64   31   60 1   
    65   31   61 1   
    66   32   62 1   
    67   32   63 1   
    68   33   64 1   
    69   33   65 1   
    70   33   66 1   
@<TRIPOS>SUBSTRUCTURE
     1 IHJ         1 TEMP              0 ****  ****    0 ROOT
