@<TRIPOS>MOLECULE
IHM
   67    71     1     0     0
SMALL
bcc


@<TRIPOS>ATOM
      1 C01         0.1800    0.2300   -0.3230 ca        1 IHM      0.067100
      2 C02         1.5660    0.0810   -0.2290 ca        1 IHM     -0.104000
      3 C03         2.1590   -0.1110    1.0170 ca        1 IHM     -0.153000
      4 C04         1.3750   -0.1530    2.1730 ca        1 IHM     -0.072300
      5 C05        -0.0140   -0.0180    2.0890 ca        1 IHM     -0.184000
      6 C06        -0.6230    0.1740    0.8420 ca        1 IHM      0.144100
      7 O07        -0.4190    0.5660   -1.5280 os        1 IHM     -0.364900
      8 C08        -0.5790   -0.4360   -2.5100 c3        1 IHM      0.586700
      9 F09         0.6580   -0.8350   -2.9290 f         1 IHM     -0.245800
     10 F10        -1.1470   -1.5470   -1.9620 f         1 IHM     -0.245800
     11 O11        -1.9740    0.3140    0.6380 os        1 IHM     -0.305900
     12 C12        -2.7890    0.3460    1.8250 c3        1 IHM      0.154400
     13 C13        -4.1960    0.5590    1.3530 cx        1 IHM     -0.133700
     14 C14        -5.3060    0.4650    2.3660 cx        1 IHM     -0.126400
     15 C15        -4.9460    1.7950    1.7740 cx        1 IHM     -0.126400
     16 C16         2.0040   -0.3110    3.5370 c3        1 IHM      0.124300
     17 O17         0.3060    5.4450    5.3840 o         1 IHM     -0.568700
     18 C18         2.6800   -2.6550    2.7580 cc        1 IHM     -0.139300
     19 C19         3.3020   -3.7450    3.3760 cd        1 IHM     -0.289300
     20 C20         3.5920   -3.2950    4.7260 cd        1 IHM      0.356800
     21 N21         3.1610   -2.0060    4.8830 nc        1 IHM     -0.504800
     22 N22         2.6240   -1.6290    3.7120 na        1 IHM      0.084400
     23 C23         4.2400   -4.0870    5.7600 ca        1 IHM     -0.084500
     24 C24         3.9940   -3.8270    7.1130 ca        1 IHM     -0.132000
     25 C25         4.6170   -4.6060    8.1090 ca        1 IHM      0.066600
     26 C26         5.4930   -5.6480    7.7130 ca        1 IHM     -0.184000
     27 C27         5.7270   -5.8900    6.3650 ca        1 IHM     -0.107000
     28 C28         5.1090   -5.1200    5.3850 ca        1 IHM     -0.145000
     29 N29         4.4200   -4.3950    9.4840 ns        1 IHM     -0.475100
     30 C30         3.5330   -3.5200   10.0970 c         1 IHM      0.665100
     31 O31         2.7720   -2.7640    9.4670 o         1 IHM     -0.586100
     32 C32         2.9920    0.8510    3.8040 c3        1 IHM     -0.041100
     33 C33         3.5410   -3.5290   11.6100 c3        1 IHM     -0.179100
     34 C34         2.2620    2.0790    4.2130 ca        1 IHM     -0.125300
     35 C35         1.6950    2.1790    5.4900 ca        1 IHM     -0.081500
     36 C36         1.0280    3.3360    5.8820 ca        1 IHM     -0.221800
     37 N37         0.8980    4.4340    5.0330 na        1 IHM      0.533300
     38 C38         1.4720    4.3290    3.7690 ca        1 IHM     -0.221800
     39 C39         2.1430    3.1790    3.3580 ca        1 IHM     -0.081500
     40 H1          2.1740    0.1120   -1.1460 ha        1 IHM      0.159000
     41 H2          3.2510   -0.2330    1.0840 ha        1 IHM      0.147000
     42 H3         -0.6230   -0.0670    3.0040 ha        1 IHM      0.149000
     43 H4         -1.2000    0.0380   -3.3260 h3        1 IHM      0.127700
     44 H5         -2.4420    1.1770    2.4930 h1        1 IHM      0.045700
     45 H6         -2.6960   -0.6380    2.3580 h1        1 IHM      0.045700
     46 H7         -4.3670    0.1620    0.3320 hc        1 IHM      0.103700
     47 H8         -5.0520    0.2620    3.4220 hc        1 IHM      0.074450
     48 H9         -6.2530   -0.0200    2.0710 hc        1 IHM      0.074450
     49 H10        -5.6330    2.2690    1.0520 hc        1 IHM      0.074450
     50 H11        -4.4360    2.5440    2.4070 hc        1 IHM      0.074450
     51 H12         1.1860   -0.2400    4.3240 h1        1 IHM      0.078700
     52 H14         2.2820   -2.5380    1.7500 h4        1 IHM      0.184000
     53 H15         3.5150   -4.7210    2.9570 ha        1 IHM      0.167000
     54 H16         3.3060   -3.0100    7.3930 ha        1 IHM      0.185000
     55 H17         5.9960   -6.2740    8.4660 ha        1 IHM      0.127000
     56 H18         6.4110   -6.7010    6.0730 ha        1 IHM      0.132000
     57 H19         5.3050   -5.3160    4.3210 ha        1 IHM      0.136000
     58 H20         4.9670   -4.9710   10.0840 hn        1 IHM      0.313500
     59 H21         3.6010    1.0450    2.8830 hc        1 IHM      0.074700
     60 H22         3.7070    0.5740    4.6270 hc        1 IHM      0.074700
     61 H23         2.7900   -2.7840   11.9720 hc        1 IHM      0.068033
     62 H24         4.5480   -3.2460   12.0000 hc        1 IHM      0.068033
     63 H25         3.2660   -4.5380   11.9990 hc        1 IHM      0.068033
     64 H26         1.7740    1.3440    6.2060 ha        1 IHM      0.160500
     65 H27         0.5700    3.4530    6.8790 h4        1 IHM      0.186500
     66 H28         1.3570    5.2150    3.1230 h4        1 IHM      0.186500
     67 H29         2.5750    3.1560    2.3450 ha        1 IHM      0.160500
@<TRIPOS>BOND
     1    1    2 ar  
     2    1    6 ar  
     3    1    7 1   
     4    2    3 ar  
     5    2   40 1   
     6    3    4 ar  
     7    3   41 1   
     8    4    5 ar  
     9    4   16 1   
    10    5    6 ar  
    11    5   42 1   
    12    6   11 1   
    13    7    8 1   
    14    8    9 1   
    15    8   10 1   
    16    8   43 1   
    17   11   12 1   
    18   12   13 1   
    19   12   44 1   
    20   12   45 1   
    21   13   14 1   
    22   13   15 1   
    23   13   46 1   
    24   14   15 1   
    25   14   47 1   
    26   14   48 1   
    27   15   49 1   
    28   15   50 1   
    29   16   22 1   
    30   16   32 1   
    31   16   51 1   
    32   17   37 2   
    33   18   19 2   
    34   18   22 1   
    35   18   52 1   
    36   19   20 1   
    37   19   53 1   
    38   20   21 2   
    39   20   23 1   
    40   21   22 1   
    41   23   24 ar  
    42   23   28 ar  
    43   24   25 ar  
    44   24   54 1   
    45   25   26 ar  
    46   25   29 1   
    47   26   27 ar  
    48   26   55 1   
    49   27   28 ar  
    50   27   56 1   
    51   28   57 1   
    52   29   30 1   
    53   29   58 1   
    54   30   31 2   
    55   30   33 1   
    56   32   34 1   
    57   32   59 1   
    58   32   60 1   
    59   33   61 1   
    60   33   62 1   
    61   33   63 1   
    62   34   35 ar  
    63   34   39 ar  
    64   35   36 ar  
    65   35   64 1   
    66   36   37 1   
    67   36   65 1   
    68   37   38 2   
    69   38   39 ar  
    70   38   66 1   
    71   39   67 1   
@<TRIPOS>SUBSTRUCTURE
     1 IHM         1 TEMP              0 ****  ****    0 ROOT
