@<TRIPOS>MOLECULE
IHM
   68    72     1     0     0
SMALL
bcc


@<TRIPOS>ATOM
      1 C01         0.0170   -0.1120   -0.2200 ca        1 IHM      0.124100
      2 C02         1.3960   -0.2870   -0.1150 ca        1 IHM     -0.158000
      3 C03         1.9920   -0.3780    1.1440 ca        1 IHM     -0.125000
      4 C04         1.2190   -0.3000    2.3010 ca        1 IHM     -0.121300
      5 C05        -0.1700   -0.1360    2.2090 ca        1 IHM     -0.168000
      6 C06        -0.7800   -0.0340    0.9580 ca        1 IHM      0.128100
      7 O07        -0.7000   -0.0100   -1.3960 os        1 IHM     -0.350900
      8 C08        -0.0620   -0.0250   -2.6540 c3        1 IHM      0.589700
      9 F09         0.8740    0.9650   -2.7060 f         1 IHM     -0.242800
     10 F10         0.6320   -1.1910   -2.7960 f         1 IHM     -0.242800
     11 O11        -2.1290    0.1120    0.7440 os        1 IHM     -0.298900
     12 C12        -2.9170    0.4260    1.9070 c3        1 IHM      0.155400
     13 C13        -4.3010    0.7060    1.4030 cx        1 IHM     -0.138700
     14 C14        -5.4030    0.8850    2.4120 cx        1 IHM     -0.123400
     15 C15        -4.9160    2.0620    1.6220 cx        1 IHM     -0.123400
     16 C16         1.8510   -0.3550    3.6680 c3        1 IHM      0.124300
     17 O17         0.3720    5.6820    4.5420 o         1 IHM     -0.543700
     18 C18         2.3690   -2.7950    3.0850 cc        1 IHM     -0.122300
     19 C19         3.0050   -3.8540    3.7450 cd        1 IHM     -0.270300
     20 C20         3.4270   -3.2990    5.0130 cd        1 IHM      0.295800
     21 N21         3.0500   -1.9760    5.0850 nc        1 IHM     -0.507800
     22 N22         2.4310   -1.6860    3.9430 na        1 IHM      0.121400
     23 C23         4.1410   -4.0020    6.0580 ca        1 IHM     -0.041500
     24 C24         4.2630   -3.4470    7.3420 ca        1 IHM     -0.098000
     25 C25         4.9630   -4.1530    8.3340 ca        1 IHM     -0.062400
     26 C26         5.5440   -5.4040    8.0670 ca        1 IHM     -0.128000
     27 C27         5.4150   -5.9400    6.7880 ca        1 IHM     -0.099000
     28 C28         4.7260   -5.2520    5.7920 ca        1 IHM     -0.076000
     29 N29         5.1020   -3.5580    9.6670 n4        1 IHM     -0.551200
     30 C30         3.8470   -3.7650   10.5090 c         1 IHM      0.561100
     31 O31         3.2150   -2.7470   10.7380 o         1 IHM     -0.405100
     32 C32         2.8820    0.7840    3.8340 c3        1 IHM     -0.032100
     33 C33         3.5750   -5.1590   10.9510 c3        1 IHM     -0.183100
     34 C34         2.1970    2.0910    4.0110 ca        1 IHM     -0.139300
     35 C35         1.5310    2.3950    5.2040 ca        1 IHM     -0.078000
     36 C36         0.9090    3.6280    5.3780 ca        1 IHM     -0.222300
     37 N37         0.9240    4.6050    4.3830 na        1 IHM      0.540300
     38 C38         1.5950    4.2960    3.2010 ca        1 IHM     -0.222300
     39 C39         2.2210    3.0680    3.0090 ca        1 IHM     -0.078000
     40 H1          2.0180   -0.3480   -1.0230 ha        1 IHM      0.165000
     41 H2          3.0820   -0.5130    1.2090 ha        1 IHM      0.142000
     42 H3         -0.7770   -0.0820    3.1250 ha        1 IHM      0.147000
     43 H4         -0.8990    0.0990   -3.4050 h3        1 IHM      0.143700
     44 H5         -2.9190   -0.4630    2.5930 h1        1 IHM      0.041700
     45 H6         -2.4770    1.3130    2.4330 h1        1 IHM      0.041700
     46 H7         -4.5230    0.1740    0.4550 hc        1 IHM      0.106700
     47 H8         -5.1600    0.8250    3.4880 hc        1 IHM      0.076200
     48 H9         -6.3980    0.4590    2.1920 hc        1 IHM      0.076200
     49 H10        -5.5600    2.4860    0.8300 hc        1 IHM      0.076200
     50 H11        -4.3270    2.8450    2.1320 hc        1 IHM      0.076200
     51 H12         1.0450   -0.2020    4.4530 h1        1 IHM      0.079700
     52 H14         1.8890   -2.7480    2.1050 h4        1 IHM      0.205000
     53 H15         3.1400   -4.8680    3.3870 ha        1 IHM      0.172000
     54 H16         3.8090   -2.4640    7.5570 ha        1 IHM      0.174000
     55 H17         6.1020   -5.9600    8.8360 ha        1 IHM      0.149000
     56 H18         5.8720   -6.9190    6.5630 ha        1 IHM      0.169000
     57 H19         4.6420   -5.6890    4.7820 ha        1 IHM      0.171000
     58 H20         5.2740   -2.5470    9.5610 hn        1 IHM      0.462300
     59 H21         3.5290    0.6000    4.7350 hc        1 IHM      0.069700
     60 H22         3.5550    0.8140    2.9370 hc        1 IHM      0.069700
     61 H23         4.1740   -5.3820   11.8720 hc        1 IHM      0.114700
     62 H24         3.8250   -5.9060   10.1560 hc        1 IHM      0.114700
     63 H25         2.4850   -5.2450   11.2040 hc        1 IHM      0.114700
     64 H26         1.4920    1.6660    6.0280 ha        1 IHM      0.153500
     65 H27         0.3760    3.9050    6.3030 h4        1 IHM      0.192000
     66 H28         1.5920    5.0920    2.4350 h4        1 IHM      0.192000
     67 H29         2.7340    2.8840    2.0520 ha        1 IHM      0.153500
     68 H292        5.9020   -3.9850   10.1450 hn        1 IHM      0.462300
@<TRIPOS>BOND
     1    1    2 ar  
     2    1    6 ar  
     3    1    7 1   
     4    2    3 ar  
     5    2   40 1   
     6    3    4 ar  
     7    3   41 1   
     8    4    5 ar  
     9    4   16 1   
    10    5    6 ar  
    11    5   42 1   
    12    6   11 1   
    13    7    8 1   
    14    8    9 1   
    15    8   10 1   
    16    8   43 1   
    17   11   12 1   
    18   12   13 1   
    19   12   44 1   
    20   12   45 1   
    21   13   14 1   
    22   13   15 1   
    23   13   46 1   
    24   14   15 1   
    25   14   47 1   
    26   14   48 1   
    27   15   49 1   
    28   15   50 1   
    29   16   22 1   
    30   16   32 1   
    31   16   51 1   
    32   17   37 2   
    33   18   19 2   
    34   18   22 1   
    35   18   52 1   
    36   19   20 1   
    37   19   53 1   
    38   20   21 2   
    39   20   23 1   
    40   21   22 1   
    41   23   24 ar  
    42   23   28 ar  
    43   24   25 ar  
    44   24   54 1   
    45   25   26 ar  
    46   25   29 1   
    47   26   27 ar  
    48   26   55 1   
    49   27   28 ar  
    50   27   56 1   
    51   28   57 1   
    52   29   30 1   
    53   29   58 1   
    54   29   68 1   
    55   30   31 2   
    56   30   33 1   
    57   32   34 1   
    58   32   59 1   
    59   32   60 1   
    60   33   61 1   
    61   33   62 1   
    62   33   63 1   
    63   34   35 ar  
    64   34   39 ar  
    65   35   36 ar  
    66   35   64 1   
    67   36   37 1   
    68   36   65 1   
    69   37   38 2   
    70   38   39 ar  
    71   38   66 1   
    72   39   67 1   
@<TRIPOS>SUBSTRUCTURE
     1 IHM         1 TEMP              0 ****  ****    0 ROOT
