@<TRIPOS>MOLECULE
IHM
   67    71     1     0     0
SMALL
bcc


@<TRIPOS>ATOM
      1 C01         0.1810    0.2290   -0.3220 ca        1 IHM      0.067100
      2 C02         1.5670    0.0830   -0.2280 ca        1 IHM     -0.104000
      3 C03         2.1600   -0.1090    1.0180 ca        1 IHM     -0.153000
      4 C04         1.3760   -0.1530    2.1740 ca        1 IHM     -0.072300
      5 C05        -0.0130   -0.0200    2.0900 ca        1 IHM     -0.184000
      6 C06        -0.6230    0.1720    0.8430 ca        1 IHM      0.144100
      7 O07        -0.4190    0.5650   -1.5270 os        1 IHM     -0.364900
      8 C08        -0.5770   -0.4380   -2.5090 c3        1 IHM      0.586700
      9 F09         0.6610   -0.8350   -2.9290 f         1 IHM     -0.245800
     10 F10        -1.1430   -1.5490   -1.9610 f         1 IHM     -0.245800
     11 O11        -1.9740    0.3100    0.6390 os        1 IHM     -0.305900
     12 C12        -2.7880    0.3400    1.8250 c3        1 IHM      0.154400
     13 C13        -4.1960    0.5520    1.3540 cx        1 IHM     -0.133700
     14 C14        -5.3050    0.4580    2.3670 cx        1 IHM     -0.126400
     15 C15        -4.9470    1.7870    1.7740 cx        1 IHM     -0.126400
     16 C16         2.0050   -0.3090    3.5380 c3        1 IHM      0.124300
     17 O17         0.3040    5.4490    5.3740 o         1 IHM     -0.568700
     18 C18         2.6840   -2.6530    2.7590 cc        1 IHM     -0.139300
     19 C19         3.3070   -3.7420    3.3770 cd        1 IHM     -0.289300
     20 C20         3.5940   -3.2920    4.7270 cd        1 IHM      0.356800
     21 N21         3.1620   -2.0040    4.8840 nc        1 IHM     -0.504800
     22 N22         2.6260   -1.6270    3.7130 na        1 IHM      0.084400
     23 C23         4.2410   -4.0840    5.7610 ca        1 IHM     -0.084500
     24 C24         3.9930   -3.8250    7.1150 ca        1 IHM     -0.132000
     25 C25         4.6160   -4.6050    8.1110 ca        1 IHM      0.066600
     26 C26         5.4930   -5.6450    7.7160 ca        1 IHM     -0.184000
     27 C27         5.7300   -5.8860    6.3690 ca        1 IHM     -0.107000
     28 C28         5.1130   -5.1160    5.3880 ca        1 IHM     -0.145000
     29 N29         4.4170   -4.3950    9.4860 n         1 IHM     -0.475100
     30 C30         3.5270   -3.5210   10.0980 c         1 IHM      0.665100
     31 O31         2.7660   -2.7660    9.4670 o         1 IHM     -0.586100
     32 C32         2.9920    0.8530    3.8050 c3        1 IHM     -0.041100
     33 C33         3.5330   -3.5300   11.6110 c3        1 IHM     -0.179100
     34 C34         2.2620    2.0820    4.2110 ca        1 IHM     -0.125300
     35 C35         1.6930    2.1830    5.4870 ca        1 IHM     -0.081500
     36 C36         1.0250    3.3410    5.8760 ca        1 IHM     -0.221800
     37 N37         0.8970    4.4370    5.0250 na        1 IHM      0.533300
     38 C38         1.4730    4.3310    3.7630 ca        1 IHM     -0.221800
     39 C39         2.1450    3.1800    3.3540 ca        1 IHM     -0.081500
     40 H1          2.1750    0.1140   -1.1460 ha        1 IHM      0.159000
     41 H2          3.2530   -0.2300    1.0850 ha        1 IHM      0.147000
     42 H3         -0.6220   -0.0690    3.0040 ha        1 IHM      0.149000
     43 H4         -1.1990    0.0360   -3.3250 h3        1 IHM      0.127700
     44 H5         -2.4430    1.1720    2.4940 h1        1 IHM      0.045700
     45 H6         -2.6940   -0.6440    2.3580 h1        1 IHM      0.045700
     46 H7         -4.3660    0.1540    0.3340 hc        1 IHM      0.103700
     47 H8         -5.0510    0.2560    3.4230 hc        1 IHM      0.074450
     48 H9         -6.2520   -0.0290    2.0730 hc        1 IHM      0.074450
     49 H10        -4.4380    2.5370    2.4060 hc        1 IHM      0.074450
     50 H11        -5.6350    2.2600    1.0510 hc        1 IHM      0.074450
     51 H12         1.1870   -0.2390    4.3240 h1        1 IHM      0.078700
     52 H14         2.2870   -2.5360    1.7500 h4        1 IHM      0.184000
     53 H15         3.5210   -4.7180    2.9580 ha        1 IHM      0.167000
     54 H16         3.3040   -3.0100    7.3940 ha        1 IHM      0.185000
     55 H17         5.9960   -6.2710    8.4690 ha        1 IHM      0.127000
     56 H18         6.4150   -6.6950    6.0770 ha        1 IHM      0.132000
     57 H19         5.3100   -5.3110    4.3240 ha        1 IHM      0.136000
     58 H20         4.9630   -4.9710   10.0870 hn        1 IHM      0.313500
     59 H21         3.7060    0.5770    4.6290 hc        1 IHM      0.074700
     60 H22         3.6030    1.0460    2.8840 hc        1 IHM      0.074700
     61 H23         3.2590   -4.5400   11.9990 hc        1 IHM      0.068033
     62 H24         2.7810   -2.7860   11.9720 hc        1 IHM      0.068033
     63 H25         4.5390   -3.2460   12.0020 hc        1 IHM      0.068033
     64 H26         1.7700    1.3490    6.2030 ha        1 IHM      0.160500
     65 H27         0.5660    3.4590    6.8720 h4        1 IHM      0.186500
     66 H28         1.3580    5.2160    3.1140 h4        1 IHM      0.186500
     67 H29         2.5780    3.1560    2.3420 ha        1 IHM      0.160500
@<TRIPOS>BOND
     1    1    2 ar  
     2    1    6 ar  
     3    1    7 1   
     4    2    3 ar  
     5    2   40 1   
     6    3    4 ar  
     7    3   41 1   
     8    4    5 ar  
     9    4   16 1   
    10    5    6 ar  
    11    5   42 1   
    12    6   11 1   
    13    7    8 1   
    14    8    9 1   
    15    8   10 1   
    16    8   43 1   
    17   11   12 1   
    18   12   13 1   
    19   12   44 1   
    20   12   45 1   
    21   13   14 1   
    22   13   15 1   
    23   13   46 1   
    24   14   15 1   
    25   14   47 1   
    26   14   48 1   
    27   15   49 1   
    28   15   50 1   
    29   16   22 1   
    30   16   32 1   
    31   16   51 1   
    32   17   37 2   
    33   18   19 2   
    34   18   22 1   
    35   18   52 1   
    36   19   20 1   
    37   19   53 1   
    38   20   21 2   
    39   20   23 1   
    40   21   22 1   
    41   23   24 ar  
    42   23   28 ar  
    43   24   25 ar  
    44   24   54 1   
    45   25   26 ar  
    46   25   29 1   
    47   26   27 ar  
    48   26   55 1   
    49   27   28 ar  
    50   27   56 1   
    51   28   57 1   
    52   29   30 1   
    53   29   58 1   
    54   30   31 2   
    55   30   33 1   
    56   32   34 1   
    57   32   59 1   
    58   32   60 1   
    59   33   61 1   
    60   33   62 1   
    61   33   63 1   
    62   34   35 ar  
    63   34   39 ar  
    64   35   36 ar  
    65   35   64 1   
    66   36   37 1   
    67   36   65 1   
    68   37   38 2   
    69   38   39 ar  
    70   38   66 1   
    71   39   67 1   
@<TRIPOS>SUBSTRUCTURE
     1 IHM         1 TEMP              0 ****  ****    0 ROOT
