@<TRIPOS>MOLECULE
IHM
   67    71     1     0     0
SMALL
bcc


@<TRIPOS>ATOM
      1 C01        -3.7540    1.8440   -0.1220 ca        1 IHM      0.067100
      2 C02        -3.0080    2.2210    0.9970 ca        1 IHM     -0.104000
      3 C03        -1.7790    1.6150    1.2470 ca        1 IHM     -0.152000
      4 C04        -1.2900    0.6290    0.3850 ca        1 IHM     -0.072300
      5 C05        -2.0230    0.2530   -0.7450 ca        1 IHM     -0.184000
      6 C06        -3.2600    0.8560   -1.0080 ca        1 IHM      0.144100
      7 O07        -5.0410    2.3250   -0.3140 os        1 IHM     -0.364900
      8 C08        -5.2100    3.6420   -0.7930 c3        1 IHM      0.586700
      9 F09        -4.7380    4.5120    0.1490 f         1 IHM     -0.245800
     10 F10        -4.4300    3.8470   -1.8910 f         1 IHM     -0.245800
     11 O11        -4.0620    0.5710   -2.0860 os        1 IHM     -0.305900
     12 C12        -3.6090   -0.4930   -2.9420 c3        1 IHM      0.154400
     13 C13        -4.6640   -0.6530   -3.9960 cx        1 IHM     -0.133700
     14 C14        -4.3860   -1.5860   -5.1440 cx        1 IHM     -0.126400
     15 C15        -5.4120   -1.9540   -4.1140 cx        1 IHM     -0.126400
     16 C16         0.0160   -0.0750    0.6660 c3        1 IHM      0.124300
     17 O17        -2.7670   -5.6140    1.6590 o         1 IHM     -0.568700
     18 C18         1.1250    2.1960    0.2430 cc        1 IHM     -0.139300
     19 C19         2.4510    2.6350    0.1820 cd        1 IHM     -0.288300
     20 C20         3.2490    1.4570    0.4670 cd        1 IHM      0.356800
     21 N21         2.4270    0.3850    0.6850 nc        1 IHM     -0.504800
     22 N22         1.1670    0.8290    0.5550 na        1 IHM      0.084400
     23 C23         4.7020    1.4120    0.5140 ca        1 IHM     -0.084500
     24 C24         5.3870    0.2210    0.2440 ca        1 IHM     -0.132000
     25 C25         6.7960    0.1890    0.2810 ca        1 IHM      0.066600
     26 C26         7.4980    1.3780    0.5980 ca        1 IHM     -0.184000
     27 C27         6.8030    2.5510    0.8670 ca        1 IHM     -0.107000
     28 C28         5.4120    2.5790    0.8280 ca        1 IHM     -0.145000
     29 N29         7.5440   -0.9720    0.0270 n         1 IHM     -0.475100
     30 C30         7.0840   -2.2080   -0.4080 c         1 IHM      0.665100
     31 O31         5.8840   -2.4540   -0.6260 o         1 IHM     -0.586100
     32 C32        -0.0500   -0.7890    2.0380 c3        1 IHM     -0.041100
     33 C33         8.1420   -3.2710   -0.6080 c3        1 IHM     -0.179100
     34 C34        -0.7900   -2.0720    1.9280 ca        1 IHM     -0.125300
     35 C35        -0.2050   -3.1810    1.3040 ca        1 IHM     -0.081500
     36 C36        -0.8900   -4.3900    1.2180 ca        1 IHM     -0.221800
     37 N37        -2.1700   -4.5500    1.7440 na        1 IHM      0.533300
     38 C38        -2.7410   -3.4450    2.3690 ca        1 IHM     -0.221800
     39 C39        -2.0720   -2.2250    2.4650 ca        1 IHM     -0.081500
     40 H1         -3.4010    3.0020    1.6680 ha        1 IHM      0.159000
     41 H2         -1.1920    1.9200    2.1270 ha        1 IHM      0.147000
     42 H3         -1.6230   -0.5140   -1.4250 ha        1 IHM      0.149000
     43 H4         -6.3160    3.7510   -0.9920 h3        1 IHM      0.127700
     44 H5         -2.6300   -0.1970   -3.4060 h1        1 IHM      0.046200
     45 H6         -3.4790   -1.4290   -2.3380 h1        1 IHM      0.046200
     46 H7         -5.2140    0.2900   -4.1920 hc        1 IHM      0.103700
     47 H8         -4.7160   -1.2930   -6.1560 hc        1 IHM      0.074450
     48 H9         -3.4280   -2.1360   -5.1670 hc        1 IHM      0.074450
     49 H10        -5.1890   -2.7690   -3.4020 hc        1 IHM      0.074450
     50 H11        -6.4820   -1.9270   -4.3840 hc        1 IHM      0.074450
     51 H12         0.1710   -0.8790   -0.1220 h1        1 IHM      0.078700
     52 H14         0.1870    2.7300    0.0880 h4        1 IHM      0.184000
     53 H15         2.8170    3.6300   -0.0410 ha        1 IHM      0.167000
     54 H16         4.8140   -0.6900   -0.0020 ha        1 IHM      0.185000
     55 H17         8.5980    1.3870    0.6360 ha        1 IHM      0.127000
     56 H18         7.3610    3.4660    1.1130 ha        1 IHM      0.132000
     57 H19         4.8710    3.5110    1.0460 ha        1 IHM      0.136000
     58 H20         8.5280   -0.8780    0.1480 hn        1 IHM      0.313500
     59 H21         0.9870   -1.0100    2.4130 hc        1 IHM      0.074700
     60 H22        -0.5410   -0.1150    2.7880 hc        1 IHM      0.074700
     61 H23         8.6770   -3.4780    0.3500 hc        1 IHM      0.068033
     62 H24         7.6420   -4.2080   -0.9540 hc        1 IHM      0.068033
     63 H25         8.8820   -2.9500   -1.3800 hc        1 IHM      0.068033
     64 H26         0.8090   -3.1150    0.8770 ha        1 IHM      0.160500
     65 H27        -0.4620   -5.2860    0.7370 h4        1 IHM      0.186500
     66 H28        -3.7530   -3.6030    2.7800 h4        1 IHM      0.186500
     67 H29        -2.5770   -1.3880    2.9710 ha        1 IHM      0.160500
@<TRIPOS>BOND
     1    1    2 ar  
     2    1    6 ar  
     3    1    7 1   
     4    2    3 ar  
     5    2   40 1   
     6    3    4 ar  
     7    3   41 1   
     8    4    5 ar  
     9    4   16 1   
    10    5    6 ar  
    11    5   42 1   
    12    6   11 1   
    13    7    8 1   
    14    8    9 1   
    15    8   10 1   
    16    8   43 1   
    17   11   12 1   
    18   12   13 1   
    19   12   44 1   
    20   12   45 1   
    21   13   14 1   
    22   13   15 1   
    23   13   46 1   
    24   14   15 1   
    25   14   47 1   
    26   14   48 1   
    27   15   49 1   
    28   15   50 1   
    29   16   22 1   
    30   16   32 1   
    31   16   51 1   
    32   17   37 2   
    33   18   19 2   
    34   18   22 1   
    35   18   52 1   
    36   19   20 1   
    37   19   53 1   
    38   20   21 2   
    39   20   23 1   
    40   21   22 1   
    41   23   24 ar  
    42   23   28 ar  
    43   24   25 ar  
    44   24   54 1   
    45   25   26 ar  
    46   25   29 1   
    47   26   27 ar  
    48   26   55 1   
    49   27   28 ar  
    50   27   56 1   
    51   28   57 1   
    52   29   30 1   
    53   29   58 1   
    54   30   31 2   
    55   30   33 1   
    56   32   34 1   
    57   32   59 1   
    58   32   60 1   
    59   33   61 1   
    60   33   62 1   
    61   33   63 1   
    62   34   35 ar  
    63   34   39 ar  
    64   35   36 ar  
    65   35   64 1   
    66   36   37 1   
    67   36   65 1   
    68   37   38 2   
    69   38   39 ar  
    70   38   66 1   
    71   39   67 1   
@<TRIPOS>SUBSTRUCTURE
     1 IHM         1 TEMP              0 ****  ****    0 ROOT
