@<TRIPOS>MOLECULE
IHU
   36    37     1     0     0
SMALL
bcc


@<TRIPOS>ATOM
      1 C51         0.3950    0.0860   -0.1270 c3        1 IHU      0.116700
      2 O54         1.7480   -0.2460    0.1830 os        1 IHU     -0.359900
      3 C19         2.1780    0.0580    1.4610 ca        1 IHU      0.093100
      4 C20         1.3330    0.4860    2.4910 ca        1 IHU     -0.140000
      5 C21         1.8450    0.7490    3.7560 ca        1 IHU     -0.151000
      6 C22         3.2160    0.5860    3.9980 ca        1 IHU      0.123100
      7 O55         3.7980    0.8230    5.2190 oh        1 IHU     -0.480100
      8 C23         4.0870    0.1650    2.9820 ca        1 IHU     -0.117000
      9 C18         3.5740   -0.0910    1.7010 ca        1 IHU     -0.014400
     10 N17         4.4370   -0.4460    0.6250 n         1 IHU     -0.376100
     11 C15         5.4090   -1.3970    0.7980 c         1 IHU      0.638100
     12 O16         5.9620   -1.7980    1.8250 o         1 IHU     -0.477100
     13 N14         6.0350   -1.9950   -0.4850 n4        1 IHU     -0.599600
     14 C12         6.4860   -0.9330   -1.4480 c         1 IHU      0.583700
     15 O13         5.5900   -0.4520   -2.1350 o         1 IHU     -0.445100
     16 C3          7.8950   -0.5350   -1.4380 ca        1 IHU     -0.220600
     17 C4          8.1420    0.8170   -1.7520 ca        1 IHU     -0.011000
     18 C5          9.4320    1.3220   -1.7850 ca        1 IHU     -0.169000
     19 C6         10.5190    0.4640   -1.5150 ca        1 IHU      0.226900
     20 F10        11.7770    0.9370   -1.5400 f         1 IHU     -0.086900
     21 C1         10.2910   -0.8990   -1.2240 ca        1 IHU     -0.163000
     22 C2          8.9880   -1.3870   -1.1890 ca        1 IHU      0.082400
     23 CL11        8.7900   -3.0500   -0.8750 cl        1 IHU     -0.047400
     24 H511        0.3160   -0.1600   -1.2170 h1        1 IHU      0.059700
     25 H512        0.2040    1.1720    0.0500 h1        1 IHU      0.059700
     26 H513       -0.3040   -0.5460    0.4720 h1        1 IHU      0.059700
     27 H20         0.2550    0.6100    2.3080 ha        1 IHU      0.163000
     28 H21         1.1740    1.0800    4.5640 ha        1 IHU      0.160000
     29 H55         3.1040    1.0970    5.8390 ho        1 IHU      0.436000
     30 H23         5.1570    0.0340    3.2140 ha        1 IHU      0.179000
     31 H17         4.0430   -0.3000   -0.2900 hn        1 IHU      0.363500
     32 H14         6.8430   -2.5800   -0.1890 hn        1 IHU      0.476300
     33 H4          7.2890    1.4830   -1.9790 ha        1 IHU      0.177000
     34 H5          9.6180    2.3820   -2.0240 ha        1 IHU      0.190000
     35 H1         11.1520   -1.5630   -1.0330 ha        1 IHU      0.196000
     36 H142        5.3360   -2.5930   -0.9370 hn        1 IHU      0.476300
@<TRIPOS>BOND
     1    1    2 1   
     2    1   24 1   
     3    1   25 1   
     4    1   26 1   
     5    2    3 1   
     6    3    4 ar  
     7    3    9 ar  
     8    4    5 ar  
     9    4   27 1   
    10    5    6 ar  
    11    5   28 1   
    12    6    7 1   
    13    6    8 ar  
    14    7   29 1   
    15    8    9 ar  
    16    8   30 1   
    17    9   10 1   
    18   10   11 1   
    19   10   31 1   
    20   11   12 2   
    21   11   13 1   
    22   13   14 1   
    23   13   32 1   
    24   13   36 1   
    25   14   15 2   
    26   14   16 1   
    27   16   17 ar  
    28   16   22 ar  
    29   17   18 ar  
    30   17   33 1   
    31   18   19 ar  
    32   18   34 1   
    33   19   20 1   
    34   19   21 ar  
    35   21   22 ar  
    36   21   35 1   
    37   22   23 1   
@<TRIPOS>SUBSTRUCTURE
     1 IHU         1 TEMP              0 ****  ****    0 ROOT
