@<TRIPOS>MOLECULE
IHU
   37    38     1     0     0
SMALL
bcc


@<TRIPOS>ATOM
      1 C51         2.6080    1.0830   -0.6830 c3        1 IHU      0.117700
      2 O54         3.4910    0.5460    0.3200 os        1 IHU     -0.424900
      3 C19         2.8910    0.0880    1.4760 ca        1 IHU      0.105100
      4 C20         1.5540   -0.3240    1.5610 ca        1 IHU     -0.116000
      5 C21         1.0500   -0.8220    2.7540 ca        1 IHU     -0.102000
      6 C22         1.8840   -0.9190    3.8880 ca        1 IHU      0.164100
      7 O55         1.4750   -1.4100    5.0910 oh        1 IHU     -0.451100
      8 C23         3.2240   -0.5050    3.8320 ca        1 IHU     -0.119000
      9 C18         3.7200    0.0140    2.6230 ca        1 IHU     -0.098400
     10 N17         5.0900    0.5300    2.5760 n4        1 IHU     -0.481200
     11 C15         6.0440   -0.5060    2.0550 c         1 IHU      0.503100
     12 O16         6.7460   -1.1460    2.8220 o         1 IHU     -0.312100
     13 N14         6.1150   -0.7090    0.5910 n4        1 IHU     -0.593600
     14 C12         6.9130    0.4670   -0.1210 c         1 IHU      0.644700
     15 O13         6.6590    1.5430    0.3870 o         1 IHU     -0.432100
     16 C3          7.7550    0.0140   -1.1990 ca        1 IHU     -0.266600
     17 C4          7.3010   -0.9670   -2.1120 ca        1 IHU     -0.051000
     18 C5          8.0720   -1.3480   -3.1880 ca        1 IHU     -0.161000
     19 C6          9.3500   -0.7560   -3.3800 ca        1 IHU      0.274900
     20 F10        10.1030   -1.1230   -4.4230 f         1 IHU     -0.056900
     21 C1          9.8200    0.2160   -2.4740 ca        1 IHU     -0.176000
     22 C2          9.0320    0.6030   -1.3910 ca        1 IHU      0.136400
     23 CL11        9.6470    1.7480   -0.3210 cl        1 IHU      0.020600
     24 H511        2.0730    0.2440   -1.1910 h1        1 IHU      0.080700
     25 H512        3.3070    1.6040   -1.3860 h1        1 IHU      0.080700
     26 H513        1.8900    1.8060   -0.2260 h1        1 IHU      0.080700
     27 H20         0.8980   -0.2490    0.6760 ha        1 IHU      0.191000
     28 H21        -0.0060   -1.1430    2.8160 ha        1 IHU      0.194000
     29 H55         0.5280   -1.6360    5.0460 ho        1 IHU      0.466000
     30 H23         3.8400   -0.5890    4.7450 ha        1 IHU      0.195000
     31 H17         5.1160    1.3790    1.9740 hn        1 IHU      0.512800
     32 H14         5.1670   -0.7530    0.1800 hn        1 IHU      0.501800
     33 H4          6.2990   -1.4130   -2.0050 ha        1 IHU      0.139000
     34 H5          7.7140   -2.1020   -3.9120 ha        1 IHU      0.202000
     35 H1         10.8180    0.6700   -2.6340 ha        1 IHU      0.217000
     36 H172        5.3940    0.7770    3.5390 hn        1 IHU      0.512800
     37 H142        6.6060   -1.6010    0.4120 hn        1 IHU      0.501800
@<TRIPOS>BOND
     1    1    2 1   
     2    1   24 1   
     3    1   25 1   
     4    1   26 1   
     5    2    3 1   
     6    3    4 ar  
     7    3    9 ar  
     8    4    5 ar  
     9    4   27 1   
    10    5    6 ar  
    11    5   28 1   
    12    6    7 1   
    13    6    8 ar  
    14    7   29 1   
    15    8    9 ar  
    16    8   30 1   
    17    9   10 1   
    18   10   11 1   
    19   10   31 1   
    20   10   36 1   
    21   11   12 2   
    22   11   13 1   
    23   13   14 1   
    24   13   32 1   
    25   13   37 1   
    26   14   15 2   
    27   14   16 1   
    28   16   17 ar  
    29   16   22 ar  
    30   17   18 ar  
    31   17   33 1   
    32   18   19 ar  
    33   18   34 1   
    34   19   20 1   
    35   19   21 ar  
    36   21   22 ar  
    37   21   35 1   
    38   22   23 1   
@<TRIPOS>SUBSTRUCTURE
     1 IHU         1 TEMP              0 ****  ****    0 ROOT
