@<TRIPOS>MOLECULE
IHU
   36    37     1     0     0
SMALL
bcc


@<TRIPOS>ATOM
      1 C51         0.4060    0.2900   -0.0920 c3        1 IHU      0.116700
      2 O54         1.7480   -0.1050    0.1940 os        1 IHU     -0.359900
      3 C19         2.1910    0.1130    1.4850 ca        1 IHU      0.093100
      4 C20         1.3640    0.5130    2.5400 ca        1 IHU     -0.140000
      5 C21         1.8880    0.6880    3.8160 ca        1 IHU     -0.151000
      6 C22         3.2530    0.4630    4.0430 ca        1 IHU      0.123100
      7 O55         3.8450    0.6120    5.2730 oh        1 IHU     -0.480100
      8 C23         4.1060    0.0680    3.0020 ca        1 IHU     -0.117000
      9 C18         3.5810   -0.0990    1.7110 ca        1 IHU     -0.014400
     10 N17         4.4280   -0.4260    0.6130 ns        1 IHU     -0.376100
     11 C15         5.3660   -1.4190    0.7300 c         1 IHU      0.638100
     12 O16         5.9070   -1.8940    1.7310 o         1 IHU     -0.477100
     13 N14         5.9680   -1.9680   -0.5860 ny        1 IHU     -0.599600
     14 C12         6.4540   -0.8710   -1.4920 c         1 IHU      0.583700
     15 O13         5.5740   -0.3210   -2.1470 o         1 IHU     -0.445100
     16 C3          7.8760   -0.5250   -1.4660 ca        1 IHU     -0.220600
     17 C4          8.1710    0.8330   -1.7060 ca        1 IHU     -0.011000
     18 C5          9.4790    1.2920   -1.7170 ca        1 IHU     -0.169000
     19 C6         10.5340    0.3820   -1.4990 ca        1 IHU      0.226900
     20 F10        11.8090    0.8100   -1.5030 f         1 IHU     -0.086900
     21 C1         10.2580   -0.9860   -1.2820 ca        1 IHU     -0.163000
     22 C2          8.9390   -1.4280   -1.2680 ca        1 IHU      0.082400
     23 Cl11        8.6820   -3.0970   -1.0450 cl        1 IHU     -0.047400
     24 H511       -0.3140   -0.3480    0.4750 h1        1 IHU      0.059700
     25 H512        0.2540    1.3710    0.1450 h1        1 IHU      0.059700
     26 H513        0.3160    0.1070   -1.1930 h1        1 IHU      0.059700
     27 H20         0.2900    0.6850    2.3690 ha        1 IHU      0.163000
     28 H21         1.2310    0.9990    4.6430 ha        1 IHU      0.160000
     29 H55         3.1630    0.8760    5.9100 ho        1 IHU      0.436000
     30 H23         5.1710   -0.1140    3.2210 ha        1 IHU      0.179000
     31 H17         4.0380   -0.2150   -0.2900 hn        1 IHU      0.363500
     32 H14         5.2460   -2.5150   -1.0670 hn        1 IHU      0.476300
     33 H4          7.3430    1.5400   -1.8930 ha        1 IHU      0.177000
     34 H5          9.7020    2.3560   -1.8980 ha        1 IHU      0.190000
     35 H1         11.0960   -1.6900   -1.1310 ha        1 IHU      0.196000
     36 H142        6.7550   -2.5970   -0.3260 hn        1 IHU      0.476300
@<TRIPOS>BOND
     1    1    2 1   
     2    1   24 1   
     3    1   25 1   
     4    1   26 1   
     5    2    3 1   
     6    3    4 ar  
     7    3    9 ar  
     8    4    5 ar  
     9    4   27 1   
    10    5    6 ar  
    11    5   28 1   
    12    6    7 1   
    13    6    8 ar  
    14    7   29 1   
    15    8    9 ar  
    16    8   30 1   
    17    9   10 1   
    18   10   11 1   
    19   10   31 1   
    20   11   12 2   
    21   11   13 1   
    22   13   14 1   
    23   13   32 1   
    24   13   36 1   
    25   14   15 2   
    26   14   16 1   
    27   16   17 ar  
    28   16   22 ar  
    29   17   18 ar  
    30   17   33 1   
    31   18   19 ar  
    32   18   34 1   
    33   19   20 1   
    34   19   21 ar  
    35   21   22 ar  
    36   21   35 1   
    37   22   23 1   
@<TRIPOS>SUBSTRUCTURE
     1 IHU         1 TEMP              0 ****  ****    0 ROOT
