@<TRIPOS>MOLECULE
IHU
   35    36     1     0     0
SMALL
bcc


@<TRIPOS>ATOM
      1 C51         4.6160   -2.8250   -1.6690 c3        1 IHU      0.118700
      2 O54         3.7170   -2.0880   -0.8480 os        1 IHU     -0.352900
      3 C19         4.2130   -0.8870   -0.3520 ca        1 IHU      0.033100
      4 C20         5.5700   -0.6820   -0.0980 ca        1 IHU     -0.134000
      5 C21         6.0140    0.5150    0.4510 ca        1 IHU     -0.151000
      6 C22         5.0750    1.5130    0.7450 ca        1 IHU      0.125100
      7 O55         5.5680    2.6780    1.2880 oh        1 IHU     -0.497100
      8 C23         3.7100    1.3350    0.4900 ca        1 IHU     -0.202000
      9 C18         3.2500    0.1280   -0.0660 ca        1 IHU      0.081600
     10 N17         1.8970   -0.0810   -0.3930 n         1 IHU     -0.451100
     11 C15         0.8360    0.4490    0.3720 c         1 IHU      0.776100
     12 O16         0.9880    1.3970    1.1650 o         1 IHU     -0.565100
     13 N14        -0.4460   -0.1280    0.1680 n         1 IHU     -0.607500
     14 C12        -1.6370    0.5010    0.5470 c         1 IHU      0.691700
     15 O13        -1.6770    1.6360    1.0360 o         1 IHU     -0.510100
     16 C3         -2.8770   -0.3160    0.3610 ca        1 IHU     -0.161600
     17 C4         -3.6730   -0.5400    1.4920 ca        1 IHU     -0.050000
     18 C5         -4.8520   -1.2690    1.3990 ca        1 IHU     -0.169000
     19 C6         -5.2520   -1.7770    0.1480 ca        1 IHU      0.157900
     20 F10        -6.3970   -2.4890    0.0430 f         1 IHU     -0.127900
     21 C1         -4.4700   -1.5470   -0.9990 ca        1 IHU     -0.171000
     22 C2         -3.2850   -0.8170   -0.8810 ca        1 IHU      0.061400
     23 CL11       -2.3710   -0.5370   -2.2860 cl        1 IHU     -0.072400
     24 H511        5.3780   -3.3390   -1.0330 h1        1 IHU      0.044367
     25 H512        3.9580   -3.5780   -2.1730 h1        1 IHU      0.044367
     26 H513        5.1140   -2.1660   -2.4200 h1        1 IHU      0.044367
     27 H20         6.2970   -1.4750   -0.3270 ha        1 IHU      0.142000
     28 H21         7.0790    0.6850    0.6600 ha        1 IHU      0.155000
     29 H55         4.8180    3.2620    1.4760 ho        1 IHU      0.426000
     30 H23         2.9990    2.1420    0.7360 ha        1 IHU      0.178000
     31 H17         1.7330   -0.9210   -0.9090 hn        1 IHU      0.322500
     32 H14        -0.5210   -0.9820   -0.3370 hn        1 IHU      0.322500
     33 H4         -3.3580   -0.1190    2.4620 ha        1 IHU      0.166000
     34 H5         -5.4770   -1.4480    2.2860 ha        1 IHU      0.162000
     35 H1         -4.8010   -1.9380   -1.9730 ha        1 IHU      0.170000
@<TRIPOS>BOND
     1    1    2 1   
     2    1   24 1   
     3    1   25 1   
     4    1   26 1   
     5    2    3 1   
     6    3    4 ar  
     7    3    9 ar  
     8    4    5 ar  
     9    4   27 1   
    10    5    6 ar  
    11    5   28 1   
    12    6    7 1   
    13    6    8 ar  
    14    7   29 1   
    15    8    9 ar  
    16    8   30 1   
    17    9   10 1   
    18   10   11 1   
    19   10   31 1   
    20   11   12 2   
    21   11   13 1   
    22   13   14 1   
    23   13   32 1   
    24   14   15 2   
    25   14   16 1   
    26   16   17 ar  
    27   16   22 ar  
    28   17   18 ar  
    29   17   33 1   
    30   18   19 ar  
    31   18   34 1   
    32   19   20 1   
    33   19   21 ar  
    34   21   22 ar  
    35   21   35 1   
    36   22   23 1   
@<TRIPOS>SUBSTRUCTURE
     1 IHU         1 TEMP              0 ****  ****    0 ROOT
