@<TRIPOS>MOLECULE
IHX
   47    50     1     0     0
SMALL
bcc


@<TRIPOS>ATOM
      1 C1          0.2330    0.5940   -0.4570 ca        1 IHX     -0.104000
      2 C2          1.6130    0.4440   -0.3050 ca        1 IHX     -0.125000
      3 C3         -0.6200    0.4890    0.6350 ca        1 IHX     -0.148000
      4 C4          2.1570    0.1850    0.9580 cp        1 IHX      0.000000
      5 C5         -0.0690    0.2300    1.9020 ca        1 IHX      0.121100
      6 C6          1.3130    0.0830    2.0720 ca        1 IHX     -0.201000
      7 C7          3.6040    0.0470    1.1440 cp        1 IHX     -0.078300
      8 C8          4.3590   -0.9310    0.4100 ca        1 IHX      0.360300
      9 C11         4.2500    0.8650    2.0490 ca        1 IHX     -0.074000
     10 C12         5.6430    0.7640    2.2580 ca        1 IHX     -0.178300
     11 C18         4.4670   -2.6780   -1.1360 ca        1 IHX      0.540900
     12 C19         5.9200   -2.7510   -0.8920 ca        1 IHX      0.297900
     13 N22         3.8860   -3.6520   -1.9800 nh        1 IHX     -0.729300
     14 C24         1.9170   -4.9360   -2.8030 c3        1 IHX      0.163300
     15 C27         4.4990   -3.7850   -3.2950 c3        1 IHX      0.185800
     16 F17         6.1010    1.3030    4.5860 f         1 IHX     -0.235633
     17 C14         6.2870    1.6930    3.2810 c3        1 IHX      0.690200
     18 F15         7.6490    1.8270    3.1620 f         1 IHX     -0.235633
     19 F16         5.8180    2.9830    3.2490 f         1 IHX     -0.235633
     20 O13        -0.9580    0.1360    2.9490 oh        1 IHX     -0.498100
     21 C10         6.4040   -0.1530    1.5720 ca        1 IHX     -0.085300
     22 C9          5.7760   -1.0220    0.6350 ca        1 IHX      0.240300
     23 N21         6.5380   -1.9600   -0.0490 nb        1 IHX     -0.605000
     24 N20         3.7240   -1.7630   -0.4900 nb        1 IHX     -0.696000
     25 C25         3.9740   -5.0160   -4.0610 c3        1 IHX      0.163300
     26 N23         2.5220   -5.0660   -4.1210 n3        1 IHX     -0.733600
     27 C28         2.0350   -6.2180   -4.8450 c3        1 IHX      0.156100
     28 C26         2.4290   -3.7090   -2.0220 c3        1 IHX      0.185800
     29 H1         -0.1840    0.7980   -1.4550 ha        1 IHX      0.136000
     30 H2          2.2720    0.5260   -1.1820 ha        1 IHX      0.142000
     31 H3         -1.7080    0.6030    0.5290 ha        1 IHX      0.151000
     32 H6          1.7330   -0.1200    3.0670 ha        1 IHX      0.137000
     33 H11         3.6800    1.6190    2.6170 ha        1 IHX      0.159000
     34 H19         6.5390   -3.5070   -1.4080 h4        1 IHX      0.041100
     35 H24         0.8080   -4.8040   -2.9450 h1        1 IHX      0.042950
     36 H24A        2.0800   -5.8610   -2.1760 h1        1 IHX      0.042950
     37 H27         4.3110   -2.8620   -3.9180 h1        1 IHX      0.055700
     38 H27A        5.6100   -3.9080   -3.1790 h1        1 IHX      0.055700
     39 HO13       -0.4530   -0.0530    3.7530 ho        1 IHX      0.419000
     40 H10         7.4940   -0.2230    1.7360 ha        1 IHX      0.171000
     41 H25         4.4080   -5.9470   -3.5920 h1        1 IHX      0.042950
     42 H25A        4.3620   -4.9470   -5.1160 h1        1 IHX      0.042950
     43 H28         2.4730   -6.2070   -5.8770 h1        1 IHX      0.035033
     44 H28A        0.9190   -6.1470   -4.9250 h1        1 IHX      0.035033
     45 H28B        2.2970   -7.1960   -4.3560 h1        1 IHX      0.035033
     46 H26         1.9990   -2.7750   -2.4850 h1        1 IHX      0.055700
     47 H26A        2.0440   -3.7910   -0.9680 h1        1 IHX      0.055700
@<TRIPOS>BOND
     1    1    2 ar  
     2    1    3 ar  
     3    1   29 1   
     4    2    4 ar  
     5    2   30 1   
     6    3    5 ar  
     7    3   31 1   
     8    4    6 ar  
     9    4    7 1   
    10    5    6 ar  
    11    5   20 1   
    12    6   32 1   
    13    7    8 ar  
    14    7    9 ar  
    15    8   22 ar  
    16    8   24 ar  
    17    9   10 ar  
    18    9   33 1   
    19   10   17 1   
    20   10   21 ar  
    21   11   12 ar  
    22   11   13 1   
    23   11   24 ar  
    24   12   23 ar  
    25   12   34 1   
    26   13   15 1   
    27   13   28 1   
    28   14   26 1   
    29   14   28 1   
    30   14   35 1   
    31   14   36 1   
    32   15   25 1   
    33   15   37 1   
    34   15   38 1   
    35   16   17 1   
    36   17   18 1   
    37   17   19 1   
    38   20   39 1   
    39   21   22 ar  
    40   21   40 1   
    41   22   23 ar  
    42   25   26 1   
    43   25   41 1   
    44   25   42 1   
    45   26   27 1   
    46   27   43 1   
    47   27   44 1   
    48   27   45 1   
    49   28   46 1   
    50   28   47 1   
@<TRIPOS>SUBSTRUCTURE
     1 IHX         1 TEMP              0 ****  ****    0 ROOT
