@<TRIPOS>MOLECULE
IHX
   47    42     1     0     0
SMALL
bcc


@<TRIPOS>ATOM
      1 C1         -3.5950    1.0690    2.6930 c1        1 IHX     -0.151500
      2 C2         -2.2180    1.0250    2.7080 c1        1 IHX     -0.126000
      3 C3         -4.2580    1.8400    1.7350 c1        1 IHX     -0.151500
      4 C4         -1.4740    1.7630    1.7490 c1        1 IHX     -0.003000
      5 C5         -3.5160    2.5720    0.7840 c1        1 IHX      0.076000
      6 C6         -2.1350    2.5270    0.8000 c1        1 IHX     -0.144000
      7 C7         -0.0950    1.7570    1.7910 c1        1 IHX     -0.013000
      8 C8          0.7900    0.9140    1.1180 c1        1 IHX      0.032000
      9 C11         0.3920    2.7730    2.6020 c1        1 IHX     -0.072000
     10 C12         1.7640    2.9520    2.7430 c1        1 IHX     -0.170000
     11 C18         1.1630   -0.8880   -0.3240 c1        1 IHX      0.084000
     12 C19         2.5430   -0.7140   -0.1860 c1        1 IHX     -0.103000
     13 N22         0.5020   -1.7190   -1.3270 n3        1 IHX     -0.219000
     14 C24         0.4330   -2.2410   -3.6740 c3        1 IHX     -0.073000
     15 C27         0.7340   -3.0800   -1.0380 c3        1 IHX     -0.051500
     16 F17         2.8850    3.4310    4.7240 f         1 IHX     -0.164000
     17 C14         2.3230    4.0190    3.7340 c2        1 IHX      0.469000
     18 F15         3.2450    4.8070    3.0870 f         1 IHX     -0.164000
     19 F16         1.3050    4.7920    4.1870 f         1 IHX     -0.164000
     20 O13        -4.1910    3.3680   -0.1900 oh        1 IHX     -0.251000
     21 C10         2.6400    2.1190    2.0780 c2        1 IHX     -0.020000
     22 C9          2.1430    1.0860    1.2550 c1        1 IHX     -0.088000
     23 N21         3.0130    0.2500    0.5840 n2        1 IHX     -0.079000
     24 N20         0.3120   -0.0750    0.3280 n2        1 IHX     -0.169000
     25 C25         0.2140   -3.9780   -2.1010 c3        1 IHX     -0.073000
     26 N23         0.6630   -3.6160   -3.3780 n3        1 IHX     -0.258000
     27 C28        -0.0030   -4.4680   -4.3870 c3        1 IHX     -0.119000
     28 C26         0.9540   -1.3500   -2.6300 c3        1 IHX     -0.051500
     29 H1         -4.1400    0.5290    3.3950 ha        1 IHX      0.134000
     30 H2         -1.7630    0.4970    3.3640 ha        1 IHX      0.142000
     31 H3         -5.1950    1.8720    1.7240 ha        1 IHX      0.134000
     32 H6         -1.6160    3.0430    0.1300 ha        1 IHX      0.154000
     33 H11        -0.1960    3.4000    2.9610 ha        1 IHX      0.161000
     34 H19         3.2250   -1.3300   -0.7570 ha        1 IHX      0.178000
     35 H24        -0.5080   -2.0970   -3.7600 h1        1 IHX      0.081500
     36 H24A        0.8830   -2.0130   -4.5530 h1        1 IHX      0.081500
     37 H27         0.2800   -3.3140   -0.1590 h1        1 IHX      0.095250
     38 H27A        1.7580   -3.2340   -0.9400 h1        1 IHX      0.095250
     39 HO13       -4.5460    4.1300    0.2200 ho        1 IHX      0.218000
     40 H10         3.5560    2.2380    2.1720 ha        1 IHX      0.170000
     41 H25        -0.8420   -3.9390   -2.0890 h1        1 IHX      0.081500
     42 H25A        0.5110   -4.9290   -1.9070 h1        1 IHX      0.081500
     43 H28        -0.7360   -5.0400   -3.9240 h1        1 IHX      0.074667
     44 H28A        0.6380   -5.0410   -4.7900 h1        1 IHX      0.074667
     45 H28B       -0.4180   -3.8990   -5.0800 h1        1 IHX      0.074667
     46 H26         1.9120   -1.3840   -2.6480 h1        1 IHX      0.095250
     47 H26A        0.6640   -0.4290   -2.8230 h1        1 IHX      0.095250
@<TRIPOS>BOND
     1    1    3 1   
     2    1   29 1   
     3    2    4 1   
     4    2   30 1   
     5    3   31 1   
     6    5    6 1   
     7    5   20 1   
     8    6   32 1   
     9    7    8 1   
    10    8   24 1   
    11    9   10 1   
    12    9   33 1   
    13   10   21 1   
    14   11   13 1   
    15   11   24 1   
    16   12   23 1   
    17   12   34 1   
    18   13   15 1   
    19   13   28 1   
    20   14   26 1   
    21   14   28 1   
    22   14   35 1   
    23   14   36 1   
    24   15   25 1   
    25   15   37 1   
    26   15   38 1   
    27   16   17 1   
    28   17   18 1   
    29   17   19 1   
    30   20   39 1   
    31   21   22 1   
    32   21   40 1   
    33   22   23 1   
    34   25   26 1   
    35   25   41 1   
    36   25   42 1   
    37   26   27 1   
    38   27   43 1   
    39   27   44 1   
    40   27   45 1   
    41   28   46 1   
    42   28   47 1   
@<TRIPOS>SUBSTRUCTURE
     1 IHX         1 TEMP              0 ****  ****    0 ROOT
