@<TRIPOS>MOLECULE
IHX
   47    50     1     0     0
SMALL
bcc


@<TRIPOS>ATOM
      1 C1          0.2350    0.5950   -0.4520 ca        1 IHX     -0.104000
      2 C2          1.6140    0.4440   -0.3020 ca        1 IHX     -0.125000
      3 C3         -0.6180    0.4900    0.6410 ca        1 IHX     -0.148000
      4 C4          2.1590    0.1850    0.9600 cp        1 IHX      0.000000
      5 C5         -0.0650    0.2300    1.9070 ca        1 IHX      0.121100
      6 C6          1.3170    0.0820    2.0750 ca        1 IHX     -0.201000
      7 C7          3.6060    0.0450    1.1450 cp        1 IHX     -0.078300
      8 C8          4.3600   -0.9320    0.4090 ca        1 IHX      0.360300
      9 C11         4.2550    0.8620    2.0500 ca        1 IHX     -0.074000
     10 C12         5.6470    0.7610    2.2570 ca        1 IHX     -0.178300
     11 C18         4.4660   -2.6780   -1.1380 ca        1 IHX      0.540900
     12 C19         5.9200   -2.7510   -0.8960 ca        1 IHX      0.297900
     13 N22         3.8830   -3.6510   -1.9820 nh        1 IHX     -0.729300
     14 C24         1.9130   -4.9340   -2.8040 c3        1 IHX      0.163300
     15 C27         4.4950   -3.7830   -3.2980 c3        1 IHX      0.185800
     16 F17         6.1060    1.2980    4.5850 f         1 IHX     -0.235633
     17 C14         6.2930    1.6880    3.2800 c3        1 IHX      0.690200
     18 F15         7.6550    1.8200    3.1620 f         1 IHX     -0.235633
     19 F16         5.8250    2.9800    3.2490 f         1 IHX     -0.235633
     20 O13        -0.9530    0.1350    2.9550 oh        1 IHX     -0.498100
     21 C10         6.4070   -0.1560    1.5690 ca        1 IHX     -0.085300
     22 C9          5.7780   -1.0240    0.6330 ca        1 IHX      0.240300
     23 N21         6.5390   -1.9610   -0.0530 nb        1 IHX     -0.605000
     24 N20         3.7240   -1.7630   -0.4910 nb        1 IHX     -0.696000
     25 C25         3.9690   -5.0140   -4.0650 c3        1 IHX      0.163300
     26 N23         2.5160   -5.0630   -4.1220 n3        1 IHX     -0.733600
     27 C28         2.0290   -6.2150   -4.8470 c3        1 IHX      0.156100
     28 C26         2.4270   -3.7080   -2.0230 c3        1 IHX      0.185800
     29 H1         -0.1840    0.8010   -1.4490 ha        1 IHX      0.136000
     30 H2          2.2730    0.5270   -1.1790 ha        1 IHX      0.142000
     31 H3         -1.7050    0.6050    0.5360 ha        1 IHX      0.151000
     32 H6          1.7370   -0.1220    3.0700 ha        1 IHX      0.137000
     33 H11         3.6850    1.6160    2.6200 ha        1 IHX      0.159000
     34 H19         6.5380   -3.5070   -1.4130 h4        1 IHX      0.041100
     35 H24         2.0770   -5.8590   -2.1770 h1        1 IHX      0.042950
     36 H24A        0.8040   -4.8020   -2.9440 h1        1 IHX      0.042950
     37 H27         5.6060   -3.9070   -3.1830 h1        1 IHX      0.055700
     38 H27A        4.3060   -2.8600   -3.9200 h1        1 IHX      0.055700
     39 HO13       -0.4470   -0.0540    3.7590 ho        1 IHX      0.419000
     40 H10         7.4970   -0.2270    1.7320 ha        1 IHX      0.171000
     41 H25         4.3560   -4.9440   -5.1200 h1        1 IHX      0.042950
     42 H25A        4.4040   -5.9450   -3.5960 h1        1 IHX      0.042950
     43 H28         2.4650   -6.2020   -5.8790 h1        1 IHX      0.035033
     44 H28A        0.9120   -6.1430   -4.9250 h1        1 IHX      0.035033
     45 H28B        2.2920   -7.1930   -4.3580 h1        1 IHX      0.035033
     46 H26         2.0430   -3.7910   -0.9670 h1        1 IHX      0.055700
     47 H26A        1.9960   -2.7730   -2.4840 h1        1 IHX      0.055700
@<TRIPOS>BOND
     1    1    2 ar  
     2    1    3 ar  
     3    1   29 1   
     4    2    4 ar  
     5    2   30 1   
     6    3    5 ar  
     7    3   31 1   
     8    4    6 ar  
     9    4    7 1   
    10    5    6 ar  
    11    5   20 1   
    12    6   32 1   
    13    7    8 ar  
    14    7    9 ar  
    15    8   22 ar  
    16    8   24 ar  
    17    9   10 ar  
    18    9   33 1   
    19   10   17 1   
    20   10   21 ar  
    21   11   12 ar  
    22   11   13 1   
    23   11   24 ar  
    24   12   23 ar  
    25   12   34 1   
    26   13   15 1   
    27   13   28 1   
    28   14   26 1   
    29   14   28 1   
    30   14   35 1   
    31   14   36 1   
    32   15   25 1   
    33   15   37 1   
    34   15   38 1   
    35   16   17 1   
    36   17   18 1   
    37   17   19 1   
    38   20   39 1   
    39   21   22 ar  
    40   21   40 1   
    41   22   23 ar  
    42   25   26 1   
    43   25   41 1   
    44   25   42 1   
    45   26   27 1   
    46   27   43 1   
    47   27   44 1   
    48   27   45 1   
    49   28   46 1   
    50   28   47 1   
@<TRIPOS>SUBSTRUCTURE
     1 IHX         1 TEMP              0 ****  ****    0 ROOT
