@<TRIPOS>MOLECULE
IHX
   47    50     1     0     0
SMALL
bcc


@<TRIPOS>ATOM
      1 C1          0.2350    0.5950   -0.4570 ca        1 IHX     -0.104000
      2 C2          1.6140    0.4440   -0.3040 ca        1 IHX     -0.125000
      3 C3         -0.6200    0.4890    0.6340 ca        1 IHX     -0.148000
      4 C4          2.1560    0.1840    0.9590 cp        1 IHX      0.000000
      5 C5         -0.0700    0.2290    1.9010 ca        1 IHX      0.121100
      6 C6          1.3110    0.0800    2.0720 ca        1 IHX     -0.201000
      7 C7          3.6030    0.0440    1.1470 cp        1 IHX     -0.078300
      8 C8          4.3580   -0.9330    0.4120 ca        1 IHX      0.360300
      9 C11         4.2490    0.8610    2.0530 ca        1 IHX     -0.074000
     10 C12         5.6410    0.7590    2.2640 ca        1 IHX     -0.178300
     11 C18         4.4670   -2.6780   -1.1350 ca        1 IHX      0.540900
     12 C19         5.9200   -2.7520   -0.8900 ca        1 IHX      0.297900
     13 N22         3.8860   -3.6500   -1.9810 nh        1 IHX     -0.729300
     14 C24         1.9180   -4.9320   -2.8090 c3        1 IHX      0.163300
     15 C27         4.5000   -3.7820   -3.2970 c3        1 IHX      0.185800
     16 F17         6.0950    1.2960    4.5930 f         1 IHX     -0.235633
     17 C14         6.2850    1.6860    3.2890 c3        1 IHX      0.690200
     18 F15         7.6470    1.8170    3.1730 f         1 IHX     -0.235633
     19 F16         5.8180    2.9780    3.2560 f         1 IHX     -0.235633
     20 O13        -0.9600    0.1340    2.9470 oh        1 IHX     -0.498100
     21 C10         6.4030   -0.1570    1.5770 ca        1 IHX     -0.085300
     22 C9          5.7750   -1.0250    0.6390 ca        1 IHX      0.240300
     23 N21         6.5380   -1.9620   -0.0460 nb        1 IHX     -0.605000
     24 N20         3.7240   -1.7630   -0.4900 nb        1 IHX     -0.696000
     25 C25         3.9760   -5.0120   -4.0650 c3        1 IHX      0.163300
     26 N23         2.5240   -5.0610   -4.1260 n3        1 IHX     -0.733600
     27 C28         2.0370   -6.2120   -4.8520 c3        1 IHX      0.156100
     28 C26         2.4300   -3.7070   -2.0260 c3        1 IHX      0.185800
     29 H1         -0.1820    0.8010   -1.4550 ha        1 IHX      0.136000
     30 H2          2.2740    0.5270   -1.1800 ha        1 IHX      0.142000
     31 H3         -1.7080    0.6050    0.5270 ha        1 IHX      0.151000
     32 H6          1.7300   -0.1240    3.0680 ha        1 IHX      0.137000
     33 H11         3.6790    1.6140    2.6220 ha        1 IHX      0.159000
     34 H19         6.5390   -3.5070   -1.4070 h4        1 IHX      0.041100
     35 H24         2.0800   -5.8580   -2.1820 h1        1 IHX      0.042950
     36 H24A        0.8090   -4.8000   -2.9510 h1        1 IHX      0.042950
     37 H27         4.3130   -2.8580   -3.9180 h1        1 IHX      0.055700
     38 H27A        5.6120   -3.9060   -3.1790 h1        1 IHX      0.055700
     39 HO13       -0.4560   -0.0570    3.7520 ho        1 IHX      0.419000
     40 H10         7.4920   -0.2290    1.7430 ha        1 IHX      0.171000
     41 H25         4.4090   -5.9440   -3.5960 h1        1 IHX      0.042950
     42 H25A        4.3650   -4.9410   -5.1190 h1        1 IHX      0.042950
     43 H28         2.2990   -7.1910   -4.3640 h1        1 IHX      0.035033
     44 H28A        0.9210   -6.1400   -4.9330 h1        1 IHX      0.035033
     45 H28B        2.4770   -6.1990   -5.8840 h1        1 IHX      0.035033
     46 H26         2.0440   -3.7900   -0.9710 h1        1 IHX      0.055700
     47 H26A        2.0010   -2.7720   -2.4870 h1        1 IHX      0.055700
@<TRIPOS>BOND
     1    1    2 ar  
     2    1    3 ar  
     3    1   29 1   
     4    2    4 ar  
     5    2   30 1   
     6    3    5 ar  
     7    3   31 1   
     8    4    6 ar  
     9    4    7 1   
    10    5    6 ar  
    11    5   20 1   
    12    6   32 1   
    13    7    8 ar  
    14    7    9 ar  
    15    8   22 ar  
    16    8   24 ar  
    17    9   10 ar  
    18    9   33 1   
    19   10   17 1   
    20   10   21 ar  
    21   11   12 ar  
    22   11   13 1   
    23   11   24 ar  
    24   12   23 ar  
    25   12   34 1   
    26   13   15 1   
    27   13   28 1   
    28   14   26 1   
    29   14   28 1   
    30   14   35 1   
    31   14   36 1   
    32   15   25 1   
    33   15   37 1   
    34   15   38 1   
    35   16   17 1   
    36   17   18 1   
    37   17   19 1   
    38   20   39 1   
    39   21   22 ar  
    40   21   40 1   
    41   22   23 ar  
    42   25   26 1   
    43   25   41 1   
    44   25   42 1   
    45   26   27 1   
    46   27   43 1   
    47   27   44 1   
    48   27   45 1   
    49   28   46 1   
    50   28   47 1   
@<TRIPOS>SUBSTRUCTURE
     1 IHX         1 TEMP              0 ****  ****    0 ROOT
