@<TRIPOS>MOLECULE
IHX
   47    50     1     0     0
SMALL
bcc


@<TRIPOS>ATOM
      1 C1         -0.1210    3.4470   -1.7670 ca        1 IHX     -0.098000
      2 C2          0.1980    2.1170   -1.5060 ca        1 IHX     -0.125000
      3 C3          0.3790    4.4690   -0.9630 ca        1 IHX     -0.205000
      4 C4          1.0300    1.7910   -0.4250 cp        1 IHX     -0.004000
      5 C5          1.2120    4.1390    0.1150 ca        1 IHX      0.120100
      6 C6          1.5460    2.8040    0.3900 ca        1 IHX     -0.144000
      7 C7          1.3950    0.3990   -0.1510 cp        1 IHX     -0.078300
      8 C8          0.3920   -0.6070    0.0660 ca        1 IHX      0.360300
      9 C11         2.7300    0.0500   -0.0900 ca        1 IHX     -0.072000
     10 C12         3.1260   -1.2800    0.1660 ca        1 IHX     -0.177300
     11 C18        -1.8470   -1.2390    0.2560 ca        1 IHX      0.539900
     12 C19        -1.3950   -2.6190    0.5190 ca        1 IHX      0.297900
     13 N22        -3.2310   -0.9650    0.3570 nh        1 IHX     -0.729300
     14 C24        -5.1290    0.6180    0.6630 c3        1 IHX      0.163300
     15 C27        -4.0950   -1.8150   -0.4530 c3        1 IHX      0.185800
     16 F17         5.2080   -1.2760    1.4260 f         1 IHX     -0.235300
     17 C14         4.6170   -1.5940    0.2270 c3        1 IHX      0.690200
     18 F15         4.9350   -2.9160    0.0360 f         1 IHX     -0.235300
     19 F16         5.3750   -0.9280   -0.7060 f         1 IHX     -0.235300
     20 O13         1.7490    5.0870    0.9570 oh        1 IHX     -0.497100
     21 C10         2.1980   -2.2750    0.3710 ca        1 IHX     -0.085300
     22 C9          0.8110   -1.9570    0.3290 ca        1 IHX      0.241300
     23 N21        -0.1290   -2.9550    0.5510 nb        1 IHX     -0.605000
     24 N20        -0.9460   -0.2700    0.0220 nb        1 IHX     -0.696000
     25 C25        -5.5870   -1.6210   -0.1140 c3        1 IHX      0.163300
     26 N23        -5.9950   -0.2250   -0.1480 n3        1 IHX     -0.733600
     27 C28        -7.3950   -0.0490    0.1670 c3        1 IHX      0.156100
     28 C26        -3.6330    0.4360    0.3370 c3        1 IHX      0.185800
     29 H1         -0.7750    3.6950   -2.6160 ha        1 IHX      0.135000
     30 H2         -0.2060    1.3200   -2.1470 ha        1 IHX      0.143000
     31 H3          0.1260    5.5180   -1.1690 ha        1 IHX      0.134000
     32 H6          2.2000    2.5710    1.2420 ha        1 IHX      0.154000
     33 H11         3.5090    0.8160   -0.2510 ha        1 IHX      0.161000
     34 H19        -2.1270   -3.4200    0.7230 h4        1 IHX      0.041100
     35 H24        -5.3920    1.6910    0.4480 h1        1 IHX      0.042700
     36 H24A       -5.2850    0.4370    1.7670 h1        1 IHX      0.042700
     37 H27        -3.9430   -1.6090   -1.5520 h1        1 IHX      0.055450
     38 H27A       -3.8430   -2.8940   -0.2600 h1        1 IHX      0.055450
     39 HO13        1.4440    5.9560    0.6590 ho        1 IHX      0.419000
     40 H10         2.5140   -3.3140    0.5670 ha        1 IHX      0.170000
     41 H25        -6.1840   -2.1750   -0.8910 h1        1 IHX      0.042700
     42 H25A       -5.7960   -2.0950    0.8900 h1        1 IHX      0.042700
     43 H28        -7.6590    1.0340    0.0380 h1        1 IHX      0.035033
     44 H28A       -8.0050   -0.6580   -0.5510 h1        1 IHX      0.035033
     45 H28B       -7.6590   -0.3590    1.2150 h1        1 IHX      0.035033
     46 H26        -3.0430    0.9880    1.1220 h1        1 IHX      0.055450
     47 H26A       -3.4170    0.9080   -0.6650 h1        1 IHX      0.055450
@<TRIPOS>BOND
     1    1    2 ar  
     2    1    3 ar  
     3    1   29 1   
     4    2    4 ar  
     5    2   30 1   
     6    3    5 ar  
     7    3   31 1   
     8    4    6 ar  
     9    4    7 1   
    10    5    6 ar  
    11    5   20 1   
    12    6   32 1   
    13    7    8 ar  
    14    7    9 ar  
    15    8   22 ar  
    16    8   24 ar  
    17    9   10 ar  
    18    9   33 1   
    19   10   17 1   
    20   10   21 ar  
    21   11   12 ar  
    22   11   13 1   
    23   11   24 ar  
    24   12   23 ar  
    25   12   34 1   
    26   13   15 1   
    27   13   28 1   
    28   14   26 1   
    29   14   28 1   
    30   14   35 1   
    31   14   36 1   
    32   15   25 1   
    33   15   37 1   
    34   15   38 1   
    35   16   17 1   
    36   17   18 1   
    37   17   19 1   
    38   20   39 1   
    39   21   22 ar  
    40   21   40 1   
    41   22   23 ar  
    42   25   26 1   
    43   25   41 1   
    44   25   42 1   
    45   26   27 1   
    46   27   43 1   
    47   27   44 1   
    48   27   45 1   
    49   28   46 1   
    50   28   47 1   
@<TRIPOS>SUBSTRUCTURE
     1 IHX         1 TEMP              0 ****  ****    0 ROOT
