@<TRIPOS>MOLECULE
IHZ
   48    50     1     0     0
SMALL
bcc


@<TRIPOS>ATOM
      1 FAE         1.1800   -0.4080    0.6940 f         1 IHZ     -0.227633
      2 CBD         2.2550   -0.0820   -0.0960 c3        1 IHZ      0.687200
      3 FAF         3.3210   -0.0600    0.7700 f         1 IHZ     -0.227633
      4 FAG         2.4630   -1.1940   -0.8720 f         1 IHZ     -0.227633
      5 CBB         2.0650    1.2120   -0.8870 ca        1 IHZ     -0.139300
      6 CAP         2.4080    2.4240   -0.2930 ca        1 IHZ     -0.112000
      7 CAK         1.5380    1.1640   -2.1790 ca        1 IHZ     -0.082000
      8 CAH         1.3530    2.3540   -2.8810 ca        1 IHZ     -0.114000
      9 CAI         1.6890    3.5790   -2.3100 ca        1 IHZ     -0.115000
     10 CAX         2.2200    3.6290   -1.0050 ca        1 IHZ      0.033600
     11 NAS         2.6040    4.8410   -0.3890 ns        1 IHZ     -0.433100
     12 CAV         2.0700    6.0800   -0.6300 c         1 IHZ      0.716700
     13 OAD         1.1750    6.2900   -1.4930 o         1 IHZ     -0.729100
     14 CAZ         2.5820    7.2280    0.1760 ca        1 IHZ     -0.147600
     15 CAQ         2.6760    8.4510   -0.4890 ca        1 IHZ     -0.131000
     16 CAL         2.8630    7.1540    1.5410 ca        1 IHZ     -0.102000
     17 CAJ         3.2060    8.3170    2.2300 ca        1 IHZ     -0.100000
     18 CAW         3.2070    9.5690    1.6080 ca        1 IHZ     -0.064300
     19 CAA         3.5280   10.7860    2.3880 c3        1 IHZ     -0.073800
     20 CBC         2.8920    9.6460    0.2250 ca        1 IHZ      0.130600
     21 NAT         2.7930   10.8800   -0.4460 nu        1 IHZ     -0.630000
     22 CAY         1.8180   11.0870   -1.4120 ca        1 IHZ      0.073300
     23 CAO         0.7690   10.1750   -1.6490 ca        1 IHZ     -0.152000
     24 CAM         1.8680   12.2420   -2.2730 ca        1 IHZ      0.426200
     25 NAR         1.0360   12.4310   -3.3000 nb        1 IHZ     -0.615000
     26 CAN         0.1090   11.4910   -3.5760 ca        1 IHZ      0.456200
     27 CBA        -0.0450   10.3360   -2.7800 ca        1 IHZ     -0.286900
     28 CAU        -1.0260    9.3310   -3.1710 c         1 IHZ      0.579700
     29 OAC        -2.0400    9.4530   -3.8420 o         1 IHZ     -0.413100
     30 NAB        -0.7220    7.9090   -2.7400 nz        1 IHZ     -0.752400
     31 HAP         2.8300    2.4210    0.7260 ha        1 IHZ      0.158000
     32 HAK         1.2790    0.1950   -2.6350 ha        1 IHZ      0.168000
     33 HAH         0.9440    2.3240   -3.9030 ha        1 IHZ      0.151000
     34 HAI         1.5390    4.5060   -2.8840 ha        1 IHZ      0.149000
     35 HNAS        3.2970    4.7630    0.3260 hn        1 IHZ      0.339500
     36 HAQ         2.5570    8.4630   -1.5860 ha        1 IHZ      0.145000
     37 HAL         2.8010    6.2000    2.0870 ha        1 IHZ      0.151000
     38 HAJ         3.4590    8.2520    3.3030 ha        1 IHZ      0.161000
     39 HAA         2.6750   11.5110    2.3600 hc        1 IHZ      0.062367
     40 HAAA        4.4380   11.2890    1.9720 hc        1 IHZ      0.062367
     41 HAAB        3.7330   10.5370    3.4590 hc        1 IHZ      0.062367
     42 HNAT        3.2230   11.6750   -0.0290 hn        1 IHZ      0.461800
     43 HAO         0.5770    9.3600   -0.9330 ha        1 IHZ      0.154000
     44 HAM         2.6200   13.0400   -2.1110 h4        1 IHZ      0.057100
     45 HAN        -0.5270   11.6740   -4.4640 h4        1 IHZ      0.063100
     46 HNAB       -1.3230    7.2480   -3.2430 hn        1 IHZ      0.475800
     47 HNAA        0.2670    7.6750   -2.9150 hn        1 IHZ      0.475800
     48 HAB3       -0.8770    7.7920   -1.7320 hn        1 IHZ      0.475800
@<TRIPOS>BOND
     1    1    2 1   
     2    2    3 1   
     3    2    4 1   
     4    2    5 1   
     5    5    6 ar  
     6    5    7 ar  
     7    6   10 ar  
     8    6   31 1   
     9    7    8 ar  
    10    7   32 1   
    11    8    9 ar  
    12    8   33 1   
    13    9   10 ar  
    14    9   34 1   
    15   10   11 1   
    16   11   12 1   
    17   11   35 1   
    18   12   13 2   
    19   12   14 1   
    20   14   15 ar  
    21   14   16 ar  
    22   15   20 ar  
    23   15   36 1   
    24   16   17 ar  
    25   16   37 1   
    26   17   18 ar  
    27   17   38 1   
    28   18   19 1   
    29   18   20 ar  
    30   19   39 1   
    31   19   40 1   
    32   19   41 1   
    33   20   21 1   
    34   21   22 1   
    35   21   42 1   
    36   22   23 ar  
    37   22   24 ar  
    38   23   27 ar  
    39   23   43 1   
    40   24   25 ar  
    41   24   44 1   
    42   25   26 ar  
    43   26   27 ar  
    44   26   45 1   
    45   27   28 1   
    46   28   29 2   
    47   28   30 1   
    48   30   46 1   
    49   30   47 1   
    50   30   48 1   
@<TRIPOS>SUBSTRUCTURE
     1 IHZ         1 TEMP              0 ****  ****    0 ROOT
