@<TRIPOS>MOLECULE
IHZ
   48    50     1     0     0
SMALL
bcc


@<TRIPOS>ATOM
      1 FAE         3.3790   -0.5830   -0.0620 f         1 IHZ     -0.227633
      2 CBD         3.4540    0.1860   -1.1970 c3        1 IHZ      0.687200
      3 FAF         4.7630    0.5970   -1.2440 f         1 IHZ     -0.227633
      4 FAG         3.3370   -0.7100   -2.2300 f         1 IHZ     -0.227633
      5 CBB         2.4380    1.3270   -1.2350 ca        1 IHZ     -0.140300
      6 CAP         2.7660    2.5430   -0.6400 ca        1 IHZ     -0.112000
      7 CAK         1.2000    1.1340   -1.8490 ca        1 IHZ     -0.082000
      8 CAH         0.2780    2.1790   -1.8610 ca        1 IHZ     -0.115000
      9 CAI         0.5790    3.4030   -1.2700 ca        1 IHZ     -0.115000
     10 CAX         1.8300    3.6010   -0.6520 ca        1 IHZ      0.031600
     11 NAS         2.1720    4.8130   -0.0110 n         1 IHZ     -0.433100
     12 CAV         1.7190    6.0610   -0.3500 c         1 IHZ      0.716700
     13 OAD         0.9040    6.2720   -1.2880 o         1 IHZ     -0.728100
     14 CAZ         2.2210    7.2200    0.4480 ca        1 IHZ     -0.148600
     15 CAQ         2.5110    8.3800   -0.2690 ca        1 IHZ     -0.135000
     16 CAL         2.3090    7.2160    1.8400 ca        1 IHZ     -0.102000
     17 CAJ         2.6540    8.3950    2.5020 ca        1 IHZ     -0.100000
     18 CAW         2.8470    9.5970    1.8140 ca        1 IHZ     -0.065300
     19 CAA         3.1620   10.8370    2.5600 c3        1 IHZ     -0.073800
     20 CBC         2.7330    9.6020    0.3990 ca        1 IHZ      0.133600
     21 NAT         2.8370   10.7900   -0.3490 nh        1 IHZ     -0.632000
     22 CAY         2.0510   10.9980   -1.4740 ca        1 IHZ      0.074300
     23 CAO         0.9740   10.1580   -1.8200 ca        1 IHZ     -0.152000
     24 CAM         2.3430   12.0750   -2.3870 ca        1 IHZ      0.425200
     25 NAR         1.7040   12.2490   -3.5460 nb        1 IHZ     -0.615000
     26 CAN         0.7520   11.3660   -3.9110 ca        1 IHZ      0.456200
     27 CBA         0.3690   10.2930   -3.0790 ca        1 IHZ     -0.286900
     28 CAU        -0.6230    9.3390   -3.5610 c         1 IHZ      0.580700
     29 OAC        -1.5090    9.4890   -4.3890 o         1 IHZ     -0.413100
     30 NAB        -0.5080    7.9320   -3.0080 n4        1 IHZ     -0.752400
     31 HAP         3.7560    2.6600   -0.1680 ha        1 IHZ      0.159000
     32 HAK         0.9600    0.1660   -2.3180 ha        1 IHZ      0.168000
     33 HAH        -0.7040    2.0330   -2.3390 ha        1 IHZ      0.151000
     34 HAI        -0.1650    4.2150   -1.2870 ha        1 IHZ      0.149000
     35 HNAS        2.8790    4.7500    0.6910 hn        1 IHZ      0.340500
     36 HAQ         2.5470    8.3240   -1.3690 ha        1 IHZ      0.143000
     37 HAL         2.0940    6.3060    2.4220 ha        1 IHZ      0.154000
     38 HAJ         2.7520    8.3850    3.6010 ha        1 IHZ      0.161000
     39 HAA         3.1950   10.6480    3.6620 hc        1 IHZ      0.062367
     40 HAAA        4.1610   11.2380    2.2500 hc        1 IHZ      0.062367
     41 HAAB        2.3880   11.6220    2.3680 hc        1 IHZ      0.062367
     42 HNAT        3.2750   11.5760    0.0770 hn        1 IHZ      0.462800
     43 HAO         0.5940    9.4220   -1.0940 ha        1 IHZ      0.155000
     44 HAM         3.1280   12.8210   -2.1540 h4        1 IHZ      0.057100
     45 HAN         0.2860   11.5280   -4.9030 h4        1 IHZ      0.063100
     46 HNAB       -1.0850    7.2850   -3.5560 hn        1 IHZ      0.475133
     47 HNAA       -0.8140    7.8970   -2.0280 hn        1 IHZ      0.475133
     48 HAB3        0.4700    7.6090   -3.0190 hn        1 IHZ      0.475133
@<TRIPOS>BOND
     1    1    2 1   
     2    2    3 1   
     3    2    4 1   
     4    2    5 1   
     5    5    6 ar  
     6    5    7 ar  
     7    6   10 ar  
     8    6   31 1   
     9    7    8 ar  
    10    7   32 1   
    11    8    9 ar  
    12    8   33 1   
    13    9   10 ar  
    14    9   34 1   
    15   10   11 1   
    16   11   12 1   
    17   11   35 1   
    18   12   13 2   
    19   12   14 1   
    20   14   15 ar  
    21   14   16 ar  
    22   15   20 ar  
    23   15   36 1   
    24   16   17 ar  
    25   16   37 1   
    26   17   18 ar  
    27   17   38 1   
    28   18   19 1   
    29   18   20 ar  
    30   19   39 1   
    31   19   40 1   
    32   19   41 1   
    33   20   21 1   
    34   21   22 1   
    35   21   42 1   
    36   22   23 ar  
    37   22   24 ar  
    38   23   27 ar  
    39   23   43 1   
    40   24   25 ar  
    41   24   44 1   
    42   25   26 ar  
    43   26   27 ar  
    44   26   45 1   
    45   27   28 1   
    46   28   29 2   
    47   28   30 1   
    48   30   46 1   
    49   30   47 1   
    50   30   48 1   
@<TRIPOS>SUBSTRUCTURE
     1 IHZ         1 TEMP              0 ****  ****    0 ROOT
