@<TRIPOS>MOLECULE
IHZ
   47    43     1     0     0
SMALL
bcc


@<TRIPOS>ATOM
      1 FAE         0.4490    0.5570    8.6350 f         1 IHZ     -0.166333
      2 CBD         1.2860    0.6500    7.5940 c3        1 IHZ      0.465000
      3 FAF         2.1980    1.6000    7.8380 f         1 IHZ     -0.166333
      4 FAG         1.9020   -0.5240    7.4100 f         1 IHZ     -0.166333
      5 CBB         0.5040    1.0100    6.3480 c2        1 IHZ     -0.131000
      6 CAP         1.1100    0.9330    5.1040 c1        1 IHZ     -0.144000
      7 CAK        -0.8320    1.3680    6.4480 c2        1 IHZ     -0.112000
      8 CAH        -1.5610    1.6490    5.3040 c1        1 IHZ     -0.108000
      9 CAI        -0.9560    1.5720    4.0590 c1        1 IHZ     -0.129000
     10 CAX         0.3800    1.2140    3.9590 c1        1 IHZ      0.079000
     11 NAS         1.0000    1.1370    2.6840 n         1 IHZ     -0.323000
     12 CAV         0.6440    0.0980    1.7830 c2        1 IHZ      0.357000
     13 OAD        -0.1910   -0.7240    2.1020 o         1 IHZ     -0.337000
     14 CAZ         1.3120    0.0110    0.4270 c2        1 IHZ     -0.112000
     15 CAQ         0.5880    0.3000   -0.7200 c2        1 IHZ     -0.099000
     16 CAL         2.6180   -0.4380    0.3270 c1        1 IHZ     -0.122000
     17 CAJ         3.2030   -0.5980   -0.9200 c1        1 IHZ     -0.112000
     18 CAW         2.4810   -0.3090   -2.0660 c1        1 IHZ     -0.085000
     19 CAA         3.1370   -0.4310   -3.4250 c2        1 IHZ     -0.190000
     20 CBC         1.1730    0.1400   -1.9670 c2        1 IHZ      0.046000
     21 NAT         0.4220    0.4010   -3.1420 n3        1 IHZ     -0.249000
     22 CAY        -0.6540   -0.4530   -3.5000 c2        1 IHZ      0.011000
     23 CAO        -1.5690   -0.0460   -4.4270 c2        1 IHZ     -0.099000
     24 CAM        -0.7490   -1.7190   -2.9440 c1        1 IHZ     -0.098000
     25 NAR        -1.7550   -2.5570   -3.3220 n1        1 IHZ     -0.111000
     26 CAN        -2.6690   -2.1510   -4.2480 c1        1 IHZ     -0.082000
     27 CBA        -2.5760   -0.8850   -4.8060 c1        1 IHZ     -0.139000
     28 CAU        -3.5840   -0.4400   -5.8430 c2        1 IHZ      0.349000
     29 OAC        -3.4960    0.6650   -6.3390 o         1 IHZ     -0.371000
     30 NAB        -4.6570   -1.2960   -6.2030 n         1 IHZ     -0.429000
     31 HAP         2.0490    0.6810    5.0330 ha        1 IHZ      0.147000
     32 HAK        -1.2580    1.4220    7.3240 ha        1 IHZ      0.153000
     33 HAH        -2.5010    1.9010    5.3740 ha        1 IHZ      0.146000
     34 HAI        -1.4700    1.7700    3.2530 ha        1 IHZ      0.181000
     35 HNAS        1.6300    1.7520    2.4450 hn        1 IHZ      0.237000
     36 HAQ        -0.3330    0.6160   -0.6500 ha        1 IHZ      0.166000
     37 HAL         3.1270   -0.6420    1.1340 ha        1 IHZ      0.142000
     38 HAJ         4.1230   -0.9140   -0.9900 ha        1 IHZ      0.142000
     39 HAA         4.1060   -0.3280   -3.3290 ha        1 IHZ      0.091000
     40 HAAA        2.9380   -1.3110   -3.8060 ha        1 IHZ      0.091000
     41 HAAB        2.7920    0.2680   -4.0180 ha        1 IHZ      0.091000
     42 HNAT        0.6470    1.1010   -3.6810 hn        1 IHZ      0.221000
     43 HAO        -1.5030    0.8450   -4.8190 ha        1 IHZ      0.165000
     44 HAM        -0.0950   -2.0110   -2.2810 ha        1 IHZ      0.178000
     45 HAN        -3.3890   -2.7520   -4.5180 ha        1 IHZ      0.163000
     46 HNAB       -4.8730   -2.0080   -5.6710 hn        1 IHZ      0.229000
     47 HNAA       -5.1490   -1.1220   -6.9520 hn        1 IHZ      0.229000
@<TRIPOS>BOND
     1    1    2 1   
     2    2    3 1   
     3    2    4 1   
     4    2    5 1   
     5    5    6 1   
     6    5    7 1   
     7    6   31 1   
     8    7    8 1   
     9    7   32 1   
    10    8   33 1   
    11    9   10 1   
    12    9   34 1   
    13   10   11 1   
    14   11   12 1   
    15   11   35 1   
    16   12   13 1   
    17   12   14 1   
    18   14   15 1   
    19   14   16 1   
    20   15   20 1   
    21   15   36 1   
    22   16   37 1   
    23   17   18 1   
    24   17   38 1   
    25   18   20 1   
    26   19   39 1   
    27   19   40 1   
    28   19   41 1   
    29   20   21 1   
    30   21   22 1   
    31   21   42 1   
    32   22   23 1   
    33   22   24 1   
    34   23   27 1   
    35   23   43 1   
    36   24   44 1   
    37   25   26 1   
    38   26   45 1   
    39   27   28 1   
    40   28   29 1   
    41   28   30 1   
    42   30   46 1   
    43   30   47 1   
@<TRIPOS>SUBSTRUCTURE
     1 IHZ         1 TEMP              0 ****  ****    0 ROOT
