@<TRIPOS>MOLECULE
IHZ
   50    52     1     0     0
SMALL
bcc


@<TRIPOS>ATOM
      1 FAE         1.6580    3.2100    2.2390 f         1 IHZ     -0.213633
      2 CBD         2.3610    2.0460    2.0220 c3        1 IHZ      0.693200
      3 FAF         3.2430    1.9780    3.0670 f         1 IHZ     -0.213633
      4 FAG         1.4590    1.0400    2.2250 f         1 IHZ     -0.213633
      5 CBB         3.0380    2.0210    0.6450 ca        1 IHZ     -0.147300
      6 CAP         3.6630    3.1840    0.2020 ca        1 IHZ     -0.076000
      7 CAK         3.0310    0.8640   -0.1390 ca        1 IHZ     -0.007000
      8 CAH         3.6450    0.8820   -1.3950 ca        1 IHZ     -0.091000
      9 CAI         4.2590    2.0380   -1.8730 ca        1 IHZ     -0.062000
     10 CAX         4.2660    3.1930   -1.0660 ca        1 IHZ     -0.081400
     11 NAS         4.9450    4.4080   -1.5370 n4        1 IHZ     -0.525200
     12 CAV         3.9670    5.4870   -1.9350 c         1 IHZ      0.559700
     13 OAD         3.6950    5.5390   -3.1280 o         1 IHZ     -0.392100
     14 CAZ         3.4140    6.3790   -0.8970 ca        1 IHZ     -0.161600
     15 CAQ         2.1870    6.9930   -1.1960 ca        1 IHZ     -0.024000
     16 CAL         4.0610    6.6680    0.3130 ca        1 IHZ     -0.031000
     17 CAJ         3.4780    7.5470    1.2220 ca        1 IHZ     -0.099000
     18 CAW         2.2440    8.1610    0.9640 ca        1 IHZ      0.028700
     19 CAA         1.6460    9.0570    1.9790 c3        1 IHZ     -0.118800
     20 CBC         1.6050    7.8750   -0.2680 ca        1 IHZ     -0.078400
     21 NAT         0.2760    8.4400   -0.5530 n4        1 IHZ     -0.492800
     22 CAY         0.2700    9.6930   -1.3150 ca        1 IHZ     -0.183700
     23 CAO        -0.8780   10.0670   -2.0390 ca        1 IHZ      0.015000
     24 CAM         1.3900   10.5720   -1.3170 ca        1 IHZ      0.516200
     25 NAR         1.3880   11.7370   -1.9820 nb        1 IHZ     -0.593000
     26 CAN         0.2900   12.0990   -2.6680 ca        1 IHZ      0.506200
     27 CBA        -0.8750   11.2990   -2.7240 ca        1 IHZ     -0.292900
     28 CAU        -2.0940   11.6460   -3.4680 c         1 IHZ      0.561700
     29 OAC        -3.0510   10.9120   -3.6670 o         1 IHZ     -0.365100
     30 NAB        -2.2190   13.0300   -4.0460 n4        1 IHZ     -0.749400
     31 HAP         3.6740    4.0720    0.8570 ha        1 IHZ      0.151000
     32 HAK         2.5430   -0.0580    0.2340 ha        1 IHZ      0.207000
     33 HAH         3.6480   -0.0340   -2.0170 ha        1 IHZ      0.201000
     34 HAI         4.7330    2.0230   -2.8710 ha        1 IHZ      0.178000
     35 HNAS        5.5130    4.1620   -2.3680 hn        1 IHZ      0.479300
     36 HAQ         1.7000    6.7670   -2.1640 ha        1 IHZ      0.186000
     37 HAL         5.0400    6.2290    0.5750 ha        1 IHZ      0.174000
     38 HAJ         3.9970    7.7640    2.1780 ha        1 IHZ      0.210000
     39 HAA         2.3770    9.2840    2.8010 hc        1 IHZ      0.094700
     40 HAAA        1.3350   10.0350    1.5320 hc        1 IHZ      0.094700
     41 HAAB        0.7570    8.5690    2.4610 hc        1 IHZ      0.094700
     42 HNAT       -0.2730    7.7340   -1.0720 hn        1 IHZ      0.480300
     43 HAO        -1.7820    9.4260   -2.0850 ha        1 IHZ      0.201000
     44 HAM         2.3260   10.3380   -0.7640 h4        1 IHZ      0.080100
     45 HAN         0.3860   13.0760   -3.1880 h4        1 IHZ      0.067100
     46 HNAB       -2.1200   13.7420   -3.3120 hn        1 IHZ      0.490800
     47 HNAA       -3.1540   13.1330   -4.4820 hn        1 IHZ      0.490800
     48 HAS2        5.5740    4.7450   -0.7980 hn        1 IHZ      0.479300
     49 HAT2       -0.1960    8.6170    0.3540 hn        1 IHZ      0.480300
     50 HAB3       -1.5060   13.1870   -4.7690 hn        1 IHZ      0.490800
@<TRIPOS>BOND
     1    1    2 1   
     2    2    3 1   
     3    2    4 1   
     4    2    5 1   
     5    5    6 ar  
     6    5    7 ar  
     7    6   10 ar  
     8    6   31 1   
     9    7    8 ar  
    10    7   32 1   
    11    8    9 ar  
    12    8   33 1   
    13    9   10 ar  
    14    9   34 1   
    15   10   11 1   
    16   11   12 1   
    17   11   35 1   
    18   11   48 1   
    19   12   13 2   
    20   12   14 1   
    21   14   15 ar  
    22   14   16 ar  
    23   15   20 ar  
    24   15   36 1   
    25   16   17 ar  
    26   16   37 1   
    27   17   18 ar  
    28   17   38 1   
    29   18   19 1   
    30   18   20 ar  
    31   19   39 1   
    32   19   40 1   
    33   19   41 1   
    34   20   21 1   
    35   21   22 1   
    36   21   42 1   
    37   21   49 1   
    38   22   23 ar  
    39   22   24 ar  
    40   23   27 ar  
    41   23   43 1   
    42   24   25 ar  
    43   24   44 1   
    44   25   26 ar  
    45   26   27 ar  
    46   26   45 1   
    47   27   28 1   
    48   28   29 2   
    49   28   30 1   
    50   30   46 1   
    51   30   47 1   
    52   30   50 1   
@<TRIPOS>SUBSTRUCTURE
     1 IHZ         1 TEMP              0 ****  ****    0 ROOT
