@<TRIPOS>MOLECULE
IHZ
   47    49     1     0     0
SMALL
bcc


@<TRIPOS>ATOM
      1 FAE        -6.1230   -1.1670   -1.8480 f         1 IHZ     -0.237300
      2 CBD        -6.1550   -0.2190   -0.8530 c3        1 IHZ      0.686200
      3 FAF        -6.2240    0.9740   -1.5330 f         1 IHZ     -0.237300
      4 FAG        -7.4040   -0.3590   -0.2980 f         1 IHZ     -0.237300
      5 CBB        -5.0030   -0.3180    0.1420 ca        1 IHZ     -0.138300
      6 CAP        -3.8170    0.3600   -0.1260 ca        1 IHZ     -0.143000
      7 CAK        -5.1480   -1.0960    1.2900 ca        1 IHZ     -0.112000
      8 CAH        -4.0810   -1.1880    2.1800 ca        1 IHZ     -0.108000
      9 CAI        -2.8840   -0.5190    1.9410 ca        1 IHZ     -0.130000
     10 CAX        -2.7310    0.2700    0.7790 ca        1 IHZ      0.072600
     11 NAS        -1.5620    0.9870    0.4830 n         1 IHZ     -0.469100
     12 CAV        -0.3360    0.9040    1.1340 c         1 IHZ      0.683700
     13 OAD        -0.1310    0.1480    2.1000 o         1 IHZ     -0.580100
     14 CAZ         0.7440    1.7810    0.5890 ca        1 IHZ     -0.121600
     15 CAQ         2.0240    1.2370    0.4710 ca        1 IHZ     -0.128000
     16 CAL         0.5040    3.1120    0.2450 ca        1 IHZ     -0.131000
     17 CAJ         1.5570    3.8950   -0.2230 ca        1 IHZ     -0.108000
     18 CAW         2.8440    3.3740   -0.3710 ca        1 IHZ     -0.089300
     19 CAA         3.9310    4.2430   -0.8790 c3        1 IHZ     -0.057800
     20 CBC         3.0890    2.0150   -0.0270 ca        1 IHZ      0.141600
     21 NAT         4.3810    1.4920   -0.2170 nh        1 IHZ     -0.620000
     22 CAY         4.6810    0.1330   -0.0590 ca        1 IHZ      0.022300
     23 CAO         3.9080   -0.8850   -0.6610 ca        1 IHZ     -0.077000
     24 CAM         5.8630   -0.2720    0.6330 ca        1 IHZ      0.365200
     25 NAR         6.2670   -1.5470    0.7330 nb        1 IHZ     -0.643000
     26 CAN         5.5070   -2.5010    0.1660 ca        1 IHZ      0.392200
     27 CBA         4.3190   -2.2150   -0.5340 ca        1 IHZ     -0.228900
     28 CAU         3.4960   -3.2750   -1.1790 c         1 IHZ      0.673700
     29 OAC         2.8700   -3.0660   -2.2380 o         1 IHZ     -0.603100
     30 NAB         3.4350   -4.5070   -0.5750 n         1 IHZ     -0.669000
     31 HAP        -3.7430    0.9650   -1.0440 ha        1 IHZ      0.148000
     32 HAK        -6.0950   -1.6220    1.4870 ha        1 IHZ      0.153000
     33 HAH        -4.1820   -1.7990    3.0910 ha        1 IHZ      0.145000
     34 HAI        -2.0590   -0.6150    2.6670 ha        1 IHZ      0.179000
     35 HNAS       -1.6030    1.5620   -0.3310 hn        1 IHZ      0.324500
     36 HAQ         2.1860    0.1950    0.7930 ha        1 IHZ      0.162000
     37 HAL        -0.4950    3.5570    0.3600 ha        1 IHZ      0.141000
     38 HAJ         1.3710    4.9490   -0.4850 ha        1 IHZ      0.141000
     39 HAA         4.7280    4.3700   -0.1020 hc        1 IHZ      0.050367
     40 HAAA        4.3970    3.7970   -1.7930 hc        1 IHZ      0.050367
     41 HAAB        3.5450    5.2580   -1.1450 hc        1 IHZ      0.050367
     42 HNAT        5.1170    2.1150    0.0440 hn        1 IHZ      0.426800
     43 HAO         3.0010   -0.6490   -1.2430 ha        1 IHZ      0.174000
     44 HAM         6.5220    0.4710    1.1190 h4        1 IHZ      0.025100
     45 HAN         5.8880   -3.5330    0.2680 h4        1 IHZ      0.028100
     46 HNAB        3.8460   -4.6650    0.3080 hn        1 IHZ      0.315500
     47 HNAA        2.8620   -5.2110   -0.9700 hn        1 IHZ      0.315500
@<TRIPOS>BOND
     1    1    2 1   
     2    2    3 1   
     3    2    4 1   
     4    2    5 1   
     5    5    6 ar  
     6    5    7 ar  
     7    6   10 ar  
     8    6   31 1   
     9    7    8 ar  
    10    7   32 1   
    11    8    9 ar  
    12    8   33 1   
    13    9   10 ar  
    14    9   34 1   
    15   10   11 1   
    16   11   12 1   
    17   11   35 1   
    18   12   13 2   
    19   12   14 1   
    20   14   15 ar  
    21   14   16 ar  
    22   15   20 ar  
    23   15   36 1   
    24   16   17 ar  
    25   16   37 1   
    26   17   18 ar  
    27   17   38 1   
    28   18   19 1   
    29   18   20 ar  
    30   19   39 1   
    31   19   40 1   
    32   19   41 1   
    33   20   21 1   
    34   21   22 1   
    35   21   42 1   
    36   22   23 ar  
    37   22   24 ar  
    38   23   27 ar  
    39   23   43 1   
    40   24   25 ar  
    41   24   44 1   
    42   25   26 ar  
    43   26   27 ar  
    44   26   45 1   
    45   27   28 1   
    46   28   29 2   
    47   28   30 1   
    48   30   46 1   
    49   30   47 1   
@<TRIPOS>SUBSTRUCTURE
     1 IHZ         1 TEMP              0 ****  ****    0 ROOT
