@<TRIPOS>MOLECULE
II2
   41    44     1     0     0
SMALL
bcc


@<TRIPOS>ATOM
      1 O1          0.1810   -0.8800    0.0580 o         1 II2     -0.565500
      2 C7          1.3070   -0.3840    0.1440 c         1 II2      0.726100
      3 C6          2.1140   -0.1810    1.3930 ca        1 II2     -0.093600
      4 C5          1.8170   -0.4870    2.6960 ca        1 II2     -0.133000
      5 C4          2.7910   -0.1740    3.6990 ca        1 II2      0.185600
      6 N1          2.5640   -0.5410    5.0150 nh        1 II2     -0.839200
      7 C3          4.0040    0.4440    3.3180 ca        1 II2     -0.209000
      8 C2          4.2850    0.7430    1.9800 ca        1 II2     -0.011000
      9 C1          3.3420    0.4310    1.0230 ca        1 II2     -0.201600
     10 N2          2.0930    0.1140   -0.9390 n         1 II2     -0.428600
     11 C20         3.3440    0.6220   -0.4560 c         1 II2      0.738100
     12 O2          4.2320    1.1170   -1.1510 o         1 II2     -0.570500
     13 C8          1.6960    0.1040   -2.2930 ca        1 II2      0.044600
     14 C9          2.6540    0.0280   -3.3260 ca        1 II2     -0.124000
     15 C10         2.2520    0.0250   -4.6570 ca        1 II2     -0.119000
     16 C11         0.9020    0.0890   -5.0050 ca        1 II2     -0.026100
     17 C18        -0.0520    0.1600   -3.9790 ca        1 II2     -0.119000
     18 C19         0.3280    0.1700   -2.6450 ca        1 II2     -0.124000
     19 S           0.2720    0.0700   -6.5770 ss        1 II2     -0.104800
     20 C12         1.5880    0.1130   -7.6510 ca        1 II2     -0.105100
     21 C13         1.6870   -0.9060   -8.6060 ca        1 II2     -0.044500
     22 C14         2.6580   -0.8720   -9.5950 ca        1 II2     -0.208500
     23 C15         3.5860    0.1970   -9.6500 ca        1 II2      0.174600
     24 N3          4.5150    0.2830  -10.6830 nh        1 II2     -0.829200
     25 C16         3.4960    1.2150   -8.6680 ca        1 II2     -0.208500
     26 C17         2.5050    1.1680   -7.6990 ca        1 II2     -0.044500
     27 H5          0.8620   -0.9660    2.9610 ha        1 II2      0.159000
     28 H11N        1.6230   -0.7240    5.2720 hn        1 II2      0.413300
     29 H12N        3.1200   -0.0940    5.7050 hn        1 II2      0.413300
     30 H3          4.7570    0.6910    4.0830 ha        1 II2      0.142000
     31 H2          5.2390    1.2190    1.7040 ha        1 II2      0.157000
     32 H9          3.7300   -0.0140   -3.0900 ha        1 II2      0.157000
     33 H19        -0.4490    0.2150   -1.8650 ha        1 II2      0.157000
     34 H10         3.0190   -0.0320   -5.4470 ha        1 II2      0.142500
     35 H18        -1.1230    0.2100   -4.2360 ha        1 II2      0.142500
     36 H13         0.9770   -1.7500   -8.5710 ha        1 II2      0.143500
     37 H17         2.4410    1.9770   -6.9520 ha        1 II2      0.143500
     38 H14         2.7020   -1.6800  -10.3400 ha        1 II2      0.135500
     39 H31N        4.7280   -0.5730  -11.1400 hn        1 II2      0.399800
     40 H32N        5.3030    0.8620  -10.5030 hn        1 II2      0.399800
     41 H16         4.2040    2.0570   -8.6790 ha        1 II2      0.135500
@<TRIPOS>BOND
     1    1    2 2   
     2    2    3 1   
     3    2   10 1   
     4    3    4 ar  
     5    3    9 ar  
     6    4    5 ar  
     7    4   27 1   
     8    5    6 1   
     9    5    7 ar  
    10    6   28 1   
    11    6   29 1   
    12    7    8 ar  
    13    7   30 1   
    14    8    9 ar  
    15    8   31 1   
    16    9   11 1   
    17   10   11 1   
    18   10   13 1   
    19   11   12 2   
    20   13   14 ar  
    21   13   18 ar  
    22   14   15 ar  
    23   14   32 1   
    24   15   16 ar  
    25   15   34 1   
    26   16   17 ar  
    27   16   19 1   
    28   17   18 ar  
    29   17   35 1   
    30   18   33 1   
    31   19   20 1   
    32   20   21 ar  
    33   20   26 ar  
    34   21   22 ar  
    35   21   36 1   
    36   22   23 ar  
    37   22   38 1   
    38   23   24 1   
    39   23   25 ar  
    40   24   39 1   
    41   24   40 1   
    42   25   26 ar  
    43   25   41 1   
    44   26   37 1   
@<TRIPOS>SUBSTRUCTURE
     1 II2         1 TEMP              0 ****  ****    0 ROOT
