@<TRIPOS>MOLECULE
II2
   41    44     1     0     0
SMALL
bcc


@<TRIPOS>ATOM
      1 O1          0.1890   -0.8900    0.0610 o         1 II2     -0.565500
      2 C7          1.3100   -0.3870    0.1460 c         1 II2      0.726100
      3 C6          2.1170   -0.1750    1.3940 ca        1 II2     -0.093600
      4 C5          1.8210   -0.4800    2.6980 ca        1 II2     -0.133000
      5 C4          2.7930   -0.1580    3.6990 ca        1 II2      0.185600
      6 N1          2.5690   -0.5240    5.0170 nv        1 II2     -0.839200
      7 C3          4.0030    0.4670    3.3170 ca        1 II2     -0.209000
      8 C2          4.2820    0.7640    1.9790 ca        1 II2     -0.011000
      9 C1          3.3400    0.4440    1.0230 ca        1 II2     -0.201600
     10 N2          2.0930    0.1140   -0.9380 n         1 II2     -0.428600
     11 C20         3.3410    0.6310   -0.4570 c         1 II2      0.738100
     12 O2          4.2260    1.1310   -1.1540 o         1 II2     -0.570500
     13 C8          1.6960    0.0980   -2.2930 ca        1 II2      0.044600
     14 C9          2.6550    0.0260   -3.3250 ca        1 II2     -0.124000
     15 C10         2.2530    0.0170   -4.6570 ca        1 II2     -0.119000
     16 C11         0.9020    0.0720   -5.0050 ca        1 II2     -0.026100
     17 C18        -0.0520    0.1390   -3.9790 ca        1 II2     -0.119000
     18 C19         0.3280    0.1550   -2.6450 ca        1 II2     -0.124000
     19 S           0.2730    0.0450   -6.5770 ss        1 II2     -0.104800
     20 C12         1.5880    0.0970   -7.6510 ca        1 II2     -0.105100
     21 C13         1.6920   -0.9210   -8.6060 ca        1 II2     -0.044500
     22 C14         2.6630   -0.8800   -9.5960 ca        1 II2     -0.208500
     23 C15         3.5840    0.1950   -9.6510 ca        1 II2      0.174600
     24 N3          4.5110    0.2880  -10.6850 nv        1 II2     -0.829200
     25 C16         3.4880    1.2120   -8.6690 ca        1 II2     -0.208500
     26 C17         2.4980    1.1590   -7.6990 ca        1 II2     -0.044500
     27 H5          0.8700   -0.9650    2.9640 ha        1 II2      0.159000
     28 H11N        3.1220   -0.0710    5.7060 hn        1 II2      0.413300
     29 H12N        1.6290   -0.7120    5.2740 hn        1 II2      0.413300
     30 H3          4.7530    0.7210    4.0810 ha        1 II2      0.142000
     31 H2          5.2320    1.2460    1.7010 ha        1 II2      0.157000
     32 H9          3.7310   -0.0080   -3.0900 ha        1 II2      0.157000
     33 H19        -0.4490    0.1960   -1.8650 ha        1 II2      0.157000
     34 H10         3.0200   -0.0370   -5.4460 ha        1 II2      0.142500
     35 H18        -1.1230    0.1820   -4.2360 ha        1 II2      0.142500
     36 H13         0.9880   -1.7690   -8.5720 ha        1 II2      0.143500
     37 H17         2.4290    1.9660   -6.9520 ha        1 II2      0.143500
     38 H14         2.7110   -1.6870  -10.3410 ha        1 II2      0.135500
     39 H31N        5.2960    0.8710  -10.5050 hn        1 II2      0.399800
     40 H32N        4.7300   -0.5670  -11.1420 hn        1 II2      0.399800
     41 H16         4.1910    2.0590   -8.6790 ha        1 II2      0.135500
@<TRIPOS>BOND
     1    1    2 2   
     2    2    3 1   
     3    2   10 1   
     4    3    4 ar  
     5    3    9 ar  
     6    4    5 ar  
     7    4   27 1   
     8    5    6 1   
     9    5    7 ar  
    10    6   28 1   
    11    6   29 1   
    12    7    8 ar  
    13    7   30 1   
    14    8    9 ar  
    15    8   31 1   
    16    9   11 1   
    17   10   11 1   
    18   10   13 1   
    19   11   12 2   
    20   13   14 ar  
    21   13   18 ar  
    22   14   15 ar  
    23   14   32 1   
    24   15   16 ar  
    25   15   34 1   
    26   16   17 ar  
    27   16   19 1   
    28   17   18 ar  
    29   17   35 1   
    30   18   33 1   
    31   19   20 1   
    32   20   21 ar  
    33   20   26 ar  
    34   21   22 ar  
    35   21   36 1   
    36   22   23 ar  
    37   22   38 1   
    38   23   24 1   
    39   23   25 ar  
    40   24   39 1   
    41   24   40 1   
    42   25   26 ar  
    43   25   41 1   
    44   26   37 1   
@<TRIPOS>SUBSTRUCTURE
     1 II2         1 TEMP              0 ****  ****    0 ROOT
