@<TRIPOS>MOLECULE
II2
   41    37     1     0     0
SMALL
bcc


@<TRIPOS>ATOM
      1 O1          0.4870    3.3540    2.2630 o         1 II2     -0.290000
      2 C7          0.7240    2.2070    2.5850 c1        1 II2      0.363000
      3 C6          1.2120    1.7420    3.9520 c1        1 II2     -0.073000
      4 C5          1.4990    2.4400    5.1320 c2        1 II2     -0.133000
      5 C4          1.9210    1.7520    6.2590 c1        1 II2      0.104000
      6 N1          2.3280    2.4320    7.4360 n2        1 II2     -0.348000
      7 C3          2.0580    0.3720    6.2180 c2        1 II2     -0.209000
      8 C2          1.7740   -0.3180    5.0500 c1        1 II2     -0.012000
      9 C1          1.3490    0.3770    3.9110 c1        1 II2     -0.181000
     10 N2          0.5810    1.0540    1.7510 n         1 II2     -0.302000
     11 C20         0.9530   -0.0940    2.5170 c2        1 II2      0.375000
     12 O2          0.9380   -1.2450    2.1300 o         1 II2     -0.294000
     13 C8          0.1510    1.0510    0.3990 c2        1 II2      0.052000
     14 C9          1.0820    0.9750   -0.6240 c2        1 II2     -0.123000
     15 C10         0.6620    0.9550   -1.9440 c1        1 II2     -0.126000
     16 C11        -0.6910    1.0110   -2.2420 c1        1 II2     -0.253000
     17 C18        -1.6230    1.0880   -1.2180 c1        1 II2     -0.113000
     18 C19        -1.2020    1.1080    0.1020 c1        1 II2     -0.125000
     19 S          -1.2250    1.0710   -3.9320 ss        1 II2      0.348000
     20 C12        -1.4480   -0.5800   -4.5400 c2        1 II2     -0.333000
     21 C13        -0.4230   -1.2080   -5.2300 c2        1 II2     -0.046000
     22 C14        -0.6110   -2.4820   -5.7400 c1        1 II2     -0.210000
     23 C15        -1.8240   -3.1290   -5.5610 c1        1 II2      0.095000
     24 N3         -1.9930   -4.4580   -6.0250 n3        1 II2     -0.339000
     25 C16        -2.8490   -2.5010   -4.8710 c1        1 II2     -0.210000
     26 C17        -2.6600   -1.2260   -4.3610 c1        1 II2     -0.038000
     27 H5          1.4040    3.4110    5.1600 ha        1 II2      0.159000
     28 H11N        2.1960    3.3340    7.5110 hn        1 II2      0.208500
     29 H12N        2.7230    1.9700    8.1180 hn        1 II2      0.208500
     30 H3          2.3550   -0.1120    7.0120 ha        1 II2      0.142000
     31 H2          1.8710   -1.2890    5.0220 ha        1 II2      0.157000
     32 H9          2.0350    0.9360   -0.4150 ha        1 II2      0.156000
     33 H19        -1.8580    1.1610    0.8230 ha        1 II2      0.157000
     34 H10         1.3180    0.9020   -2.6650 ha        1 II2      0.141000
     35 H18        -2.5760    1.1270   -1.4270 ha        1 II2      0.143000
     36 H13         0.4310   -0.7530   -5.3560 ha        1 II2      0.142000
     37 H17        -3.3820   -0.7830   -3.8750 ha        1 II2      0.144000
     38 H14         0.1110   -2.9250   -6.2260 ha        1 II2      0.135000
     39 H31N       -2.8270   -4.8320   -6.0450 hn        1 II2      0.195000
     40 H32N       -1.2700   -4.9370   -6.3110 hn        1 II2      0.195000
     41 H16        -3.7030   -2.9560   -4.7450 ha        1 II2      0.135000
@<TRIPOS>BOND
     1    1    2 1   
     2    2   10 1   
     3    3    4 1   
     4    3    9 1   
     5    4    5 1   
     6    4   27 1   
     7    5    7 1   
     8    6   28 1   
     9    6   29 1   
    10    7    8 1   
    11    7   30 1   
    12    8   31 1   
    13    9   11 1   
    14   10   11 1   
    15   10   13 1   
    16   11   12 1   
    17   13   14 1   
    18   13   18 1   
    19   14   15 1   
    20   14   32 1   
    21   15   34 1   
    22   16   17 1   
    23   16   19 1   
    24   17   35 1   
    25   18   33 1   
    26   19   20 1   
    27   20   21 1   
    28   20   26 1   
    29   21   22 1   
    30   21   36 1   
    31   22   38 1   
    32   23   24 1   
    33   23   25 1   
    34   24   39 1   
    35   24   40 1   
    36   25   41 1   
    37   26   37 1   
@<TRIPOS>SUBSTRUCTURE
     1 II2         1 TEMP              0 ****  ****    0 ROOT
