@<TRIPOS>MOLECULE
II2
   43    46     1     0     0
SMALL
bcc


@<TRIPOS>ATOM
      1 O1          0.1220   -0.5250    0.0090 o         1 II2     -0.511500
      2 C7          1.3060   -0.2320    0.1510 c         1 II2      0.727100
      3 C6          2.0050    0.0540    1.4540 ca        1 II2     -0.114600
      4 C5          1.5170    0.0420    2.7420 ca        1 II2     -0.048000
      5 C4          2.4380    0.3560    3.7740 ca        1 II2     -0.056400
      6 N1          1.9580    0.3480    5.1590 n4        1 II2     -0.707000
      7 C3          3.7780    0.6660    3.5040 ca        1 II2     -0.073000
      8 C2          4.2500    0.6710    2.1790 ca        1 II2     -0.040000
      9 C1          3.3600    0.3640    1.1710 ca        1 II2     -0.084600
     10 N2          2.2870   -0.0880   -0.8760 n         1 II2     -0.421600
     11 C20         3.5530    0.2760   -0.3210 c         1 II2      0.723100
     12 O2          4.5930    0.4820   -0.9400 o         1 II2     -0.508500
     13 C8          2.0490   -0.3340   -2.2480 ca        1 II2      0.086600
     14 C9          3.0910   -0.7800   -3.0920 ca        1 II2     -0.143500
     15 C10         2.8360   -1.0520   -4.4310 ca        1 II2     -0.055500
     16 C11         1.5560   -0.8870   -4.9690 ca        1 II2     -0.113100
     17 C18         0.5310   -0.4150   -4.1410 ca        1 II2     -0.055500
     18 C19         0.7610   -0.1450   -2.7960 ca        1 II2     -0.143500
     19 S           1.1080   -1.4190   -6.5170 ss        1 II2      0.045200
     20 C12         1.9770   -0.5620   -7.6550 ca        1 II2      0.012900
     21 C13         1.7020   -0.9200   -8.9950 ca        1 II2     -0.128000
     22 C14         2.3370   -0.2930  -10.0500 ca        1 II2     -0.066000
     23 C15         3.2780    0.7240   -9.7830 ca        1 II2     -0.122400
     24 N3          3.9440    1.3920  -10.8980 n4        1 II2     -0.691000
     25 C16         3.5690    1.0940   -8.4590 ca        1 II2     -0.066000
     26 C17         2.9200    0.4490   -7.4140 ca        1 II2     -0.128000
     27 H5          0.4590   -0.2030    2.9400 ha        1 II2      0.188000
     28 H11N        2.7070    0.6390    5.7990 hn        1 II2      0.473133
     29 H12N        1.6500   -0.6000    5.4110 hn        1 II2      0.473133
     30 H3          4.4900    0.9110    4.3130 ha        1 II2      0.174000
     31 H2          5.3060    0.9150    1.9630 ha        1 II2      0.202000
     32 H9          4.1140   -0.9190   -2.7020 ha        1 II2      0.170500
     33 H19        -0.0780    0.2010   -2.1690 ha        1 II2      0.170500
     34 H10         3.6570   -1.4240   -5.0660 ha        1 II2      0.158500
     35 H18        -0.4830   -0.2630   -4.5530 ha        1 II2      0.158500
     36 H13         0.9640   -1.7170   -9.2010 ha        1 II2      0.172500
     37 H17         3.1500    0.7430   -6.3750 ha        1 II2      0.172500
     38 H14         2.0990   -0.5960  -11.0840 ha        1 II2      0.156500
     39 H31N        4.6720    2.0230  -10.5480 hn        1 II2      0.461467
     40 H32N        4.3720    0.6910  -11.5140 hn        1 II2      0.461467
     41 H16         4.3010    1.8860   -8.2310 ha        1 II2      0.156500
     42 H131        1.1650    0.9950    5.2540 hn        1 II2      0.473133
     43 H33         3.2570    1.9340  -11.4340 hn        1 II2      0.461467
@<TRIPOS>BOND
     1    1    2 2   
     2    2    3 1   
     3    2   10 1   
     4    3    4 ar  
     5    3    9 ar  
     6    4    5 ar  
     7    4   27 1   
     8    5    6 1   
     9    5    7 ar  
    10    6   28 1   
    11    6   29 1   
    12    6   42 1   
    13    7    8 ar  
    14    7   30 1   
    15    8    9 ar  
    16    8   31 1   
    17    9   11 1   
    18   10   11 1   
    19   10   13 1   
    20   11   12 2   
    21   13   14 ar  
    22   13   18 ar  
    23   14   15 ar  
    24   14   32 1   
    25   15   16 ar  
    26   15   34 1   
    27   16   17 ar  
    28   16   19 1   
    29   17   18 ar  
    30   17   35 1   
    31   18   33 1   
    32   19   20 1   
    33   20   21 ar  
    34   20   26 ar  
    35   21   22 ar  
    36   21   36 1   
    37   22   23 ar  
    38   22   38 1   
    39   23   24 1   
    40   23   25 ar  
    41   24   39 1   
    42   24   40 1   
    43   24   43 1   
    44   25   26 ar  
    45   25   41 1   
    46   26   37 1   
@<TRIPOS>SUBSTRUCTURE
     1 II2         1 TEMP              0 ****  ****    0 ROOT
