@<TRIPOS>MOLECULE
II2
   41    44     1     0     0
SMALL
bcc


@<TRIPOS>ATOM
      1 O1          3.0290   -2.1740    0.6760 o         1 II2     -0.565500
      2 C7          3.1600   -1.0040    0.3100 c         1 II2      0.726100
      3 C6          4.4370   -0.2190    0.2270 ca        1 II2     -0.093600
      4 C5          5.7220   -0.5890    0.5280 ca        1 II2     -0.133000
      5 C4          6.7600    0.3810    0.3490 ca        1 II2      0.184600
      6 N1          8.0600    0.0740    0.7190 nh        1 II2     -0.839200
      7 C3          6.4310    1.6670   -0.1380 ca        1 II2     -0.209000
      8 C2          5.1100    2.0220   -0.4350 ca        1 II2     -0.012000
      9 C1          4.1190    1.0800   -0.2530 ca        1 II2     -0.201600
     10 N2          2.1140   -0.1340   -0.1230 n         1 II2     -0.428600
     11 C20         2.6460    1.1500   -0.4760 c         1 II2      0.738100
     12 O2          1.9900    2.1100   -0.8830 o         1 II2     -0.569500
     13 C8          0.7500   -0.4890   -0.1940 ca        1 II2      0.044600
     14 C9         -0.2590    0.4860   -0.0410 ca        1 II2     -0.124000
     15 C10        -1.6000    0.1260   -0.1180 ca        1 II2     -0.119500
     16 C11        -1.9820   -1.1990   -0.3370 ca        1 II2     -0.026100
     17 C18        -0.9800   -2.1700   -0.4830 ca        1 II2     -0.119500
     18 C19         0.3630   -1.8310   -0.4190 ca        1 II2     -0.124000
     19 S          -3.5700   -1.7740   -0.4640 ss        1 II2     -0.105800
     20 C12        -4.6070   -0.4600   -0.1720 ca        1 II2     -0.106100
     21 C13        -5.5270   -0.1130   -1.1690 ca        1 II2     -0.042000
     22 C14        -6.4870    0.8650   -0.9520 ca        1 II2     -0.210000
     23 C15        -6.5460    1.5460    0.2890 ca        1 II2      0.176600
     24 N3         -7.5520    2.4720    0.5460 nh        1 II2     -0.830200
     25 C16        -5.6000    1.2060    1.2880 ca        1 II2     -0.210000
     26 C17        -4.6600    0.2130    1.0530 ca        1 II2     -0.042000
     27 H5          5.9470   -1.5990    0.9030 ha        1 II2      0.159000
     28 H11N        8.2840   -0.8890    0.8000 hn        1 II2      0.413300
     29 H12N        8.7770    0.6540    0.3520 hn        1 II2      0.413300
     30 H3          7.2230    2.4180   -0.2820 ha        1 II2      0.142000
     31 H2          4.8740    3.0310   -0.8070 ha        1 II2      0.157000
     32 H9          0.0040    1.5440    0.1210 ha        1 II2      0.157000
     33 H19         1.1240   -2.6210   -0.5290 ha        1 II2      0.157000
     34 H10        -2.3700    0.9060   -0.0040 ha        1 II2      0.142000
     35 H18        -1.2640   -3.2220   -0.6530 ha        1 II2      0.142000
     36 H13        -5.4880   -0.6290   -2.1430 ha        1 II2      0.143000
     37 H17        -3.9400   -0.0480    1.8470 ha        1 II2      0.143000
     38 H14        -7.2050    1.1050   -1.7490 ha        1 II2      0.135000
     39 H31N       -7.9770    2.8770   -0.2550 hn        1 II2      0.399800
     40 H32N       -7.3680    3.1120    1.2840 hn        1 II2      0.399800
     41 H16        -5.6150    1.7190    2.2610 ha        1 II2      0.135000
@<TRIPOS>BOND
     1    1    2 2   
     2    2    3 1   
     3    2   10 1   
     4    3    4 ar  
     5    3    9 ar  
     6    4    5 ar  
     7    4   27 1   
     8    5    6 1   
     9    5    7 ar  
    10    6   28 1   
    11    6   29 1   
    12    7    8 ar  
    13    7   30 1   
    14    8    9 ar  
    15    8   31 1   
    16    9   11 1   
    17   10   11 1   
    18   10   13 1   
    19   11   12 2   
    20   13   14 ar  
    21   13   18 ar  
    22   14   15 ar  
    23   14   32 1   
    24   15   16 ar  
    25   15   34 1   
    26   16   17 ar  
    27   16   19 1   
    28   17   18 ar  
    29   17   35 1   
    30   18   33 1   
    31   19   20 1   
    32   20   21 ar  
    33   20   26 ar  
    34   21   22 ar  
    35   21   36 1   
    36   22   23 ar  
    37   22   38 1   
    38   23   24 1   
    39   23   25 ar  
    40   24   39 1   
    41   24   40 1   
    42   25   26 ar  
    43   25   41 1   
    44   26   37 1   
@<TRIPOS>SUBSTRUCTURE
     1 II2         1 TEMP              0 ****  ****    0 ROOT
