@<TRIPOS>MOLECULE
II4
   31    32     1     0     0
SMALL
bcc


@<TRIPOS>ATOM
      1 C2          0.0750    0.0140    0.0480 c2        1 II4     -0.346000
      2 C3          1.2370   -0.7190    0.1600 c1        1 II4     -0.115000
      3 C4          1.6480   -1.1190    1.5060 c3        1 II4     -0.062000
      4 C5          1.0440   -0.2120    2.6210 c2        1 II4      0.101000
      5 C6         -0.2360    0.3600    2.4320 c2        1 II4     -0.256000
      6 N7          2.0100   -0.0340    3.5530 n3        1 II4     -0.107000
      7 C8          3.2090   -0.7040    3.0540 c2        1 II4      0.001000
      8 N9          3.0600   -1.2680    1.8840 n2        1 II4     -0.063000
      9 N2         -0.3260    0.3170   -1.3240 n4        1 II4      0.024000
     10 C10         2.7030   -0.8610    6.6370 c2        1 II4      0.069000
     11 C11         2.9220    0.1820    5.8140 c2        1 II4     -0.228000
     12 C30        -0.7160    0.4680    1.1460 c2        1 II4      0.056000
     13 C13         1.1920    1.7320    5.0130 c2        1 II4     -0.179000
     14 C80         1.9790    0.6620    4.7930 c2        1 II4      0.018000
     15 C14         1.3350   -2.8940    7.0510 c1        1 II4      0.290000
     16 C15         1.4990   -1.6670    6.5880 c2        1 II4     -0.500000
     17 H3          1.1830   -2.1660    1.6060 h1        1 II4      0.223000
     18 H21N        0.3760   -0.1110   -1.9500 hn        1 II4      0.247000
     19 H22N       -1.2470   -0.0770   -1.5220 hn        1 II4      0.247000
     20 H30        -1.7080    0.9250    0.9840 ha        1 II4      0.151000
     21 H6         -0.8110    0.7440    3.2880 ha        1 II4      0.175000
     22 H91C        3.9120   -2.3380    7.6270 hc        1 II4      0.107333
     23 H92C        3.2950   -1.0030    8.6900 hc        1 II4      0.107333
     24 H93C        4.6630   -0.6860    7.5420 hc        1 II4      0.107333
     25 H8          4.1280   -0.6730    3.6660 h5        1 II4      0.244000
     26 H11         3.8450    0.7830    5.8980 ha        1 II4      0.161000
     27 H15         0.6100   -1.1850    6.1250 ha        1 II4      0.191000
     28 H13         1.2170    2.2390    5.9890 ha        1 II4      0.150500
     29 H14         0.5110    2.1660    4.2690 ha        1 II4      0.150500
     30 H23        -0.3480    1.3280   -1.4740 hn        1 II4      0.247000
     31 C9          3.7010   -1.2390    7.6730 c3        1 II4     -0.211000
@<TRIPOS>BOND
     1    1    2 1   
     2    1    9 1   
     3    1   12 1   
     4    2    3 1   
     5    3    4 1   
     6    3    8 1   
     7    3   17 1   
     8    4    5 1   
     9    4    6 1   
    10    5   12 1   
    11    5   21 1   
    12    6    7 1   
    13    6   14 1   
    14    7    8 1   
    15    7   25 1   
    16    9   18 1   
    17    9   19 1   
    18    9   30 1   
    19   10   11 1   
    20   10   16 1   
    21   10   31 1   
    22   11   14 1   
    23   11   26 1   
    24   12   20 1   
    25   13   14 1   
    26   13   28 1   
    27   13   29 1   
    28   15   16 1   
    29   16   27 1   
    30   22   31 1   
    31   23   31 1   
    32   24   31 1   
@<TRIPOS>SUBSTRUCTURE
     1 II4         1 TEMP              0 ****  ****    0 ROOT
