@<TRIPOS>MOLECULE
II4
   30    31     1     0     0
SMALL
bcc


@<TRIPOS>ATOM
      1 C2          0.1550    0.0250   -0.1150 c2        1 II4     -0.100000
      2 C3          1.3410   -0.7710    0.0580 c1        1 II4     -0.041000
      3 C4          1.6920   -1.1120    1.4360 c3        1 II4     -0.088000
      4 C5          1.0740   -0.2270    2.5380 c2        1 II4     -0.012000
      5 C6         -0.1070    0.4080    2.3070 c2        1 II4     -0.207000
      6 N7          1.9890   -0.2370    3.6030 n3        1 II4     -0.199000
      7 C8          3.1760   -0.8720    3.0900 c2        1 II4      0.008000
      8 N9          3.0760   -1.3540    1.8730 n2        1 II4     -0.127000
      9 N2         -0.1810    0.3910   -1.4300 n8        1 II4     -0.298000
     10 C10         2.6600   -0.8300    6.6680 c2        1 II4      0.022000
     11 C11         2.8980    0.1970    5.8330 c2        1 II4     -0.176000
     12 C30        -0.5950    0.4690    0.9660 c2        1 II4     -0.081000
     13 C13         1.3390    1.7760    4.8210 c2        1 II4     -0.252000
     14 C80         2.0220    0.6180    4.7220 c2        1 II4      0.055000
     15 C14         1.2470   -2.8050    7.2150 c1        1 II4      0.222000
     16 C15         1.4960   -1.6890    6.5620 c2        1 II4     -0.459000
     17 H3          1.1560   -2.1340    1.4810 h1        1 II4      0.194000
     18 H21N        0.2990   -0.1580   -2.1130 hn        1 II4      0.178500
     19 H22N       -1.1650    0.4290   -1.5930 hn        1 II4      0.178500
     20 H30        -1.5710    0.9590    0.8200 ha        1 II4      0.134000
     21 H6         -0.6690    0.9340    3.0900 ha        1 II4      0.145000
     22 H91C        3.9070   -2.2120    7.7390 hc        1 II4      0.093667
     23 H92C        4.5090   -0.5000    7.7440 hc        1 II4      0.093667
     24 H93C        3.0840   -0.9640    8.7660 hc        1 II4      0.093667
     25 H8          4.0700   -0.9310    3.7290 h5        1 II4      0.206000
     26 H11         3.7910    0.8320    5.9650 ha        1 II4      0.144000
     27 H15         0.7200   -1.3630    5.8310 ha        1 II4      0.205000
     28 H13         1.3880    2.3700    5.7420 ha        1 II4      0.134500
     29 H14         0.7130    2.1890    4.0210 ha        1 II4      0.134500
     30 C9          3.5930   -1.1390    7.7850 c3        1 II4     -0.201000
@<TRIPOS>BOND
     1    1    2 1   
     2    1    9 1   
     3    1   12 1   
     4    2    3 1   
     5    3    4 1   
     6    3    8 1   
     7    3   17 1   
     8    4    5 1   
     9    4    6 1   
    10    5   12 1   
    11    5   21 1   
    12    6    7 1   
    13    6   14 1   
    14    7    8 1   
    15    7   25 1   
    16    9   18 1   
    17    9   19 1   
    18   10   11 1   
    19   10   16 1   
    20   10   30 1   
    21   11   14 1   
    22   11   26 1   
    23   12   20 1   
    24   13   14 1   
    25   13   28 1   
    26   13   29 1   
    27   15   16 1   
    28   16   27 1   
    29   22   30 1   
    30   23   30 1   
    31   24   30 1   
@<TRIPOS>SUBSTRUCTURE
     1 II4         1 TEMP              0 ****  ****    0 ROOT
