@<TRIPOS>MOLECULE
II4
   30    31     1     0     0
SMALL
bcc


@<TRIPOS>ATOM
      1 C2          0.1970    0.0070   -0.0960 c2        1 II4     -0.100000
      2 C3          1.4030   -0.7540    0.0990 c1        1 II4     -0.041000
      3 C4          1.7360   -1.0890    1.4830 c3        1 II4     -0.088000
      4 C5          1.0710   -0.2250    2.5750 c2        1 II4     -0.012000
      5 C6         -0.1230    0.3760    2.3210 c2        1 II4     -0.207000
      6 N7          1.9640   -0.2110    3.6580 n3        1 II4     -0.199000
      7 C8          3.1790   -0.8100    3.1670 c2        1 II4      0.008000
      8 N9          3.1180   -1.2910    1.9480 n2        1 II4     -0.127000
      9 N2         -0.1230    0.3670   -1.4170 n3        1 II4     -0.298000
     10 C10         2.5910   -0.7900    6.7360 c2        1 II4      0.022000
     11 C11         2.8170    0.2430    5.9060 c2        1 II4     -0.176000
     12 C30        -0.5860    0.4260    0.9720 c2        1 II4     -0.081000
     13 C13         1.2300    1.7780    4.8670 c2        1 II4     -0.252000
     14 C80         1.9500    0.6410    4.7790 c2        1 II4      0.055000
     15 C14         1.2220   -2.8030    7.2580 c1        1 II4      0.222000
     16 C15         1.4540   -1.6810    6.6070 c2        1 II4     -0.459000
     17 H3          1.2290   -2.1260    1.5150 h1        1 II4      0.194000
     18 H21N        0.3870   -0.1660   -2.0910 hn        1 II4      0.178500
     19 H22N       -1.1030    0.3770   -1.5990 hn        1 II4      0.178500
     20 H30        -1.5740    0.8880    0.8060 ha        1 II4      0.134000
     21 H6         -0.7160    0.8830    3.0950 ha        1 II4      0.145000
     22 H91C        3.8570   -2.1390    7.8280 hc        1 II4      0.093667
     23 H92C        4.4100   -0.4100    7.8470 hc        1 II4      0.093667
     24 H93C        2.9790   -0.9160    8.8410 hc        1 II4      0.093667
     25 H8          4.0620   -0.8440    3.8240 h5        1 II4      0.206000
     26 H11         3.6890    0.9030    6.0550 ha        1 II4      0.144000
     27 H15         0.6850   -1.3770    5.8590 ha        1 II4      0.205000
     28 H13         1.2440    2.3710    5.7900 ha        1 II4      0.134500
     29 H14         0.6090    2.1750    4.0560 ha        1 II4      0.134500
     30 C9          3.5120   -1.0750    7.8700 c3        1 II4     -0.201000
@<TRIPOS>BOND
     1    1    2 1   
     2    1    9 1   
     3    1   12 1   
     4    2    3 1   
     5    3    4 1   
     6    3    8 1   
     7    3   17 1   
     8    4    5 1   
     9    4    6 1   
    10    5   12 1   
    11    5   21 1   
    12    6    7 1   
    13    6   14 1   
    14    7    8 1   
    15    7   25 1   
    16    9   18 1   
    17    9   19 1   
    18   10   11 1   
    19   10   16 1   
    20   10   30 1   
    21   11   14 1   
    22   11   26 1   
    23   12   20 1   
    24   13   14 1   
    25   13   28 1   
    26   13   29 1   
    27   15   16 1   
    28   16   27 1   
    29   22   30 1   
    30   23   30 1   
    31   24   30 1   
@<TRIPOS>SUBSTRUCTURE
     1 II4         1 TEMP              0 ****  ****    0 ROOT
