@<TRIPOS>MOLECULE
II4
   30    32     1     0     0
SMALL
bcc


@<TRIPOS>ATOM
      1 C2          3.8280    0.5600   -0.1410 ca        1 II4      0.115600
      2 C3          3.4260   -0.7790    0.0160 ca        1 II4     -0.138000
      3 C4          2.0630   -1.0650    0.0880 ca        1 II4      0.102400
      4 C5          1.0850    0.0050    0.0010 ca        1 II4     -0.098200
      5 C6          1.4920    1.3280   -0.1780 ca        1 II4     -0.095000
      6 N7         -0.1760   -0.6210    0.0900 na        1 II4     -0.105400
      7 C8          0.0890   -2.0060    0.2300 cc        1 II4      0.435700
      8 N9          1.3930   -2.3030    0.2300 nd        1 II4     -0.570100
      9 N2          5.1910    0.8970   -0.1150 nh        1 II4     -0.811200
     10 C10        -3.8160   -0.0900   -0.4360 ca        1 II4     -0.054300
     11 C11        -2.5470   -0.6730   -0.4700 ca        1 II4     -0.154000
     12 C30         2.8500    1.5910   -0.2470 ca        1 II4     -0.165000
     13 C13        -1.6410    1.2300    0.7470 ca        1 II4     -0.152000
     14 C80        -1.4440   -0.0200    0.1220 ca        1 II4      0.028800
     15 C14        -2.9090    1.8030    0.7640 ca        1 II4     -0.107000
     16 C15        -3.9930    1.1540    0.1800 ca        1 II4     -0.141000
     17 H3          4.1610   -1.5940    0.0890 ha        1 II4      0.150000
     18 H21N        5.7940    0.1440   -0.3630 hn        1 II4      0.383800
     19 H22N        5.4050    1.7370   -0.6080 hn        1 II4      0.383800
     20 H30         3.1790    2.6330   -0.3820 ha        1 II4      0.134000
     21 H6          0.7600    2.1420   -0.2730 ha        1 II4      0.140000
     22 H91C       -5.4480   -1.4640   -0.2860 hc        1 II4      0.048367
     23 H92C       -5.7370   -0.0660   -1.4030 hc        1 II4      0.048367
     24 H93C       -4.6450   -1.4220   -1.9110 hc        1 II4      0.048367
     25 H8         -0.7280   -2.7310    0.3310 h5        1 II4      0.070800
     26 H11        -2.4160   -1.6470   -0.9680 ha        1 II4      0.140000
     27 H15        -4.9910    1.6170    0.2010 ha        1 II4      0.137000
     28 H13        -0.7990    1.7510    1.2280 ha        1 II4      0.148000
     29 H14        -3.0530    2.7800    1.2510 ha        1 II4      0.137000
     30 C9         -4.9690   -0.7940   -1.0440 c3        1 II4     -0.057800
@<TRIPOS>BOND
     1    1    2 ar  
     2    1    9 1   
     3    1   12 ar  
     4    2    3 ar  
     5    2   17 1   
     6    3    4 ar  
     7    3    8 1   
     8    4    5 ar  
     9    4    6 1   
    10    5   12 ar  
    11    5   21 1   
    12    6    7 1   
    13    6   14 1   
    14    7    8 2   
    15    7   25 1   
    16    9   18 1   
    17    9   19 1   
    18   10   11 ar  
    19   10   16 ar  
    20   10   30 1   
    21   11   14 ar  
    22   11   26 1   
    23   12   20 1   
    24   13   14 ar  
    25   13   15 ar  
    26   13   28 1   
    27   15   16 ar  
    28   15   29 1   
    29   16   27 1   
    30   22   30 1   
    31   23   30 1   
    32   24   30 1   
@<TRIPOS>SUBSTRUCTURE
     1 II4         1 TEMP              0 ****  ****    0 ROOT
