@<TRIPOS>MOLECULE
II6
   31    31     1     0     0
SMALL
bcc


@<TRIPOS>ATOM
      1 C1          0.0330   -0.0010   -0.0300 c3        1 II6     -0.086400
      2 C2          2.0490    0.0140    1.4500 c3        1 II6     -0.079400
      3 C3          0.0160   -1.2760    2.1290 c3        1 II6     -0.072400
      4 C4          1.5560    0.0620    0.0120 c3        1 II6     -0.059700
      5 C5         -0.4780   -1.2410    0.6860 c3        1 II6     -0.088700
      6 C6          1.5350   -1.2250    2.1630 c3        1 II6     -0.066700
      7 C7          2.0460    1.3160   -0.6780 c3        1 II6     -0.096100
      8 C8         -2.0080   -1.2810    0.7160 c3        1 II6      0.097800
      9 C9          2.0220   -1.2500    3.6120 c3        1 II6      0.137400
     10 N10        -2.6120   -1.4400   -0.6400 n4        1 II6     -0.837600
     11 O11         3.4100   -1.5300    3.5670 oh        1 II6     -0.596800
     12 H11C       -0.2930   -0.0030   -1.1030 hc        1 II6      0.038200
     13 H12C       -0.3880    0.9190    0.4560 hc        1 II6      0.038200
     14 H4          1.9630   -0.8350   -0.5350 hc        1 II6      0.056700
     15 H5         -0.0860   -2.1570    0.1590 hc        1 II6      0.073700
     16 H21C        1.7140    0.9350    1.9950 hc        1 II6      0.068200
     17 H22C        3.1710   -0.0000    1.4660 hc        1 II6      0.068200
     18 H6          1.9470   -2.1370    1.6450 hc        1 II6      0.074700
     19 H31C       -0.3420   -2.2140    2.6280 hc        1 II6      0.055200
     20 H32C       -0.4030   -0.4020    2.6940 hc        1 II6      0.055200
     21 H71C        1.7060    1.3360   -1.7420 hc        1 II6      0.047033
     22 H72C        3.1630    1.3470   -0.6630 hc        1 II6      0.047033
     23 H73C        1.6620    2.2290   -0.1630 hc        1 II6      0.047033
     24 H81C       -2.4080   -0.3220    1.1570 hx        1 II6      0.111700
     25 H82C       -2.3570   -2.1490    1.3480 hx        1 II6      0.111700
     26 H91C        1.8380   -0.2610    4.1090 h1        1 II6      0.029200
     27 H92C        1.4890   -2.0550    4.1870 h1        1 II6      0.029200
     28 H101       -2.3370   -0.6520   -1.2380 hn        1 II6      0.461133
     29 H102       -3.6340   -1.4710   -0.5720 hn        1 II6      0.461133
     30 H11         3.7280   -1.5110    4.4780 ho        1 II6      0.416000
     31 H103       -2.2780   -2.3080   -1.0730 hn        1 II6      0.461133
@<TRIPOS>BOND
     1    1    4 1   
     2    1    5 1   
     3    1   12 1   
     4    1   13 1   
     5    2    4 1   
     6    2    6 1   
     7    2   16 1   
     8    2   17 1   
     9    3    5 1   
    10    3    6 1   
    11    3   19 1   
    12    3   20 1   
    13    4    7 1   
    14    4   14 1   
    15    5    8 1   
    16    5   15 1   
    17    6    9 1   
    18    6   18 1   
    19    7   21 1   
    20    7   22 1   
    21    7   23 1   
    22    8   10 1   
    23    8   24 1   
    24    8   25 1   
    25    9   11 1   
    26    9   26 1   
    27    9   27 1   
    28   10   28 1   
    29   10   29 1   
    30   10   31 1   
    31   11   30 1   
@<TRIPOS>SUBSTRUCTURE
     1 II6         1 TEMP              0 ****  ****    0 ROOT
