@<TRIPOS>MOLECULE
II6
   31    31     1     0     0
SMALL
bcc


@<TRIPOS>ATOM
      1 C1          0.0320    0.0010   -0.0290 c3        1 II6     -0.086400
      2 C2          2.0470    0.0160    1.4510 c3        1 II6     -0.079400
      3 C3          0.0170   -1.2790    2.1280 c3        1 II6     -0.072400
      4 C4          1.5550    0.0660    0.0140 c3        1 II6     -0.059700
      5 C5         -0.4770   -1.2420    0.6840 c3        1 II6     -0.088700
      6 C6          1.5360   -1.2260    2.1620 c3        1 II6     -0.066700
      7 C7          2.0430    1.3220   -0.6740 c3        1 II6     -0.096100
      8 C8         -2.0070   -1.2850    0.7140 c3        1 II6      0.097800
      9 C9          2.0220   -1.2530    3.6100 c3        1 II6      0.137400
     10 N10        -2.6110   -1.4420   -0.6420 nz        1 II6     -0.837600
     11 O11         3.4110   -1.5300    3.5650 oh        1 II6     -0.596800
     12 H11C       -0.2940   -0.0000   -1.1020 hc        1 II6      0.038200
     13 H12C       -0.3900    0.9180    0.4600 hc        1 II6      0.038200
     14 H4          1.9640   -0.8300   -0.5350 hc        1 II6      0.056700
     15 H5         -0.0830   -2.1570    0.1560 hc        1 II6      0.073700
     16 H21C        1.7120    0.9350    1.9980 hc        1 II6      0.068200
     17 H22C        3.1700    0.0030    1.4670 hc        1 II6      0.068200
     18 H6          1.9500   -2.1360    1.6410 hc        1 II6      0.074700
     19 H31C       -0.3390   -2.2200    2.6250 hc        1 II6      0.055200
     20 H32C       -0.4030   -0.4070    2.6950 hc        1 II6      0.055200
     21 H71C        1.7030    1.3440   -1.7370 hc        1 II6      0.047033
     22 H72C        3.1600    1.3550   -0.6590 hc        1 II6      0.047033
     23 H73C        1.6570    2.2330   -0.1570 hc        1 II6      0.047033
     24 H81C       -2.4080   -0.3280    1.1580 hx        1 II6      0.111700
     25 H82C       -2.3540   -2.1550    1.3440 hx        1 II6      0.111700
     26 H91C        1.4910   -2.0600    4.1840 h1        1 II6      0.029200
     27 H92C        1.8370   -0.2650    4.1100 h1        1 II6      0.029200
     28 H101       -2.2750   -2.3080   -1.0770 hn        1 II6      0.461133
     29 H102       -3.6320   -1.4750   -0.5740 hn        1 II6      0.461133
     30 H11         3.7290   -1.5130    4.4760 ho        1 II6      0.416000
     31 H103       -2.3370   -0.6520   -1.2380 hn        1 II6      0.461133
@<TRIPOS>BOND
     1    1    4 1   
     2    1    5 1   
     3    1   12 1   
     4    1   13 1   
     5    2    4 1   
     6    2    6 1   
     7    2   16 1   
     8    2   17 1   
     9    3    5 1   
    10    3    6 1   
    11    3   19 1   
    12    3   20 1   
    13    4    7 1   
    14    4   14 1   
    15    5    8 1   
    16    5   15 1   
    17    6    9 1   
    18    6   18 1   
    19    7   21 1   
    20    7   22 1   
    21    7   23 1   
    22    8   10 1   
    23    8   24 1   
    24    8   25 1   
    25    9   11 1   
    26    9   26 1   
    27    9   27 1   
    28   10   28 1   
    29   10   29 1   
    30   10   31 1   
    31   11   30 1   
@<TRIPOS>SUBSTRUCTURE
     1 II6         1 TEMP              0 ****  ****    0 ROOT
