@<TRIPOS>MOLECULE
IIA
   60    52     1     0     0
SMALL
bcc


@<TRIPOS>ATOM
      1 C1         -5.2460   -0.5480   -1.6300 c1        1 IIA     -0.129000
      2 C2         -3.8760   -0.4120   -1.8170 c1        1 IIA     -0.106500
      3 C3         -3.0210   -0.2780   -0.7010 c1        1 IIA     -0.041000
      4 C4         -3.5440   -0.2830    0.5680 c1        1 IIA     -0.041000
      5 C5         -4.9370   -0.4220    0.7570 c1        1 IIA     -0.106500
      6 C6         -5.7770   -0.5540   -0.3410 c1        1 IIA     -0.129000
      7 N7         -1.6460   -0.1290   -0.5970 n1        1 IIA     -0.149000
      8 C8         -1.3260   -0.0430    0.7360 c1        1 IIA     -0.096000
      9 C9         -2.4950   -0.1380    1.4620 c1        1 IIA     -0.125000
     10 C10        -0.0750   -0.1720    1.6500 c1        1 IIA      0.366000
     11 N11         1.2090   -0.4680    1.0690 n3        1 IIA     -0.368000
     12 C12         2.4390   -0.4180    1.9100 c3        1 IIA      0.023000
     13 C13         3.6150   -0.7300    1.0560 c3        1 IIA     -0.206500
     14 C14         3.6320   -2.1790    0.6030 c3        1 IIA     -0.073000
     15 N15         3.4810   -3.1160    1.7160 n3        1 IIA     -0.249000
     16 C16         2.3150   -2.8120    2.5680 c3        1 IIA     -0.073000
     17 C17         2.2930   -1.3670    3.0290 c3        1 IIA     -0.206500
     18 C27         4.6720   -3.1070    2.5130 c3        1 IIA     -0.018000
     19 C28         4.5240   -4.0990    3.6580 c3        1 IIA     -0.212000
     20 C32         5.8640   -3.5030    1.6490 c3        1 IIA     -0.212000
     21 C37        -1.0120    0.6180   -1.6280 c2        1 IIA      0.041000
     22 C38        -1.7550    1.9170   -1.8370 c2        1 IIA     -0.148000
     23 N41        -2.3670    2.6410   -0.8800 n2        1 IIA     -0.011000
     24 O42        -2.8390    3.8130   -1.4610 os        1 IIA     -0.051000
     25 C43        -2.5090    3.7920   -2.7730 c2        1 IIA      0.046000
     26 C44        -1.8360    2.6220   -3.0210 c1        1 IIA     -0.211000
     27 C45        -2.8390    4.7600   -3.7130 c2        1 IIA     -0.352000
     28 S46        -1.8470    5.4890   -4.6550 ss        1 IIA      0.656000
     29 C47        -2.6470    6.5770   -5.4290 c1        1 IIA     -0.386000
     30 C48        -4.0250    6.5130   -4.9890 c1        1 IIA     -0.154000
     31 C49        -4.1500    5.3590   -3.8980 c1        1 IIA     -0.108000
     32 CL50       -2.0150    7.6270   -6.6610 cl        1 IIA      0.055000
     33 O56        -0.1530    0.1170    2.8250 o         1 IIA     -0.363000
     34 H1         -5.8390   -0.6410   -2.4040 ha        1 IIA      0.133500
     35 H2         -3.5060   -0.4080   -2.7150 ha        1 IIA      0.139500
     36 H5         -5.3080   -0.4270    1.6580 ha        1 IIA      0.139500
     37 H6         -6.7420   -0.6500   -0.2100 ha        1 IIA      0.133500
     38 H9         -2.5710   -0.1080    2.4340 DU        1 IIA      0.177750
     39 H11         1.2740   -0.6460    0.1780 hn        1 IIA      0.234000
     40 H12         2.5400    0.4890    2.2720 h1        1 IIA      0.127000
     41 H131        4.4310   -0.5480    1.5630 hc        1 IIA      0.095000
     42 H132        3.5960   -0.1530    0.2690 hc        1 IIA      0.095000
     43 H141        2.9030   -2.3190   -0.0270 h1        1 IIA      0.091500
     44 H142        4.4730   -2.3570    0.1540 h1        1 IIA      0.091500
     45 H161        1.4980   -2.9950    2.0620 h1        1 IIA      0.091500
     46 H162        2.3380   -3.3970    3.3570 h1        1 IIA      0.091500
     47 H171        1.4410   -1.1910    3.4850 hc        1 IIA      0.095000
     48 H172        3.0270   -1.2250    3.6610 hc        1 IIA      0.095000
     49 H27         4.8150   -2.2090    2.8750 h1        1 IIA      0.059000
     50 H281        3.6390   -3.9940    4.0700 hc        1 IIA      0.078167
     51 H282        4.6200   -5.0170    3.3120 hc        1 IIA      0.078167
     52 H283        5.2180   -3.9290    4.3290 hc        1 IIA      0.078167
     53 H321        6.3530   -2.6980    1.3770 hc        1 IIA      0.078167
     54 H322        6.4600   -4.0890    2.1620 hc        1 IIA      0.078167
     55 H323        5.5480   -3.9770    0.8530 hc        1 IIA      0.078167
     56 H371       -0.0900    0.8080   -1.3730 ha        1 IIA      0.123000
     57 H372       -1.0200    0.0980   -2.4620 ha        1 IIA      0.123000
     58 H44        -1.4780    2.3390   -3.8820 DU        1 IIA      0.177750
     59 H48        -4.7550    7.0820   -5.3070 DU        1 IIA      0.177750
     60 H49        -4.9720    5.0970   -3.4310 DU        1 IIA      0.177750
@<TRIPOS>BOND
     1    1    6 1   
     2    1   34 1   
     3    2    3 1   
     4    2   35 1   
     5    4    5 1   
     6    5   36 1   
     7    6   37 1   
     8    7    8 1   
     9    8    9 1   
    10   10   11 1   
    11   10   33 1   
    12   11   12 1   
    13   11   39 1   
    14   12   13 1   
    15   12   17 1   
    16   12   40 1   
    17   13   14 1   
    18   13   41 1   
    19   13   42 1   
    20   14   15 1   
    21   14   43 1   
    22   14   44 1   
    23   15   16 1   
    24   15   18 1   
    25   16   17 1   
    26   16   45 1   
    27   16   46 1   
    28   17   47 1   
    29   17   48 1   
    30   18   19 1   
    31   18   20 1   
    32   18   49 1   
    33   19   50 1   
    34   19   51 1   
    35   19   52 1   
    36   20   53 1   
    37   20   54 1   
    38   20   55 1   
    39   21   22 1   
    40   21   56 1   
    41   21   57 1   
    42   22   23 1   
    43   22   26 1   
    44   23   24 1   
    45   24   25 1   
    46   25   26 1   
    47   25   27 1   
    48   27   28 1   
    49   27   31 1   
    50   28   29 1   
    51   29   30 1   
    52   30   31 1   
@<TRIPOS>SUBSTRUCTURE
     1 IIA         1 TEMP              0 ****  ****    0 ROOT
