@<TRIPOS>MOLECULE
IIA
   60    64     1     0     0
SMALL
bcc


@<TRIPOS>ATOM
      1 C1         -0.8380   -6.3570    0.2080 ca        1 IIA     -0.104000
      2 C2         -0.9380   -5.1690   -0.4950 ca        1 IIA     -0.134000
      3 C3         -0.0440   -4.1340   -0.1620 ca        1 IIA     -0.026200
      4 C4          0.9390   -4.3150    0.8810 ca        1 IIA     -0.109800
      5 C5          1.0070   -5.5330    1.5650 ca        1 IIA     -0.079000
      6 C6          0.1220   -6.5410    1.2230 ca        1 IIA     -0.156000
      7 N7          0.1180   -2.8530   -0.7080 na        1 IIA     -0.045400
      8 C8          1.1510   -2.2120    0.0070 cc        1 IIA     -0.126300
      9 C9          1.6800   -3.0830    0.9640 cd        1 IIA     -0.140200
     10 C10         1.5930   -0.8210   -0.2650 c         1 IIA      0.700300
     11 N11         2.9020   -0.5320    0.0480 n         1 IIA     -0.557900
     12 C12         3.4760    0.7860   -0.1120 c3        1 IIA      0.097700
     13 C13         4.6880    0.7840   -1.0560 c3        1 IIA     -0.093400
     14 C14         5.2220    2.2030   -1.2300 c3        1 IIA      0.167800
     15 N15         5.5550    2.8730    0.0210 n3        1 IIA     -0.724600
     16 C16         4.4790    2.8010    1.0010 c3        1 IIA      0.167800
     17 C17         3.9290    1.3950    1.2230 c3        1 IIA     -0.093400
     18 C27         5.9960    4.2620   -0.2040 c3        1 IIA      0.183500
     19 C28         6.4090    4.9630    1.0920 c3        1 IIA     -0.094100
     20 C32         7.1660    4.3530   -1.1860 c3        1 IIA     -0.094100
     21 C37        -0.7560   -2.2580   -1.6770 c3        1 IIA      0.013000
     22 C38        -2.0550   -1.7620   -1.1220 cc        1 IIA      0.284600
     23 N41        -3.2120   -2.4540   -1.0550 nd        1 IIA     -0.346300
     24 O42        -4.1440   -1.6900   -0.5360 os        1 IIA     -0.109100
     25 C43        -3.6030   -0.4070   -0.2210 cd        1 IIA      0.336200
     26 C44        -2.2680   -0.4210   -0.5850 cc        1 IIA     -0.327600
     27 C45        -4.4840    0.5460    0.3570 cd        1 IIA     -0.179600
     28 S46        -4.0010    2.0970    0.7890 ss        1 IIA      0.097200
     29 C47        -5.5240    2.5260    1.3470 cd        1 IIA     -0.034700
     30 C48        -6.4340    1.4880    1.2150 cc        1 IIA     -0.152000
     31 C49        -5.8290    0.3370    0.6390 cc        1 IIA     -0.109000
     32 CL50       -5.8700    4.0320    1.9820 cl        1 IIA     -0.024400
     33 O56         0.8290    0.0450   -0.7470 o         1 IIA     -0.635100
     34 H1         -1.5270   -7.1820   -0.0270 ha        1 IIA      0.134000
     35 H2         -1.6980   -5.0280   -1.2760 ha        1 IIA      0.148000
     36 H5          1.7540   -5.6770    2.3580 ha        1 IIA      0.134000
     37 H6          0.1590   -7.5050    1.7500 ha        1 IIA      0.132000
     38 H9          2.4910   -2.8810    1.6590 ha        1 IIA      0.155000
     39 H11         3.4880   -1.2430    0.4150 hn        1 IIA      0.316500
     40 H12         2.6770    1.4550   -0.5570 h1        1 IIA      0.089700
     41 H131        5.4930    0.1210   -0.6470 hc        1 IIA      0.052950
     42 H132        4.3970    0.3940   -2.0640 hc        1 IIA      0.052950
     43 H141        4.4690    2.7970   -1.8300 h1        1 IIA      0.035200
     44 H142        6.1680    2.1350   -1.8380 h1        1 IIA      0.035200
     45 H161        4.8950    3.1600    1.9860 h1        1 IIA      0.035200
     46 H162        3.6190    3.4810    0.7230 h1        1 IIA      0.035200
     47 H171        4.7130    0.7490    1.6950 hc        1 IIA      0.052950
     48 H172        3.0650    1.4660    1.9330 hc        1 IIA      0.052950
     49 H27         5.1390    4.8620   -0.6500 h1        1 IIA      0.016700
     50 H281        6.8720    5.9480    0.8430 hc        1 IIA      0.040033
     51 H282        5.5240    5.1540    1.7440 hc        1 IIA      0.040033
     52 H283        7.1520    4.3530    1.6590 hc        1 IIA      0.040033
     53 H321        7.9980    3.6720   -0.8840 hc        1 IIA      0.040033
     54 H322        6.8420    4.0920   -2.2220 hc        1 IIA      0.040033
     55 H323        7.5510    5.4010   -1.2000 hc        1 IIA      0.040033
     56 H371       -0.2270   -1.3730   -2.1430 h1        1 IIA      0.090700
     57 H372       -0.9570   -3.0310   -2.4770 h1        1 IIA      0.090700
     58 H44        -1.5020    0.3490   -0.5060 ha        1 IIA      0.204000
     59 H48        -7.4840    1.5330    1.5100 ha        1 IIA      0.169000
     60 H49        -6.3610   -0.5980    0.4430 ha        1 IIA      0.173000
@<TRIPOS>BOND
     1    1    2 ar  
     2    1    6 ar  
     3    1   34 1   
     4    2    3 ar  
     5    2   35 1   
     6    3    4 ar  
     7    3    7 1   
     8    4    5 ar  
     9    4    9 1   
    10    5    6 ar  
    11    5   36 1   
    12    6   37 1   
    13    7    8 1   
    14    7   21 1   
    15    8    9 2   
    16    8   10 1   
    17    9   38 1   
    18   10   11 1   
    19   10   33 2   
    20   11   12 1   
    21   11   39 1   
    22   12   13 1   
    23   12   17 1   
    24   12   40 1   
    25   13   14 1   
    26   13   41 1   
    27   13   42 1   
    28   14   15 1   
    29   14   43 1   
    30   14   44 1   
    31   15   16 1   
    32   15   18 1   
    33   16   17 1   
    34   16   45 1   
    35   16   46 1   
    36   17   47 1   
    37   17   48 1   
    38   18   19 1   
    39   18   20 1   
    40   18   49 1   
    41   19   50 1   
    42   19   51 1   
    43   19   52 1   
    44   20   53 1   
    45   20   54 1   
    46   20   55 1   
    47   21   22 1   
    48   21   56 1   
    49   21   57 1   
    50   22   23 2   
    51   22   26 1   
    52   23   24 1   
    53   24   25 1   
    54   25   26 2   
    55   25   27 1   
    56   26   58 1   
    57   27   28 1   
    58   27   31 2   
    59   28   29 1   
    60   29   30 2   
    61   29   32 1   
    62   30   31 1   
    63   30   59 1   
    64   31   60 1   
@<TRIPOS>SUBSTRUCTURE
     1 IIA         1 TEMP              0 ****  ****    0 ROOT
