@<TRIPOS>MOLECULE
IIA
   61    65     1     0     0
SMALL
bcc


@<TRIPOS>ATOM
      1 C1          0.5010   -0.4860    0.6050 ca        1 IIA     -0.065000
      2 C2          1.8430   -0.3510    0.2980 ca        1 IIA     -0.148000
      3 C3          2.7600   -0.3300    1.3680 ca        1 IIA     -0.000200
      4 C4          2.2990   -0.4430    2.7350 ca        1 IIA     -0.120800
      5 C5          0.9300   -0.5870    2.9990 ca        1 IIA     -0.061000
      6 C6          0.0470   -0.6040    1.9370 ca        1 IIA     -0.140000
      7 N7          4.1620   -0.2730    1.3680 na        1 IIA     -0.025400
      8 C8          4.5710   -0.2500    2.7250 cc        1 IIA     -0.208300
      9 C9          3.4620   -0.3790    3.5720 cd        1 IIA     -0.071200
     10 C10         5.9720   -0.1640    3.1030 c         1 IIA      0.612300
     11 N11         6.2430    0.8060    4.2340 n4        1 IIA     -0.666800
     12 C12         6.8910    0.1480    5.4250 c3        1 IIA      0.119500
     13 C13         5.8960   -0.7080    6.2100 c3        1 IIA     -0.103400
     14 C14         6.5990   -1.3470    7.4130 c3        1 IIA      0.174800
     15 N15         7.2330   -0.3640    8.2730 n3        1 IIA     -0.743600
     16 C16         8.1670    0.4790    7.5420 c3        1 IIA      0.174800
     17 C17         7.5160    1.1920    6.3540 c3        1 IIA     -0.103400
     18 C27         7.8360   -0.9060    9.5030 c3        1 IIA      0.188500
     19 C28         7.8080    0.1360   10.6260 c3        1 IIA     -0.099100
     20 C32         7.1780   -2.1810   10.0270 c3        1 IIA     -0.099100
     21 C37         4.9750    0.1870    0.2750 c3        1 IIA     -0.007000
     22 C38         5.4730    1.5930    0.3970 cc        1 IIA      0.322600
     23 N41         5.9480    2.1640    1.5260 nd        1 IIA     -0.468300
     24 O42         6.3330    3.3950    1.2630 os        1 IIA     -0.111100
     25 C43         6.1170    3.6840   -0.1150 cd        1 IIA      0.419200
     26 C44         5.5650    2.5480   -0.6950 cc        1 IIA     -0.369600
     27 C45         6.4790    4.9740   -0.5750 cd        1 IIA     -0.244600
     28 S46         6.3120    5.4660   -2.1720 ss        1 IIA      0.133200
     29 C47         6.9210    6.9960   -1.8770 cd        1 IIA     -0.011700
     30 C48         7.2680    7.1660   -0.5420 cc        1 IIA     -0.158000
     31 C49         7.0120    5.9940    0.2140 cc        1 IIA     -0.081000
     32 CL50        7.0820    8.1580   -3.0600 cl        1 IIA      0.011600
     33 O56         6.9430   -0.7270    2.6180 o         1 IIA     -0.430100
     34 H1         -0.2400   -0.5050   -0.2110 ha        1 IIA      0.154000
     35 H2          2.1810   -0.2680   -0.7440 ha        1 IIA      0.149000
     36 H5          0.5770   -0.6860    4.0370 ha        1 IIA      0.151000
     37 H6         -1.0340   -0.7140    2.1200 ha        1 IIA      0.155000
     38 H9          3.4740   -0.4640    4.6580 ha        1 IIA      0.163000
     39 H11         6.8770    1.5350    3.8790 hn        1 IIA      0.466300
     40 H12         7.7100   -0.5170    5.0090 hx        1 IIA      0.116700
     41 H131        5.4870   -1.5290    5.5650 hc        1 IIA      0.068450
     42 H132        5.0390   -0.0790    6.5700 hc        1 IIA      0.068450
     43 H141        5.8070   -1.8830    8.0110 h1        1 IIA      0.056200
     44 H142        7.3310   -2.1170    7.0300 h1        1 IIA      0.056200
     45 H161        9.0560   -0.1060    7.1600 h1        1 IIA      0.056200
     46 H162        8.5530    1.2670    8.2490 h1        1 IIA      0.056200
     47 H171        8.3080    1.7770    5.8190 hc        1 IIA      0.068450
     48 H172        6.7340    1.9060    6.7240 hc        1 IIA      0.068450
     49 H27         8.9250   -1.1600    9.2980 h1        1 IIA      0.030700
     50 H281        8.3000   -0.2990   11.5300 hc        1 IIA      0.047200
     51 H282        8.3570    1.0630   10.3390 hc        1 IIA      0.047200
     52 H283        6.7580    0.4100   10.8870 hc        1 IIA      0.047200
     53 H321        7.2840   -3.0220    9.3000 hc        1 IIA      0.047200
     54 H322        6.0960   -2.0180   10.2460 hc        1 IIA      0.047200
     55 H323        7.6870   -2.4780   10.9760 hc        1 IIA      0.047200
     56 H371        4.3740    0.0970   -0.6760 h1        1 IIA      0.103700
     57 H372        5.8750   -0.4990    0.2020 h1        1 IIA      0.103700
     58 H44         5.2630    2.3840   -1.7250 ha        1 IIA      0.191000
     59 H48         7.6860    8.0830   -0.1170 ha        1 IIA      0.181000
     60 H49         7.2090    5.9050    1.2850 ha        1 IIA      0.168000
     61 H112        5.3640    1.2520    4.5170 hn        1 IIA      0.466300
@<TRIPOS>BOND
     1    1    2 ar  
     2    1    6 ar  
     3    1   34 1   
     4    2    3 ar  
     5    2   35 1   
     6    3    4 ar  
     7    3    7 1   
     8    4    5 ar  
     9    4    9 1   
    10    5    6 ar  
    11    5   36 1   
    12    6   37 1   
    13    7    8 1   
    14    7   21 1   
    15    8    9 2   
    16    8   10 1   
    17    9   38 1   
    18   10   11 1   
    19   10   33 2   
    20   11   12 1   
    21   11   39 1   
    22   11   61 1   
    23   12   13 1   
    24   12   17 1   
    25   12   40 1   
    26   13   14 1   
    27   13   41 1   
    28   13   42 1   
    29   14   15 1   
    30   14   43 1   
    31   14   44 1   
    32   15   16 1   
    33   15   18 1   
    34   16   17 1   
    35   16   45 1   
    36   16   46 1   
    37   17   47 1   
    38   17   48 1   
    39   18   19 1   
    40   18   20 1   
    41   18   49 1   
    42   19   50 1   
    43   19   51 1   
    44   19   52 1   
    45   20   53 1   
    46   20   54 1   
    47   20   55 1   
    48   21   22 1   
    49   21   56 1   
    50   21   57 1   
    51   22   23 2   
    52   22   26 1   
    53   23   24 1   
    54   24   25 1   
    55   25   26 2   
    56   25   27 1   
    57   26   58 1   
    58   27   28 1   
    59   27   31 2   
    60   28   29 1   
    61   29   30 2   
    62   29   32 1   
    63   30   31 1   
    64   30   59 1   
    65   31   60 1   
@<TRIPOS>SUBSTRUCTURE
     1 IIA         1 TEMP              0 ****  ****    0 ROOT
