@<TRIPOS>MOLECULE
IIA
   61    65     1     0     0
SMALL
bcc


@<TRIPOS>ATOM
      1 C1          0.5150   -0.4670    0.5760 ca        1 IIA     -0.065000
      2 C2          1.8590   -0.3350    0.2770 ca        1 IIA     -0.148000
      3 C3          2.7700   -0.3190    1.3520 ca        1 IIA     -0.000200
      4 C4          2.3010   -0.4310    2.7160 ca        1 IIA     -0.120800
      5 C5          0.9300   -0.5710    2.9730 ca        1 IIA     -0.061000
      6 C6          0.0530   -0.5850    1.9050 ca        1 IIA     -0.140000
      7 N7          4.1720   -0.2650    1.3590 na        1 IIA     -0.025400
      8 C8          4.5740   -0.2440    2.7180 cc        1 IIA     -0.208300
      9 C9          3.4600   -0.3720    3.5600 cd        1 IIA     -0.071200
     10 C10         5.9730   -0.1630    3.1040 c         1 IIA      0.612300
     11 N11         6.2400    0.8040    4.2380 ny        1 IIA     -0.666800
     12 C12         6.8800    0.1430    5.4310 c3        1 IIA      0.119500
     13 C13         5.8790   -0.7120    6.2100 c3        1 IIA     -0.103400
     14 C14         6.5750   -1.3530    7.4150 c3        1 IIA      0.174800
     15 N15         7.2060   -0.3730    8.2800 n3        1 IIA     -0.743600
     16 C16         8.1460    0.4690    7.5550 c3        1 IIA      0.174800
     17 C17         7.5030    1.1850    6.3650 c3        1 IIA     -0.103400
     18 C27         7.8020   -0.9180    9.5120 c3        1 IIA      0.188500
     19 C28         7.7690    0.1210   10.6380 c3        1 IIA     -0.099100
     20 C32         7.1390   -2.1930   10.0300 c3        1 IIA     -0.099100
     21 C37         4.9930    0.1940    0.2710 c3        1 IIA     -0.007000
     22 C38         5.4940    1.5980    0.3970 cc        1 IIA      0.322600
     23 N41         5.9650    2.1660    1.5290 nd        1 IIA     -0.468300
     24 O42         6.3560    3.3960    1.2690 os        1 IIA     -0.111100
     25 C43         6.1480    3.6870   -0.1090 cd        1 IIA      0.419200
     26 C44         5.5950    2.5530   -0.6940 cc        1 IIA     -0.369600
     27 C45         6.5170    4.9760   -0.5670 cd        1 IIA     -0.244600
     28 S46         6.3610    5.4690   -2.1650 ss        1 IIA      0.133200
     29 C47         6.9740    6.9970   -1.8650 cd        1 IIA     -0.011700
     30 C48         7.3130    7.1650   -0.5270 cc        1 IIA     -0.158000
     31 C49         7.0490    5.9930    0.2260 cc        1 IIA     -0.081000
     32 Cl50        7.1460    8.1590   -3.0460 cl        1 IIA      0.011600
     33 O56         6.9450   -0.7280    2.6230 o         1 IIA     -0.430100
     34 H1         -0.2220   -0.4830   -0.2440 ha        1 IIA      0.154000
     35 H2          2.2030   -0.2520   -0.7630 ha        1 IIA      0.149000
     36 H5          0.5710   -0.6710    4.0080 ha        1 IIA      0.151000
     37 H6         -1.0290   -0.6920    2.0830 ha        1 IIA      0.155000
     38 H9          3.4660   -0.4580    4.6450 ha        1 IIA      0.163000
     39 H11         5.3610    1.2520    4.5170 hn        1 IIA      0.466300
     40 H12         7.7000   -0.5220    5.0190 hx        1 IIA      0.116700
     41 H131        5.4730   -1.5310    5.5610 hc        1 IIA      0.068450
     42 H132        5.0220   -0.0810    6.5660 hc        1 IIA      0.068450
     43 H141        7.3070   -2.1250    7.0350 h1        1 IIA      0.056200
     44 H142        5.7790   -1.8890    8.0080 h1        1 IIA      0.056200
     45 H161        9.0360   -0.1180    7.1770 h1        1 IIA      0.056200
     46 H162        8.5300    1.2550    8.2660 h1        1 IIA      0.056200
     47 H171        8.2990    1.7700    5.8350 hc        1 IIA      0.068450
     48 H172        6.7210    1.9000    6.7330 hc        1 IIA      0.068450
     49 H27         8.8910   -1.1740    9.3140 h1        1 IIA      0.030700
     50 H281        8.3220    1.0480   10.3550 hc        1 IIA      0.047200
     51 H282        6.7180    0.3970   10.8930 hc        1 IIA      0.047200
     52 H283        8.2560   -0.3150   11.5430 hc        1 IIA      0.047200
     53 H321        7.2470   -3.0330    9.3030 hc        1 IIA      0.047200
     54 H322        7.6420   -2.4930   10.9820 hc        1 IIA      0.047200
     55 H323        6.0560   -2.0290   10.2450 hc        1 IIA      0.047200
     56 H371        5.8910   -0.4950    0.2020 h1        1 IIA      0.103700
     57 H372        4.3960    0.1060   -0.6830 h1        1 IIA      0.103700
     58 H44         5.2990    2.3910   -1.7250 ha        1 IIA      0.191000
     59 H48         7.7320    8.0800   -0.1000 ha        1 IIA      0.181000
     60 H49         7.2400    5.9030    1.2980 ha        1 IIA      0.168000
     61 H112        6.8780    1.5330    3.8870 hn        1 IIA      0.466300
@<TRIPOS>BOND
     1    1    2 ar  
     2    1    6 ar  
     3    1   34 1   
     4    2    3 ar  
     5    2   35 1   
     6    3    4 ar  
     7    3    7 1   
     8    4    5 ar  
     9    4    9 1   
    10    5    6 ar  
    11    5   36 1   
    12    6   37 1   
    13    7    8 1   
    14    7   21 1   
    15    8    9 2   
    16    8   10 1   
    17    9   38 1   
    18   10   11 1   
    19   10   33 2   
    20   11   12 1   
    21   11   39 1   
    22   11   61 1   
    23   12   13 1   
    24   12   17 1   
    25   12   40 1   
    26   13   14 1   
    27   13   41 1   
    28   13   42 1   
    29   14   15 1   
    30   14   43 1   
    31   14   44 1   
    32   15   16 1   
    33   15   18 1   
    34   16   17 1   
    35   16   45 1   
    36   16   46 1   
    37   17   47 1   
    38   17   48 1   
    39   18   19 1   
    40   18   20 1   
    41   18   49 1   
    42   19   50 1   
    43   19   51 1   
    44   19   52 1   
    45   20   53 1   
    46   20   54 1   
    47   20   55 1   
    48   21   22 1   
    49   21   56 1   
    50   21   57 1   
    51   22   23 2   
    52   22   26 1   
    53   23   24 1   
    54   24   25 1   
    55   25   26 2   
    56   25   27 1   
    57   26   58 1   
    58   27   28 1   
    59   27   31 2   
    60   28   29 1   
    61   29   30 2   
    62   29   32 1   
    63   30   31 1   
    64   30   59 1   
    65   31   60 1   
@<TRIPOS>SUBSTRUCTURE
     1 IIA         1 TEMP              0 ****  ****    0 ROOT
