@<TRIPOS>MOLECULE
IIB
   64    68     1     0     0
SMALL
bcc


@<TRIPOS>ATOM
      1 C1         -3.2880   -5.2100    0.9760 ca        1 IIB     -0.112000
      2 C2         -2.3560   -4.3370    1.5340 ca        1 IIB     -0.063300
      3 C3         -2.2590   -3.0470    0.9670 ca        1 IIB     -0.028200
      4 C4         -3.1670   -2.6560   -0.0850 ca        1 IIB     -0.072800
      5 C5         -4.0940   -3.5580   -0.6080 ca        1 IIB     -0.088000
      6 C6         -4.1350   -4.8380   -0.0800 ca        1 IIB     -0.138000
      7 N7         -1.4580   -1.9300    1.3020 na        1 IIB     -0.032400
      8 C8         -1.8540   -0.8600    0.4750 cc        1 IIB     -0.068300
      9 C9         -2.8960   -1.2630   -0.3690 cd        1 IIB     -0.015900
     10 C10        -1.2770    0.5130    0.5830 c         1 IIB      0.693300
     11 N11        -2.1660    1.5500    0.4480 n         1 IIB     -0.546900
     12 C12        -1.7560    2.9400    0.4750 c3        1 IIB      0.096700
     13 C13        -2.4210    3.7190    1.6200 c3        1 IIB     -0.093900
     14 C14        -1.9170    5.1590    1.6360 c3        1 IIB      0.168800
     15 N15        -2.0910    5.8660    0.3740 n3        1 IIB     -0.724600
     16 C16        -1.5860    5.1140   -0.7680 c3        1 IIB      0.168800
     17 C17        -2.0810    3.6720   -0.8350 c3        1 IIB     -0.093900
     18 C27        -1.5220    7.2250    0.4270 c3        1 IIB      0.183500
     19 C28        -1.7440    8.0050   -0.8720 c3        1 IIB     -0.094100
     20 C32        -2.0940    8.0540    1.5800 c3        1 IIB     -0.094100
     21 C37        -0.1730   -1.9870    1.9520 c3        1 IIB      0.004000
     22 C38         0.9580   -2.4450    1.0850 cc        1 IIB      0.277600
     23 N41         1.2910   -3.7230    0.8070 nd        1 IIB     -0.343300
     24 O42         2.3550   -3.7400    0.0420 os        1 IIB     -0.106100
     25 C43         2.7800   -2.4050   -0.2310 cd        1 IIB      0.339200
     26 C44         1.9060   -1.5530    0.4220 cc        1 IIB     -0.327600
     27 C45         3.9260   -2.2430   -1.0540 cd        1 IIB     -0.183600
     28 S46         4.5330   -0.7390   -1.4950 ss        1 IIB      0.100200
     29 C47         5.7870   -1.3950   -2.3940 cd        1 IIB     -0.033700
     30 C48         5.7660   -2.7810   -2.3760 cc        1 IIB     -0.152000
     31 C49         4.6840   -3.2740   -1.5980 cc        1 IIB     -0.108000
     32 CL50        6.9130   -0.4620   -3.2030 cl        1 IIB     -0.022400
     33 O56        -0.0610    0.7070    0.7990 o         1 IIB     -0.626100
     34 C7         -3.5720   -0.4880   -1.3230 ch        1 IIB      0.220500
     35 N1         -4.1400    0.1360   -2.1260 n1        1 IIB     -0.368800
     36 C11        -1.5540   -4.7790    2.6960 c3        1 IIB     -0.060800
     37 H1         -3.3710   -6.2300    1.3830 ha        1 IIB      0.136000
     38 H5         -4.7720   -3.2490   -1.4160 ha        1 IIB      0.145000
     39 H6         -4.8470   -5.5760   -0.4800 ha        1 IIB      0.137000
     40 H11        -3.1260    1.3640    0.2780 hn        1 IIB      0.324500
     41 H12        -0.6340    2.9640    0.6310 h1        1 IIB      0.087700
     42 H131       -3.5350    3.7060    1.4970 hc        1 IIB      0.055950
     43 H132       -2.1750    3.2510    2.6070 hc        1 IIB      0.055950
     44 H141       -0.8340    5.1540    1.9630 h1        1 IIB      0.035700
     45 H142       -2.5090    5.7150    2.4180 h1        1 IIB      0.035700
     46 H161       -1.9440    5.6360   -1.7010 h1        1 IIB      0.035700
     47 H162       -0.4560    5.1050   -0.7910 h1        1 IIB      0.035700
     48 H171       -3.1860    3.6560   -1.0220 hc        1 IIB      0.055950
     49 H172       -1.5760    3.1690   -1.7000 hc        1 IIB      0.055950
     50 H27        -0.3990    7.1580    0.5890 h1        1 IIB      0.016700
     51 H281       -1.4300    9.0650   -0.7190 hc        1 IIB      0.040033
     52 H282       -1.1310    7.5810   -1.7030 hc        1 IIB      0.040033
     53 H283       -2.8190    7.9900   -1.1700 hc        1 IIB      0.040033
     54 H321       -1.7440    9.1100    1.4790 hc        1 IIB      0.040033
     55 H322       -3.2100    8.0450    1.5660 hc        1 IIB      0.040033
     56 H323       -1.7400    7.6680    2.5660 hc        1 IIB      0.040033
     57 H371        0.0790   -0.9450    2.3140 h1        1 IIB      0.095200
     58 H372       -0.2660   -2.6670    2.8470 h1        1 IIB      0.095200
     59 H44         1.8740   -0.4660    0.4530 ha        1 IIB      0.205000
     60 H48         6.4830   -3.4260   -2.8910 ha        1 IIB      0.169000
     61 H49         4.4740   -4.3370   -1.4480 ha        1 IIB      0.173000
     62 H111       -1.6790   -4.0680    3.5520 hc        1 IIB      0.051700
     63 H112       -1.8840   -5.7900    3.0440 hc        1 IIB      0.051700
     64 H113       -0.4690   -4.8480    2.4360 hc        1 IIB      0.051700
@<TRIPOS>BOND
     1    1    2 ar  
     2    1    6 ar  
     3    1   37 1   
     4    2    3 ar  
     5    2   36 1   
     6    3    4 ar  
     7    3    7 1   
     8    4    5 ar  
     9    4    9 1   
    10    5    6 ar  
    11    5   38 1   
    12    6   39 1   
    13    7    8 1   
    14    7   21 1   
    15    8    9 2   
    16    8   10 1   
    17    9   34 1   
    18   10   11 1   
    19   10   33 2   
    20   11   12 1   
    21   11   40 1   
    22   12   13 1   
    23   12   17 1   
    24   12   41 1   
    25   13   14 1   
    26   13   42 1   
    27   13   43 1   
    28   14   15 1   
    29   14   44 1   
    30   14   45 1   
    31   15   16 1   
    32   15   18 1   
    33   16   17 1   
    34   16   46 1   
    35   16   47 1   
    36   17   48 1   
    37   17   49 1   
    38   18   19 1   
    39   18   20 1   
    40   18   50 1   
    41   19   51 1   
    42   19   52 1   
    43   19   53 1   
    44   20   54 1   
    45   20   55 1   
    46   20   56 1   
    47   21   22 1   
    48   21   57 1   
    49   21   58 1   
    50   22   23 2   
    51   22   26 1   
    52   23   24 1   
    53   24   25 1   
    54   25   26 2   
    55   25   27 1   
    56   26   59 1   
    57   27   28 1   
    58   27   31 2   
    59   28   29 1   
    60   29   30 2   
    61   29   32 1   
    62   30   31 1   
    63   30   60 1   
    64   31   61 1   
    65   34   35 3   
    66   36   62 1   
    67   36   63 1   
    68   36   64 1   
@<TRIPOS>SUBSTRUCTURE
     1 IIB         1 TEMP              0 ****  ****    0 ROOT
