@<TRIPOS>MOLECULE
IIB
   64    56     1     0     0
SMALL
bcc


@<TRIPOS>ATOM
      1 C1         -4.5560   -0.7490   -3.5590 c1        1 IIB     -0.126000
      2 C2         -3.1700   -0.6450   -3.5720 c1        1 IIB     -0.070000
      3 C3         -2.4540   -0.6080   -2.3560 c1        1 IIB      0.018000
      4 C4         -3.1250   -0.6750   -1.1630 c1        1 IIB     -0.055000
      5 C5         -4.5340   -0.7820   -1.1510 c1        1 IIB     -0.084000
      6 C6         -5.2380   -0.8180   -2.3480 c1        1 IIB     -0.126000
      7 N7         -1.0940   -0.5090   -2.0790 n1        1 IIB     -0.120000
      8 C8         -0.9350   -0.5170   -0.7120 c1        1 IIB     -0.005000
      9 C9         -2.1850   -0.6190   -0.1380 c1        1 IIB     -0.070000
     10 C10        -0.0480   -1.2120    0.3700 c1        1 IIB      0.367000
     11 N11        -0.2400   -0.8970    1.7830 n3        1 IIB     -0.353000
     12 C12         0.6680   -1.4850    2.8090 c3        1 IIB      0.021000
     13 C13        -0.0130   -1.4470    4.1300 c3        1 IIB     -0.173000
     14 C14         0.9130   -1.8580    5.2720 c3        1 IIB     -0.068500
     15 N15         2.1770   -1.1120    5.2670 n3        1 IIB     -0.250000
     16 C16         2.8550   -1.1470    3.9630 c3        1 IIB     -0.068500
     17 C17         1.9350   -0.7340    2.8120 c3        1 IIB     -0.173000
     18 C27         3.0710   -1.6540    6.3000 c3        1 IIB     -0.014000
     19 C28         4.3270   -0.7860    6.3960 c3        1 IIB     -0.212000
     20 C32         2.3540   -1.6550    7.6440 c3        1 IIB     -0.212000
     21 C37         0.0010   -0.2480   -2.9820 c2        1 IIB      0.030000
     22 C38        -0.0760    1.2050   -3.4780 c2        1 IIB     -0.136000
     23 N41        -0.6520    2.2390   -2.8210 n2        1 IIB      0.000000
     24 O42        -0.4430    3.3980   -3.5710 os        1 IIB     -0.063000
     25 C43         0.2610    3.0590   -4.6810 c2        1 IIB      0.059000
     26 C44         0.4970    1.7000   -4.6370 c1        1 IIB     -0.218000
     27 C45         0.6100    3.9250   -5.7360 c2        1 IIB     -0.363000
     28 S46         1.9000    4.7910   -5.8200 ss        1 IIB      0.690000
     29 C47         1.8120    5.6390   -7.1230 c1        1 IIB     -0.391000
     30 C48         0.5600    5.3130   -7.7850 c1        1 IIB     -0.154000
     31 C49        -0.2050    4.2230   -6.9020 c1        1 IIB     -0.117000
     32 CL50        3.0160    6.7580   -7.7030 cl        1 IIB      0.061000
     33 O56         0.8520   -1.9540    0.0310 o         1 IIB     -0.376000
     34 C7         -3.0280   -0.9120    1.0920 c1        1 IIB     -0.068000
     35 N1         -3.6610   -1.1320    2.0140 n1        1 IIB     -0.047000
     36 C11        -2.9940   -0.6470   -5.0860 c3        1 IIB     -0.182000
     37 H1         -5.0530   -0.7750   -4.4040 ha        1 IIB      0.135500
     38 H5         -5.0150   -0.8300   -0.2980 ha        1 IIB      0.146000
     39 H6         -6.2130   -0.8920   -2.3400 ha        1 IIB      0.135500
     40 H11        -0.9130   -0.3400    2.0370 hn        1 IIB      0.239000
     41 H12         0.8510   -2.4130    2.5750 h1        1 IIB      0.128000
     42 H131       -0.3320   -0.5370    4.2940 hc        1 IIB      0.096000
     43 H132       -0.7810   -2.0540    4.1100 hc        1 IIB      0.096000
     44 H141        1.1090   -2.8110    5.1920 h1        1 IIB      0.074250
     45 H142        0.4550   -1.7000    6.1230 h1        1 IIB      0.074250
     46 H161        3.6250   -0.5370    3.9890 h1        1 IIB      0.074250
     47 H162        3.1780   -2.0560    3.7990 h1        1 IIB      0.074250
     48 H171        1.7370    0.2160    2.8920 hc        1 IIB      0.096000
     49 H172        2.3960   -0.8900    1.9680 hc        1 IIB      0.096000
     50 H27         3.3240   -2.5690    6.0650 h1        1 IIB      0.055000
     51 H281        4.8520   -1.0540    7.1880 hc        1 IIB      0.078833
     52 H282        4.8680   -0.9060    5.5900 hc        1 IIB      0.078833
     53 H283        4.0680    0.1540    6.4780 hc        1 IIB      0.078833
     54 H321        2.9790   -1.9380    8.3480 hc        1 IIB      0.078833
     55 H322        2.0260   -0.7520    7.8410 hc        1 IIB      0.078833
     56 H323        1.6000   -2.2750    7.6090 hc        1 IIB      0.078833
     57 H371        0.8550   -0.3900   -2.5120 ha        1 IIB      0.144500
     58 H372       -0.0540   -0.8580   -3.7480 ha        1 IIB      0.144500
     59 H44         0.9820    1.1800   -5.3060 DU        1 IIB      0.169667
     60 H48         0.2400    5.6970   -8.6280 DU        1 IIB      0.169667
     61 H49        -1.0710    3.8250   -7.1110 DU        1 IIB      0.169667
     62 H111       -2.8000   -1.5600   -5.3920 hc        1 IIB      0.086000
     63 H112       -3.8200   -0.3270   -5.5140 hc        1 IIB      0.086000
     64 H113       -2.2490   -0.0570   -5.3300 hc        1 IIB      0.086000
@<TRIPOS>BOND
     1    1    6 1   
     2    1   37 1   
     3    2    3 1   
     4    2   36 1   
     5    4    5 1   
     6    5   38 1   
     7    6   39 1   
     8    7    8 1   
     9    8    9 1   
    10   10   11 1   
    11   10   33 1   
    12   11   12 1   
    13   11   40 1   
    14   12   13 1   
    15   12   17 1   
    16   12   41 1   
    17   13   14 1   
    18   13   42 1   
    19   13   43 1   
    20   14   15 1   
    21   14   44 1   
    22   14   45 1   
    23   15   16 1   
    24   15   18 1   
    25   16   17 1   
    26   16   46 1   
    27   16   47 1   
    28   17   48 1   
    29   17   49 1   
    30   18   19 1   
    31   18   20 1   
    32   18   50 1   
    33   19   51 1   
    34   19   52 1   
    35   19   53 1   
    36   20   54 1   
    37   20   55 1   
    38   20   56 1   
    39   21   22 1   
    40   21   57 1   
    41   21   58 1   
    42   22   23 1   
    43   22   26 1   
    44   23   24 1   
    45   24   25 1   
    46   25   26 1   
    47   25   27 1   
    48   27   28 1   
    49   27   31 1   
    50   28   29 1   
    51   29   30 1   
    52   30   31 1   
    53   34   35 1   
    54   36   62 1   
    55   36   63 1   
    56   36   64 1   
@<TRIPOS>SUBSTRUCTURE
     1 IIB         1 TEMP              0 ****  ****    0 ROOT
