@<TRIPOS>MOLECULE
IIB
   65    69     1     0     0
SMALL
bcc


@<TRIPOS>ATOM
      1 C1          0.0000    0.0000    0.0000 ca        1 IIB     -0.100000
      2 C2          1.3770    0.0000    0.0000 ca        1 IIB     -0.055300
      3 C3          2.0700    0.0000    1.2090 ca        1 IIB     -0.195200
      4 C4          1.3450    0.0010    2.4150 ca        1 IIB     -0.085800
      5 C5         -0.0510    0.0020    2.3910 ca        1 IIB     -0.067000
      6 C6         -0.7090    0.0000    1.1930 ca        1 IIB     -0.126000
      7 N7          3.4090   -0.0000    1.5190 na        1 IIB      0.401600
      8 C8          3.5830    0.0000    2.8790 cc        1 IIB     -0.394300
      9 C9          2.3420   -0.0050    3.4940 cd        1 IIB      0.120100
     10 C10         4.8810    0.0000    3.5730 c         1 IIB      0.470300
     11 N11         5.5190   -1.1630    3.8090 ny        1 IIB      0.027200
     12 C12         6.7540   -1.1750    4.5970 c3        1 IIB     -0.040500
     13 C13         7.9490   -0.8890    3.6810 c3        1 IIB     -0.014900
     14 C14         9.2430   -1.0160    4.4880 c3        1 IIB      0.108300
     15 N15         9.3740   -2.3830    5.0050 n3        1 IIB     -0.388600
     16 C16         8.2860   -2.5920    5.9650 c3        1 IIB      0.108300
     17 C17         6.9390   -2.5520    5.2400 c3        1 IIB     -0.014900
     18 C27        10.6270   -2.4260    5.7700 c3        1 IIB     -0.019500
     19 C28        10.7910   -3.8100    6.4020 c3        1 IIB     -0.047600
     20 C32        11.8060   -2.1500    4.8350 c3        1 IIB     -0.047600
     21 C37         4.4950   -0.0020    0.5370 c3        1 IIB     -0.027000
     22 C38         4.8710    1.4190    0.2010 cc        1 IIB      0.227600
     23 N41         4.0730    2.3530   -0.2350 nd        1 IIB     -0.272300
     24 O42         4.6540    3.3980   -0.4150 os        1 IIB      0.029900
     25 C43         5.9630    3.2880   -0.1230 cd        1 IIB      0.344200
     26 C44         6.1530    1.9920    0.2890 cc        1 IIB     -0.355600
     27 C45         6.9830    4.3420   -0.2240 cd        1 IIB     -0.034600
     28 S46         8.7270    4.2600    0.1470 ss        1 IIB     -0.274800
     29 C47         9.1520    5.9470   -0.2550 cd        1 IIB      0.095300
     30 C48         7.9540    6.4620   -0.6430 cc        1 IIB     -0.163000
     31 C49         6.8410    5.6540   -0.6370 cc        1 IIB     -0.079000
     32 Cl50       10.6990    6.7290   -0.1730 cl        1 IIB      0.129600
     33 O56         5.3780    1.0500    3.9340 o         1 IIB     -0.396100
     34 C7          2.0820   -0.0120    4.9030 ch        1 IIB      0.172500
     35 N1          1.8560   -0.0160    6.0160 n1        1 IIB     -0.322800
     36 C11         2.1320   -0.0020   -1.3040 c3        1 IIB      0.011200
     37 H1         -0.8360    0.5720   -0.3840 ha        1 IIB      0.163000
     38 H5         -0.5600   -0.2930    3.3000 ha        1 IIB      0.119000
     39 H6         -1.6990    0.3920    1.3920 ha        1 IIB      0.126000
     40 H11         5.8190   -1.4550    2.8990 hn        1 IIB      0.287800
     41 H12         6.7040   -0.4190    5.3710 hx        1 IIB      0.108700
     42 H131        7.9000   -1.7780    3.0640 hc        1 IIB      0.021450
     43 H132        7.8680   -0.2070    2.8440 hc        1 IIB      0.021450
     44 H141        9.9000   -1.0590    3.6280 h1        1 IIB      0.049450
     45 H142        9.3450    0.0530    4.6350 h1        1 IIB      0.049450
     46 H161        8.3440   -3.6150    6.3160 h1        1 IIB      0.049450
     47 H162        8.5030   -2.2770    6.9790 h1        1 IIB      0.049450
     48 H171        6.7370   -3.3730    4.5640 hc        1 IIB      0.021450
     49 H172        6.0730   -2.4860    5.8880 hc        1 IIB      0.021450
     50 H27        10.9410   -2.4880    6.8060 h1        1 IIB      0.149700
     51 H281        9.9200   -3.8230    7.0460 hc        1 IIB      0.020533
     52 H282       10.8860   -4.7620    5.8930 hc        1 IIB      0.020533
     53 H283       11.6340   -3.9360    7.0700 hc        1 IIB      0.020533
     54 H321       11.7960   -3.1240    4.3610 hc        1 IIB      0.020533
     55 H322       11.1700   -1.6420    4.1200 hc        1 IIB      0.020533
     56 H323       12.8090   -1.8210    5.0790 hc        1 IIB      0.020533
     57 H371        5.0710    0.1450    1.4430 h1        1 IIB      0.033200
     58 H372        4.3740   -1.0020    0.1390 h1        1 IIB      0.033200
     59 H44         7.0950    1.6580    0.7070 ha        1 IIB      0.151000
     60 H48         7.9000    7.4170   -1.1520 ha        1 IIB      0.136000
     61 H49         5.9870    6.1530   -1.0790 ha        1 IIB      0.131000
     62 H111        1.3430   -0.2280   -2.0110 hc        1 IIB      0.047700
     63 H112        2.3200    1.0590   -1.4090 hc        1 IIB      0.047700
     64 H113        2.6470   -0.8850   -0.9460 hc        1 IIB      0.047700
     65 H114        5.2600   -2.1010    3.5760 hn        1 IIB      0.287800
@<TRIPOS>BOND
     1    1    2 ar  
     2    1    6 ar  
     3    1   37 1   
     4    2    3 ar  
     5    2   36 1   
     6    3    4 ar  
     7    3    7 1   
     8    4    5 ar  
     9    4    9 1   
    10    5    6 ar  
    11    5   38 1   
    12    6   39 1   
    13    7    8 1   
    14    7   21 1   
    15    8    9 2   
    16    8   10 1   
    17    9   34 1   
    18   10   11 1   
    19   10   33 2   
    20   11   12 1   
    21   11   40 1   
    22   11   65 1   
    23   12   13 1   
    24   12   17 1   
    25   12   41 1   
    26   13   14 1   
    27   13   42 1   
    28   13   43 1   
    29   14   15 1   
    30   14   44 1   
    31   14   45 1   
    32   15   16 1   
    33   15   18 1   
    34   16   17 1   
    35   16   46 1   
    36   16   47 1   
    37   17   48 1   
    38   17   49 1   
    39   18   19 1   
    40   18   20 1   
    41   18   50 1   
    42   19   51 1   
    43   19   52 1   
    44   19   53 1   
    45   20   54 1   
    46   20   55 1   
    47   20   56 1   
    48   21   22 1   
    49   21   57 1   
    50   21   58 1   
    51   22   23 2   
    52   22   26 1   
    53   23   24 1   
    54   24   25 1   
    55   25   26 2   
    56   25   27 1   
    57   26   59 1   
    58   27   28 1   
    59   27   31 2   
    60   28   29 1   
    61   29   30 2   
    62   29   32 1   
    63   30   31 1   
    64   30   60 1   
    65   31   61 1   
    66   34   35 3   
    67   36   62 1   
    68   36   63 1   
    69   36   64 1   
@<TRIPOS>SUBSTRUCTURE
     1 IIB         1 TEMP              0 ****  ****    0 ROOT
