@<TRIPOS>MOLECULE
IIC
   34    30     1     0     0
SMALL
bcc


@<TRIPOS>ATOM
      1 C1         -1.0820   -0.6170   -0.8020 c3        1 IIC      0.044000
      2 N2          0.2920   -0.6000   -0.8200 n2        1 IIC     -0.138000
      3 CA2         0.8500   -0.5890    0.3460 c1        1 IIC     -0.092000
      4 C2         -0.0460   -0.5120    1.4230 c1        1 IIC      0.285000
      5 O2          0.1640   -0.9090    2.5590 o         1 IIC     -0.416000
      6 N3         -1.3690   -0.3770    0.7830 n2        1 IIC     -0.278000
      7 CA1        -1.5850    0.3880   -1.6550 c3        1 IIC     -0.062000
      8 N1         -0.4890    1.0120   -2.3620 n3        1 IIC     -0.325000
      9 CB1        -2.5790   -0.2560   -2.6890 c3        1 IIC     -0.058000
     10 OG1        -3.1700    0.7730   -3.4860 oh        1 IIC     -0.351000
     11 CA3        -2.6440   -0.4980    1.4440 c3        1 IIC     -0.096000
     12 C3         -2.7710    0.6070    2.5240 c2        1 IIC      0.330000
     13 O3         -2.4330    0.3620    3.7250 o         1 IIC     -0.567000
     14 CB2         2.2090   -1.2320    0.5380 c2        1 IIC     -0.033000
     15 CG2         3.2300   -0.1690    0.8540 c2        1 IIC     -0.109000
     16 ND1         3.7590    0.0740    2.0490 n2        1 IIC     -0.175000
     17 CE1         4.7090    1.0170    1.8980 c1        1 IIC     -0.117000
     18 NE2         4.7600    1.3550    0.5870 n2        1 IIC     -0.162000
     19 CD2         3.8580    0.6340   -0.0570 c1        1 IIC     -0.185000
     20 OXT        -3.2860    1.7150    2.2290 o         1 IIC     -0.567000
     21 H1         -1.5420   -1.4020   -1.1360 h2        1 IIC      0.185000
     22 HA1        -2.0580    1.0630   -1.1220 h1        1 IIC      0.158000
     23 H11        -0.6160    0.9200   -3.2600 hn        1 IIC      0.138000
     24 H12        -0.4540    1.9280   -2.1410 hn        1 IIC      0.138000
     25 HB21        2.4680   -1.7000   -0.2870 ha        1 IIC      0.112500
     26 HB11       -2.0910   -0.8780   -3.2680 h1        1 IIC      0.098500
     27 HB12       -3.2910   -0.7460   -2.2010 h1        1 IIC      0.098500
     28 HG1        -3.7610    0.4080   -4.0580 ho        1 IIC      0.204000
     29 HA31       -3.3810   -0.3960    0.7730 h1        1 IIC      0.089500
     30 HA32       -2.7080   -1.3720    1.8650 h1        1 IIC      0.089500
     31 HB2         2.1650   -1.8830    1.2880 ha        1 IIC      0.112500
     32 HD1         3.4930   -0.2930    2.8340 DU        1 IIC      0.216000
     33 HE1         5.3110    1.3470    2.6030 DU        1 IIC      0.216000
     34 HD2         4.0880    0.8250   -0.9810 DU        1 IIC      0.216000
@<TRIPOS>BOND
     1    1    2 1   
     2    1    6 1   
     3    1    7 1   
     4    1   21 1   
     5    2    3 1   
     6    3    4 1   
     7    4    5 1   
     8    6   11 1   
     9    7    8 1   
    10    7    9 1   
    11    7   22 1   
    12    8   23 1   
    13    8   24 1   
    14    9   10 1   
    15    9   26 1   
    16    9   27 1   
    17   10   28 1   
    18   11   12 1   
    19   11   29 1   
    20   11   30 1   
    21   12   13 1   
    22   12   20 1   
    23   14   15 1   
    24   14   25 1   
    25   14   31 1   
    26   15   16 1   
    27   15   19 1   
    28   16   17 1   
    29   17   18 1   
    30   18   19 1   
@<TRIPOS>SUBSTRUCTURE
     1 IIC         1 TEMP              0 ****  ****    0 ROOT
