@<TRIPOS>MOLECULE
IIC
   34    35     1     0     0
SMALL
bcc


@<TRIPOS>ATOM
      1 C1          0.8800   -0.6660   -0.2810 c3        1 IIC      0.153900
      2 N2         -0.4910   -0.1100   -0.4140 n2        1 IIC     -0.566900
      3 CA2        -0.5980    0.8930    0.4110 ce        1 IIC      0.335300
      4 C2          0.6970    1.1090    1.2150 c         1 IIC      0.554200
      5 O2          0.8690    1.9650    2.0920 o         1 IIC     -0.617500
      6 N3          1.5590    0.0640    0.8330 n         1 IIC     -0.414800
      7 CA1         0.8750   -2.2090   -0.0310 c3        1 IIC      0.147500
      8 N1          0.2540   -2.6440    1.2000 n3        1 IIC     -0.919800
      9 CB1         0.2450   -2.8840   -1.2650 c3        1 IIC      0.140400
     10 OG1         0.5390   -4.2660   -1.3180 oh        1 IIC     -0.612800
     11 CA3         2.9870    0.2560    0.7640 c3        1 IIC     -0.063000
     12 C3          3.6060    0.8040   -0.5560 c         1 IIC      0.901600
     13 O3          2.8800    0.9390   -1.5820 o         1 IIC     -0.826800
     14 CB2        -1.7260    1.8360    0.6080 c3        1 IIC     -0.033400
     15 CG2        -3.0580    1.3180    0.2450 cc        1 IIC     -0.195900
     16 ND1        -3.3660    0.6030   -0.9150 na        1 IIC     -0.289900
     17 CE1        -4.7370    0.3390   -0.8750 cc        1 IIC      0.366400
     18 NE2        -5.3130    0.8630    0.2320 nd        1 IIC     -0.681000
     19 CD2        -4.2820    1.4720    0.9380 cd        1 IIC      0.276200
     20 OXT         4.8360    1.0650   -0.5030 o         1 IIC     -0.826800
     21 H1          1.4300   -0.4560   -1.2610 h2        1 IIC      0.171700
     22 HA1         1.9620   -2.5260    0.0120 h1        1 IIC      0.085700
     23 H11         0.7560   -2.2840    1.9880 hn        1 IIC      0.355800
     24 H12        -0.6970   -2.3350    1.2510 hn        1 IIC      0.355800
     25 HB21       -1.7380    2.1400    1.6930 hc        1 IIC      0.086700
     26 HB11       -0.8670   -2.7350   -1.2850 h1        1 IIC      0.050200
     27 HB12        0.7000   -2.4590   -2.2000 h1        1 IIC      0.050200
     28 HG1         0.3100   -4.6470   -0.4620 ho        1 IIC      0.408000
     29 HA31        3.2760    0.9600    1.5930 h1        1 IIC      0.056200
     30 HA32        3.4570   -0.7480    0.9600 h1        1 IIC      0.056200
     31 HB2        -1.5040    2.7630    0.0040 hc        1 IIC      0.086700
     32 HD1        -2.7160    0.2780   -1.5840 hn        1 IIC      0.321700
     33 HE1        -5.2530   -0.2190   -1.6610 h5        1 IIC      0.052100
     34 HD2        -4.4540    1.9800    1.8850 h4        1 IIC      0.035100
@<TRIPOS>BOND
     1    1    2 1   
     2    1    6 1   
     3    1    7 1   
     4    1   21 1   
     5    2    3 2   
     6    3    4 1   
     7    3   14 1   
     8    4    5 2   
     9    4    6 1   
    10    6   11 1   
    11    7    8 1   
    12    7    9 1   
    13    7   22 1   
    14    8   23 1   
    15    8   24 1   
    16    9   10 1   
    17    9   26 1   
    18    9   27 1   
    19   10   28 1   
    20   11   12 1   
    21   11   29 1   
    22   11   30 1   
    23   12   13 1   
    24   12   20 1   
    25   14   15 1   
    26   14   25 1   
    27   14   31 1   
    28   15   16 1   
    29   15   19 2   
    30   16   17 1   
    31   16   32 1   
    32   17   18 2   
    33   17   33 1   
    34   18   19 1   
    35   19   34 1   
@<TRIPOS>SUBSTRUCTURE
     1 IIC         1 TEMP              0 ****  ****    0 ROOT
