@<TRIPOS>MOLECULE
IID
   61    54     1     0     0
SMALL
bcc


@<TRIPOS>ATOM
      1 C1         -5.3280   -0.2370   -3.5550 c1        1 IID     -0.132000
      2 C2         -3.9140   -0.2030   -3.5180 c1        1 IID     -0.110000
      3 C3         -3.2400   -0.2170   -2.2790 c1        1 IID     -0.040000
      4 C4         -3.9550   -0.2640   -1.1180 c1        1 IID     -0.040000
      5 C5         -5.3980   -0.2990   -1.1560 c1        1 IID     -0.110000
      6 C6         -6.0550   -0.2850   -2.3650 c1        1 IID     -0.132000
      7 N7         -1.9010   -0.1930   -1.9530 n1        1 IID     -0.126000
      8 C8         -1.7970   -0.2250   -0.6110 c1        1 IID     -0.073000
      9 C9         -3.0730   -0.2690   -0.0840 c1        1 IID     -0.160000
     10 C11        -0.4420   -0.4800    0.0940 c1        1 IID      0.376000
     11 N12        -0.3740   -0.5100    1.5560 n3        1 IID     -0.369000
     12 C13         0.9200   -0.6500    2.2290 c3        1 IID      0.022000
     13 C14         0.9680    0.3050    3.3870 c3        1 IID     -0.172500
     14 C17        -0.9280   -0.3090   -2.9960 c2        1 IID      0.010000
     15 C18        -0.8010    1.0280   -3.7280 c2        1 IID     -0.081000
     16 C21        -1.4360    2.1480   -3.2340 c2        1 IID     -0.143000
     17 C22        -1.3530    3.3590   -3.9240 c1        1 IID     -0.102000
     18 C23        -0.6280    3.4360   -5.1140 c1        1 IID     -0.194000
     19 C24         0.0080    2.3120   -5.6090 c1        1 IID      0.073000
     20 C25        -0.0750    1.1030   -4.9190 c1        1 IID     -0.138000
     21 C26         2.2020    0.0950    4.2610 c3        1 IID     -0.069000
     22 O1          0.6480    2.3630   -6.8550 os        1 IID     -0.211000
     23 O45         0.6130   -0.5730   -0.5860 o         1 IID     -0.388000
     24 C7          1.8980    3.1030   -6.8450 c3        1 IID     -0.076000
     25 C10         1.0870   -2.0790    2.6590 c3        1 IID     -0.172500
     26 C12         2.3210   -2.2830    3.5370 c3        1 IID     -0.069000
     27 N1          2.3660   -1.3340    4.6840 n3        1 IID     -0.250000
     28 C16         3.6520   -1.4920    5.4150 c3        1 IID     -0.014000
     29 C19         3.6020   -0.7020    6.7060 c3        1 IID     -0.212000
     30 C20         3.8770   -2.9480    5.7240 c3        1 IID     -0.212000
     31 H1         -5.8030   -0.2280   -4.4260 ha        1 IID      0.131000
     32 H2         -3.3990   -0.1710   -4.3580 ha        1 IID      0.135000
     33 H5         -5.8960   -0.3330   -0.3440 ha        1 IID      0.135000
     34 H6         -7.0450   -0.3100   -2.3900 ha        1 IID      0.131000
     35 H9         -3.3000   -0.2990    0.8540 DU        1 IID      0.154000
     36 H12        -1.1380   -0.4640    2.0480 hn        1 IID      0.230000
     37 H13         1.6140   -0.4260    1.6170 h1        1 IID      0.129000
     38 H141        0.9770    1.2200    3.0420 hc        1 IID      0.092000
     39 H142        0.1360    0.1770    3.9540 hc        1 IID      0.092000
     40 H171       -0.0590   -0.5520   -2.6070 ha        1 IID      0.125000
     41 H172       -1.2010   -0.9850   -3.6120 ha        1 IID      0.125000
     42 H21        -1.9480    2.0940   -2.3900 ha        1 IID      0.156000
     43 H22        -1.7960    4.1400   -3.5790 ha        1 IID      0.133000
     44 H23        -0.5700    4.2750   -5.5920 ha        1 IID      0.137000
     45 H25         0.3940    0.2720   -5.2850 ha        1 IID      0.150000
     46 H261        3.0020    0.3710    3.7550 h1        1 IID      0.074250
     47 H262        2.1240    0.6470    5.0480 h1        1 IID      0.074250
     48 H7C1        2.3610    2.9880   -7.7300 h1        1 IID      0.083333
     49 H7C2        1.7110    4.0720   -6.6900 h1        1 IID      0.083333
     50 H7C3        2.4700    2.7660   -6.1330 h1        1 IID      0.083333
     51 H101        0.3260   -2.3400    3.1410 hc        1 IID      0.092000
     52 H102        1.1680   -2.6500    1.8480 hc        1 IID      0.092000
     53 H121        2.3170   -3.2370    3.8960 h1        1 IID      0.074250
     54 H122        3.1610   -2.1480    2.9640 h1        1 IID      0.074250
     55 H16         4.3630   -1.1720    4.8770 h1        1 IID      0.056000
     56 H191        4.1900   -1.0900    7.3370 hc        1 IID      0.079000
     57 H192        2.7100   -0.7120    7.0530 hc        1 IID      0.079000
     58 H193        3.8660    0.1930    6.5380 hc        1 IID      0.079000
     59 H201        4.6370   -3.0400    6.3590 hc        1 IID      0.079000
     60 H202        3.0740   -3.3230    6.1220 hc        1 IID      0.079000
     61 H203        4.0880   -3.4350    4.8810 hc        1 IID      0.079000
@<TRIPOS>BOND
     1    1    6 1   
     2    1   31 1   
     3    2    3 1   
     4    2   32 1   
     5    4    5 1   
     6    5   33 1   
     7    6   34 1   
     8    7    8 1   
     9    8    9 1   
    10   10   11 1   
    11   10   23 1   
    12   11   12 1   
    13   11   36 1   
    14   12   13 1   
    15   12   25 1   
    16   12   37 1   
    17   13   21 1   
    18   13   38 1   
    19   13   39 1   
    20   14   15 1   
    21   14   40 1   
    22   14   41 1   
    23   15   16 1   
    24   15   20 1   
    25   16   17 1   
    26   16   42 1   
    27   17   43 1   
    28   18   19 1   
    29   18   44 1   
    30   19   22 1   
    31   20   45 1   
    32   21   27 1   
    33   21   46 1   
    34   21   47 1   
    35   22   24 1   
    36   24   48 1   
    37   24   49 1   
    38   24   50 1   
    39   25   26 1   
    40   25   51 1   
    41   25   52 1   
    42   26   27 1   
    43   26   53 1   
    44   26   54 1   
    45   27   28 1   
    46   28   29 1   
    47   28   30 1   
    48   28   55 1   
    49   29   56 1   
    50   29   57 1   
    51   29   58 1   
    52   30   59 1   
    53   30   60 1   
    54   30   61 1   
@<TRIPOS>SUBSTRUCTURE
     1 IID         1 TEMP              0 ****  ****    0 ROOT
