@<TRIPOS>MOLECULE
IID
   62    65     1     0     0
SMALL
bcc


@<TRIPOS>ATOM
      1 C1          0.6110   -1.0160    0.5500 ca        1 IID     -0.058000
      2 C2          1.9170   -0.6910    0.2600 ca        1 IID     -0.154000
      3 C3          2.7810   -0.3980    1.3420 ca        1 IID      0.011800
      4 C4          2.2870   -0.4360    2.7060 ca        1 IID     -0.122800
      5 C5          0.9430   -0.7780    2.9520 ca        1 IID     -0.064000
      6 C6          0.1250   -1.0610    1.8820 ca        1 IID     -0.139000
      7 N7          4.1350   -0.0830    1.3610 na        1 IID     -0.005400
      8 C8          4.4970    0.1450    2.7120 cc        1 IID     -0.225300
      9 C9          3.3800   -0.0890    3.5480 cd        1 IID     -0.076200
     10 C11         5.8370    0.4950    3.1060 c         1 IID      0.596300
     11 N12         5.9650    1.1110    4.4890 n4        1 IID     -0.674800
     12 C13         6.6680    0.1920    5.4600 c3        1 IID      0.123500
     13 C14         7.2440    0.9800    6.6400 c3        1 IID     -0.104900
     14 C17         4.9490    0.2020    0.2040 c3        1 IID      0.069600
     15 C18         4.9950    1.6460   -0.2050 ca        1 IID     -0.111300
     16 C21         6.2220    2.3200   -0.2180 ca        1 IID     -0.159000
     17 C22         6.2840    3.6390   -0.6610 ca        1 IID     -0.091000
     18 C23         5.1320    4.3050   -1.0800 ca        1 IID     -0.185000
     19 C24         3.9050    3.6280   -1.0550 ca        1 IID      0.135100
     20 C25         3.8320    2.2910   -0.6190 ca        1 IID     -0.144000
     21 C26         7.9560    0.0100    7.5870 c3        1 IID      0.175800
     22 O1          2.6990    4.1780   -1.4290 os        1 IID     -0.322900
     23 O45         6.8940    0.3940    2.4900 o         1 IID     -0.460100
     24 C7          2.7450    5.4910   -1.9820 c3        1 IID      0.109700
     25 C10         5.7350   -0.9020    5.9810 c3        1 IID     -0.104900
     26 C12         6.4950   -1.8020    6.9620 c3        1 IID      0.175800
     27 N1          7.0840   -1.0560    8.0580 n3        1 IID     -0.744600
     28 C16         7.7350   -1.8740    9.0960 c3        1 IID      0.188500
     29 C19         7.6600   -1.1830   10.4610 c3        1 IID     -0.099100
     30 C20         7.1620   -3.2820    9.2490 c3        1 IID     -0.099100
     31 H1         -0.0880   -1.2490   -0.2710 ha        1 IID      0.156000
     32 H2          2.2820   -0.6560   -0.7770 ha        1 IID      0.156000
     33 H5          0.5700   -0.8130    3.9860 ha        1 IID      0.150000
     34 H6         -0.9310   -1.3300    2.0480 ha        1 IID      0.156000
     35 H9          3.3540   -0.0590    4.6360 ha        1 IID      0.156000
     36 H12         5.0400    1.3540    4.8540 hn        1 IID      0.456300
     37 H13         7.5190   -0.2830    4.8810 hx        1 IID      0.117700
     38 H141        7.9920    1.7360    6.2860 hc        1 IID      0.069450
     39 H142        6.4280    1.5150    7.1910 hc        1 IID      0.069450
     40 H171        5.9950   -0.1700    0.4180 h1        1 IID      0.091700
     41 H172        4.5290   -0.4050   -0.6530 h1        1 IID      0.091700
     42 H21         7.1380    1.8030    0.1060 ha        1 IID      0.140000
     43 H22         7.2520    4.1630   -0.6870 ha        1 IID      0.145000
     44 H23         5.1970    5.3450   -1.4300 ha        1 IID      0.152000
     45 H25         2.8600    1.7750   -0.6170 ha        1 IID      0.154000
     46 H261        8.8710   -0.3930    7.0590 h1        1 IID      0.056950
     47 H262        8.3060    0.5960    8.4830 h1        1 IID      0.056950
     48 H7C1        1.6770    5.6920   -2.2530 h1        1 IID      0.053367
     49 H7C2        3.1040    6.2230   -1.2190 h1        1 IID      0.053367
     50 H7C3        3.3960    5.5150   -2.8890 h1        1 IID      0.053367
     51 H101        4.8520   -0.4450    6.5030 hc        1 IID      0.069450
     52 H102        5.3580   -1.5360    5.1370 hc        1 IID      0.069450
     53 H121        7.2640   -2.3920    6.3810 h1        1 IID      0.056950
     54 H122        5.7460   -2.5290    7.3890 h1        1 IID      0.056950
     55 H16         8.8340   -1.9950    8.8330 h1        1 IID      0.031700
     56 H191        8.1910   -1.8160   11.2120 hc        1 IID      0.047533
     57 H192        8.1490   -0.1800   10.4400 hc        1 IID      0.047533
     58 H193        6.5990   -1.0560   10.7830 hc        1 IID      0.047533
     59 H201        7.7020   -3.7960   10.0820 hc        1 IID      0.047533
     60 H202        7.3070   -3.8840    8.3200 hc        1 IID      0.047533
     61 H203        6.0760   -3.2520    9.5020 hc        1 IID      0.047533
     62 H123        6.5220    1.9690    4.4030 hn        1 IID      0.456300
@<TRIPOS>BOND
     1    1    2 ar  
     2    1    6 ar  
     3    1   31 1   
     4    2    3 ar  
     5    2   32 1   
     6    3    4 ar  
     7    3    7 1   
     8    4    5 ar  
     9    4    9 1   
    10    5    6 ar  
    11    5   33 1   
    12    6   34 1   
    13    7    8 1   
    14    7   14 1   
    15    8    9 2   
    16    8   10 1   
    17    9   35 1   
    18   10   11 1   
    19   10   23 2   
    20   11   12 1   
    21   11   36 1   
    22   11   62 1   
    23   12   13 1   
    24   12   25 1   
    25   12   37 1   
    26   13   21 1   
    27   13   38 1   
    28   13   39 1   
    29   14   15 1   
    30   14   40 1   
    31   14   41 1   
    32   15   16 ar  
    33   15   20 ar  
    34   16   17 ar  
    35   16   42 1   
    36   17   18 ar  
    37   17   43 1   
    38   18   19 ar  
    39   18   44 1   
    40   19   20 ar  
    41   19   22 1   
    42   20   45 1   
    43   21   27 1   
    44   21   46 1   
    45   21   47 1   
    46   22   24 1   
    47   24   48 1   
    48   24   49 1   
    49   24   50 1   
    50   25   26 1   
    51   25   51 1   
    52   25   52 1   
    53   26   27 1   
    54   26   53 1   
    55   26   54 1   
    56   27   28 1   
    57   28   29 1   
    58   28   30 1   
    59   28   55 1   
    60   29   56 1   
    61   29   57 1   
    62   29   58 1   
    63   30   59 1   
    64   30   60 1   
    65   30   61 1   
@<TRIPOS>SUBSTRUCTURE
     1 IID         1 TEMP              0 ****  ****    0 ROOT
