@<TRIPOS>MOLECULE
IID
   62    65     1     0     0
SMALL
bcc


@<TRIPOS>ATOM
      1 C1          0.6560   -1.0560    0.5090 ca        1 IID     -0.058000
      2 C2          1.9610   -0.7110    0.2300 ca        1 IID     -0.154000
      3 C3          2.8110   -0.4120    1.3210 ca        1 IID      0.011800
      4 C4          2.3070   -0.4630    2.6810 ca        1 IID     -0.122800
      5 C5          0.9660   -0.8250    2.9140 ca        1 IID     -0.064000
      6 C6          0.1610   -1.1150    1.8360 ca        1 IID     -0.139000
      7 N7          4.1610   -0.0770    1.3530 na        1 IID     -0.005400
      8 C8          4.5080    0.1480    2.7070 cc        1 IID     -0.225300
      9 C9          3.3880   -0.1060    3.5340 cd        1 IID     -0.076200
     10 C11         5.8400    0.5150    3.1150 c         1 IID      0.596300
     11 N12         5.9490    1.1220    4.5030 ny        1 IID     -0.674800
     12 C13         6.6560    0.2060    5.4730 c3        1 IID      0.123500
     13 C14         7.2130    0.9930    6.6630 c3        1 IID     -0.104900
     14 C17         4.9800    0.2240    0.2030 c3        1 IID      0.069600
     15 C18         5.0090    1.6710   -0.1980 ca        1 IID     -0.111300
     16 C21         6.2250    2.3640   -0.1950 ca        1 IID     -0.159000
     17 C22         6.2710    3.6860   -0.6310 ca        1 IID     -0.091000
     18 C23         5.1140    4.3360   -1.0590 ca        1 IID     -0.185000
     19 C24         3.8980    3.6410   -1.0500 ca        1 IID      0.135100
     20 C25         3.8400    2.3010   -0.6210 ca        1 IID     -0.144000
     21 C26         7.9300    0.0250    7.6080 c3        1 IID      0.175800
     22 O1          2.6870    4.1730   -1.4340 os        1 IID     -0.322900
     23 O45         6.9030    0.4340    2.5060 o         1 IID     -0.460100
     24 C7          2.7190    5.4900   -1.9800 c3        1 IID      0.109700
     25 C10         5.7340   -0.9040    5.9780 c3        1 IID     -0.104900
     26 C12         6.4990   -1.8020    6.9580 c3        1 IID      0.175800
     27 N1          7.0690   -1.0560    8.0650 n3        1 IID     -0.744600
     28 C16         7.7240   -1.8740    9.1000 c3        1 IID      0.188500
     29 C19         7.6290   -1.1940   10.4700 c3        1 IID     -0.099100
     30 C20         7.1700   -3.2900    9.2380 c3        1 IID     -0.099100
     31 H1         -0.0320   -1.2950   -0.3200 ha        1 IID      0.156000
     32 H2          2.3340   -0.6660   -0.8030 ha        1 IID      0.156000
     33 H5          0.5850   -0.8710    3.9450 ha        1 IID      0.150000
     34 H6         -0.8920   -1.3990    1.9920 ha        1 IID      0.156000
     35 H9          3.3530   -0.0810    4.6220 ha        1 IID      0.156000
     36 H12         6.4950    1.9890    4.4270 hn        1 IID      0.456300
     37 H13         7.5190   -0.2530    4.8970 hx        1 IID      0.117700
     38 H141        7.9530    1.7620    6.3210 hc        1 IID      0.069450
     39 H142        6.3850    1.5130    7.2120 hc        1 IID      0.069450
     40 H171        6.0290   -0.1330    0.4250 h1        1 IID      0.091700
     41 H172        4.5750   -0.3840   -0.6600 h1        1 IID      0.091700
     42 H21         7.1460    1.8590    0.1360 ha        1 IID      0.140000
     43 H22         7.2310    4.2250   -0.6450 ha        1 IID      0.145000
     44 H23         5.1670    5.3780   -1.4040 ha        1 IID      0.152000
     45 H25         2.8760    1.7700   -0.6310 ha        1 IID      0.154000
     46 H261        8.8550   -0.3610    7.0850 h1        1 IID      0.056950
     47 H262        8.2650    0.6100    8.5120 h1        1 IID      0.056950
     48 H7C1        3.3780    5.5280   -2.8810 h1        1 IID      0.053367
     49 H7C2        3.0590    6.2240   -1.2100 h1        1 IID      0.053367
     50 H7C3        1.6510    5.6770   -2.2610 h1        1 IID      0.053367
     51 H101        5.3730   -1.5370    5.1260 hc        1 IID      0.069450
     52 H102        4.8420   -0.4640    6.4970 hc        1 IID      0.069450
     53 H121        7.2810   -2.3770    6.3790 h1        1 IID      0.056950
     54 H122        5.7570   -2.5420    7.3730 h1        1 IID      0.056950
     55 H16         8.8270   -1.9770    8.8450 h1        1 IID      0.031700
     56 H191        8.1620   -1.8260   11.2210 hc        1 IID      0.047533
     57 H192        6.5640   -1.0840   10.7850 hc        1 IID      0.047533
     58 H193        8.1040   -0.1840   10.4610 hc        1 IID      0.047533
     59 H201        6.0810   -3.2770    9.4840 hc        1 IID      0.047533
     60 H202        7.7100   -3.8030   10.0710 hc        1 IID      0.047533
     61 H203        7.3300   -3.8830    8.3060 hc        1 IID      0.047533
     62 H123        5.0180    1.3500    4.8630 hn        1 IID      0.456300
@<TRIPOS>BOND
     1    1    2 ar  
     2    1    6 ar  
     3    1   31 1   
     4    2    3 ar  
     5    2   32 1   
     6    3    4 ar  
     7    3    7 1   
     8    4    5 ar  
     9    4    9 1   
    10    5    6 ar  
    11    5   33 1   
    12    6   34 1   
    13    7    8 1   
    14    7   14 1   
    15    8    9 2   
    16    8   10 1   
    17    9   35 1   
    18   10   11 1   
    19   10   23 2   
    20   11   12 1   
    21   11   36 1   
    22   11   62 1   
    23   12   13 1   
    24   12   25 1   
    25   12   37 1   
    26   13   21 1   
    27   13   38 1   
    28   13   39 1   
    29   14   15 1   
    30   14   40 1   
    31   14   41 1   
    32   15   16 ar  
    33   15   20 ar  
    34   16   17 ar  
    35   16   42 1   
    36   17   18 ar  
    37   17   43 1   
    38   18   19 ar  
    39   18   44 1   
    40   19   20 ar  
    41   19   22 1   
    42   20   45 1   
    43   21   27 1   
    44   21   46 1   
    45   21   47 1   
    46   22   24 1   
    47   24   48 1   
    48   24   49 1   
    49   24   50 1   
    50   25   26 1   
    51   25   51 1   
    52   25   52 1   
    53   26   27 1   
    54   26   53 1   
    55   26   54 1   
    56   27   28 1   
    57   28   29 1   
    58   28   30 1   
    59   28   55 1   
    60   29   56 1   
    61   29   57 1   
    62   29   58 1   
    63   30   59 1   
    64   30   60 1   
    65   30   61 1   
@<TRIPOS>SUBSTRUCTURE
     1 IID         1 TEMP              0 ****  ****    0 ROOT
