@<TRIPOS>MOLECULE
IID
   61    64     1     0     0
SMALL
bcc


@<TRIPOS>ATOM
      1 C1          4.5500   -3.1990   -0.0710 ca        1 IID     -0.106000
      2 C2          3.9310   -2.0620    0.4150 ca        1 IID     -0.137000
      3 C3          2.5720   -1.8670    0.1020 ca        1 IID     -0.027200
      4 C4          1.8570   -2.8330   -0.7020 ca        1 IID     -0.109800
      5 C5          2.5210   -3.9690   -1.1740 ca        1 IID     -0.078000
      6 C6          3.8570   -4.1440   -0.8550 ca        1 IID     -0.159000
      7 N7          1.6870   -0.8440    0.4630 na        1 IID     -0.038400
      8 C8          0.4390   -1.1370   -0.1190 cc        1 IID     -0.124300
      9 C9          0.5090   -2.3440   -0.8230 cd        1 IID     -0.148200
     10 C11        -0.7610   -0.2740    0.0260 c         1 IID      0.697300
     11 N12        -1.9760   -0.9230   -0.0120 n         1 IID     -0.559900
     12 C13        -3.2400   -0.2250    0.0570 c3        1 IID      0.097700
     13 C14        -4.0730   -0.3870   -1.2230 c3        1 IID     -0.093400
     14 C17         2.0430    0.3300    1.2130 c3        1 IID      0.083600
     15 C18         2.8600    1.3450    0.4620 ca        1 IID     -0.085300
     16 C21         2.2500    2.1470   -0.5110 ca        1 IID     -0.134000
     17 C22         2.9950    3.1110   -1.1840 ca        1 IID     -0.101000
     18 C23         4.3490    3.2920   -0.8990 ca        1 IID     -0.193000
     19 C24         4.9500    2.4910    0.0780 ca        1 IID      0.116100
     20 C25         4.2100    1.5110    0.7630 ca        1 IID     -0.144000
     21 C26        -5.3700    0.4090   -1.1130 c3        1 IID      0.167800
     22 O1          6.2780    2.5780    0.4560 os        1 IID     -0.330900
     23 O45        -0.6840    0.9650    0.1710 o         1 IID     -0.624100
     24 C7          7.0620    3.5460   -0.2310 c3        1 IID      0.114700
     25 C10        -4.1040   -0.6990    1.2350 c3        1 IID     -0.093400
     26 C12        -5.4000    0.1040    1.2940 c3        1 IID      0.167800
     27 N1         -6.1730    0.0820    0.0590 n3        1 IID     -0.724600
     28 C16        -7.3730    0.9340    0.1510 c3        1 IID      0.182500
     29 C19        -8.2310    0.8770   -1.1150 c3        1 IID     -0.094100
     30 C20        -8.2620    0.5660    1.3420 c3        1 IID     -0.094100
     31 H1          5.6120   -3.3750    0.1550 ha        1 IID      0.131000
     32 H2          4.4790   -1.3230    1.0160 ha        1 IID      0.139000
     33 H5          1.9820   -4.7060   -1.7860 ha        1 IID      0.133000
     34 H6          4.3960   -5.0310   -1.2180 ha        1 IID      0.130000
     35 H9         -0.2910   -2.8270   -1.3760 ha        1 IID      0.155000
     36 H12        -2.0020   -1.9080   -0.1210 hn        1 IID      0.316500
     37 H13        -3.0150    0.8770    0.1990 h1        1 IID      0.090700
     38 H141       -3.5040   -0.0070   -2.1100 hc        1 IID      0.052450
     39 H142       -4.3030   -1.4700   -1.3970 hc        1 IID      0.052450
     40 H171        2.6220   -0.0140    2.1200 h1        1 IID      0.078700
     41 H172        1.0890    0.8290    1.5600 h1        1 IID      0.078700
     42 H21         1.1760    2.0140   -0.7270 ha        1 IID      0.165000
     43 H22         2.5140    3.7390   -1.9490 ha        1 IID      0.134000
     44 H23         4.9240    4.0570   -1.4380 ha        1 IID      0.136000
     45 H25         4.7090    0.8960    1.5260 ha        1 IID      0.144000
     46 H261       -5.1170    1.5100   -1.1470 h1        1 IID      0.035700
     47 H262       -5.9900    0.1710   -2.0240 h1        1 IID      0.035700
     48 H7C1        6.6650    4.5750   -0.0510 h1        1 IID      0.043700
     49 H7C2        8.0780    3.4300    0.2250 h1        1 IID      0.043700
     50 H7C3        7.0940    3.3250   -1.3250 h1        1 IID      0.043700
     51 H101       -4.3350   -1.7900    1.1280 hc        1 IID      0.052450
     52 H102       -3.5590   -0.5530    2.2030 hc        1 IID      0.052450
     53 H121       -5.1510    1.1610    1.6080 h1        1 IID      0.035700
     54 H122       -6.0420   -0.3510    2.1020 h1        1 IID      0.035700
     55 H16        -7.0570    2.0170    0.2930 h1        1 IID      0.016700
     56 H191       -8.4620   -0.1770   -1.3970 hc        1 IID      0.039700
     57 H192       -9.1910    1.4170   -0.9300 hc        1 IID      0.039700
     58 H193       -7.7160    1.3770   -1.9700 hc        1 IID      0.039700
     59 H201       -8.4970   -0.5250    1.3460 hc        1 IID      0.039700
     60 H202       -7.7700    0.8340    2.3070 hc        1 IID      0.039700
     61 H203       -9.2190    1.1370    1.2740 hc        1 IID      0.039700
@<TRIPOS>BOND
     1    1    2 ar  
     2    1    6 ar  
     3    1   31 1   
     4    2    3 ar  
     5    2   32 1   
     6    3    4 ar  
     7    3    7 1   
     8    4    5 ar  
     9    4    9 1   
    10    5    6 ar  
    11    5   33 1   
    12    6   34 1   
    13    7    8 1   
    14    7   14 1   
    15    8    9 2   
    16    8   10 1   
    17    9   35 1   
    18   10   11 1   
    19   10   23 2   
    20   11   12 1   
    21   11   36 1   
    22   12   13 1   
    23   12   25 1   
    24   12   37 1   
    25   13   21 1   
    26   13   38 1   
    27   13   39 1   
    28   14   15 1   
    29   14   40 1   
    30   14   41 1   
    31   15   16 ar  
    32   15   20 ar  
    33   16   17 ar  
    34   16   42 1   
    35   17   18 ar  
    36   17   43 1   
    37   18   19 ar  
    38   18   44 1   
    39   19   20 ar  
    40   19   22 1   
    41   20   45 1   
    42   21   27 1   
    43   21   46 1   
    44   21   47 1   
    45   22   24 1   
    46   24   48 1   
    47   24   49 1   
    48   24   50 1   
    49   25   26 1   
    50   25   51 1   
    51   25   52 1   
    52   26   27 1   
    53   26   53 1   
    54   26   54 1   
    55   27   28 1   
    56   28   29 1   
    57   28   30 1   
    58   28   55 1   
    59   29   56 1   
    60   29   57 1   
    61   29   58 1   
    62   30   59 1   
    63   30   60 1   
    64   30   61 1   
@<TRIPOS>SUBSTRUCTURE
     1 IID         1 TEMP              0 ****  ****    0 ROOT
