@<TRIPOS>MOLECULE
IID
   62    65     1     0     0
SMALL
bcc


@<TRIPOS>ATOM
      1 C1          0.6000   -1.0310    0.5770 ca        1 IID     -0.058000
      2 C2          1.9030   -0.6970    0.2790 ca        1 IID     -0.154000
      3 C3          2.7710   -0.4010    1.3570 ca        1 IID      0.011800
      4 C4          2.2860   -0.4450    2.7230 ca        1 IID     -0.122800
      5 C5          0.9460   -0.7950    2.9770 ca        1 IID     -0.064000
      6 C6          0.1230   -1.0810    1.9120 ca        1 IID     -0.139000
      7 N7          4.1240   -0.0780    1.3680 na        1 IID     -0.005400
      8 C8          4.4930    0.1490    2.7160 cc        1 IID     -0.225300
      9 C9          3.3820   -0.0930    3.5600 cd        1 IID     -0.076200
     10 C11         5.8330    0.5060    3.1040 c         1 IID      0.596300
     11 N12         5.9670    1.1170    4.4880 n4        1 IID     -0.674800
     12 C13         6.6800    0.1980    5.4510 c3        1 IID      0.123500
     13 C14         7.2600    0.9840    6.6300 c3        1 IID     -0.104900
     14 C17         4.9290    0.2140    0.2060 c3        1 IID      0.069600
     15 C18         4.9630    1.6590   -0.2000 ca        1 IID     -0.111300
     16 C21         6.1850    2.3420   -0.2170 ca        1 IID     -0.159000
     17 C22         6.2360    3.6630   -0.6580 ca        1 IID     -0.091000
     18 C23         5.0780    4.3200   -1.0710 ca        1 IID     -0.185000
     19 C24         3.8560    3.6350   -1.0420 ca        1 IID      0.135100
     20 C25         3.7940    2.2970   -0.6080 ca        1 IID     -0.144000
     21 C26         7.9830    0.0140    7.5680 c3        1 IID      0.175800
     22 O1          2.6440    4.1760   -1.4110 os        1 IID     -0.322900
     23 O45         6.8870    0.4150    2.4800 o         1 IID     -0.460100
     24 C7          2.6790    5.4910   -1.9610 c3        1 IID      0.109700
     25 C10         5.7560   -0.9020    5.9740 c3        1 IID     -0.104900
     26 C12         6.5270   -1.8030    6.9460 c3        1 IID      0.175800
     27 N1          7.1200   -1.0570    8.0410 n3        1 IID     -0.744600
     28 C16         7.7830   -1.8770    9.0700 c3        1 IID      0.188500
     29 C19         7.7130   -1.1920   10.4390 c3        1 IID     -0.099100
     30 C20         7.2180   -3.2880    9.2220 c3        1 IID     -0.099100
     31 H1         -0.1020   -1.2660   -0.2410 ha        1 IID      0.156000
     32 H2          2.2610   -0.6580   -0.7600 ha        1 IID      0.156000
     33 H5          0.5790   -0.8350    4.0130 ha        1 IID      0.150000
     34 H6         -0.9300   -1.3570    2.0830 ha        1 IID      0.156000
     35 H9          3.3630   -0.0650    4.6480 ha        1 IID      0.156000
     36 H12         6.5190    1.9790    4.4020 hn        1 IID      0.456300
     37 H13         7.5300   -0.2700    4.8640 hx        1 IID      0.117700
     38 H141        6.4450    1.5140    7.1890 hc        1 IID      0.069450
     39 H142        8.0020    1.7460    6.2750 hc        1 IID      0.069450
     40 H171        4.5070   -0.3940   -0.6500 h1        1 IID      0.091700
     41 H172        5.9780   -0.1510    0.4130 h1        1 IID      0.091700
     42 H21         7.1070    1.8310    0.1020 ha        1 IID      0.140000
     43 H22         7.2000    4.1940   -0.6880 ha        1 IID      0.145000
     44 H23         5.1340    5.3610   -1.4210 ha        1 IID      0.152000
     45 H25         2.8260    1.7740   -0.6030 ha        1 IID      0.154000
     46 H261        8.3360    0.5990    8.4650 h1        1 IID      0.056950
     47 H262        8.8970   -0.3810    7.0330 h1        1 IID      0.056950
     48 H7C1        3.0360    6.2240   -1.1980 h1        1 IID      0.053367
     49 H7C2        1.6080    5.6860   -2.2280 h1        1 IID      0.053367
     50 H7C3        3.3250    5.5210   -2.8720 h1        1 IID      0.053367
     51 H101        4.8750   -0.4520    6.5040 hc        1 IID      0.069450
     52 H102        5.3770   -1.5350    5.1300 hc        1 IID      0.069450
     53 H121        7.2960   -2.3860    6.3580 h1        1 IID      0.056950
     54 H122        5.7850   -2.5350    7.3750 h1        1 IID      0.056950
     55 H16         8.8810   -1.9920    8.8000 h1        1 IID      0.031700
     56 H191        8.1970   -0.1860   10.4190 hc        1 IID      0.047533
     57 H192        8.2520   -1.8250   11.1840 hc        1 IID      0.047533
     58 H193        6.6540   -1.0710   10.7690 hc        1 IID      0.047533
     59 H201        6.1330   -3.2650    9.4830 hc        1 IID      0.047533
     60 H202        7.3590   -3.8860    8.2900 hc        1 IID      0.047533
     61 H203        7.7660   -3.8030   10.0490 hc        1 IID      0.047533
     62 H123        5.0420    1.3540    4.8600 hn        1 IID      0.456300
@<TRIPOS>BOND
     1    1    2 ar  
     2    1    6 ar  
     3    1   31 1   
     4    2    3 ar  
     5    2   32 1   
     6    3    4 ar  
     7    3    7 1   
     8    4    5 ar  
     9    4    9 1   
    10    5    6 ar  
    11    5   33 1   
    12    6   34 1   
    13    7    8 1   
    14    7   14 1   
    15    8    9 2   
    16    8   10 1   
    17    9   35 1   
    18   10   11 1   
    19   10   23 2   
    20   11   12 1   
    21   11   36 1   
    22   11   62 1   
    23   12   13 1   
    24   12   25 1   
    25   12   37 1   
    26   13   21 1   
    27   13   38 1   
    28   13   39 1   
    29   14   15 1   
    30   14   40 1   
    31   14   41 1   
    32   15   16 ar  
    33   15   20 ar  
    34   16   17 ar  
    35   16   42 1   
    36   17   18 ar  
    37   17   43 1   
    38   18   19 ar  
    39   18   44 1   
    40   19   20 ar  
    41   19   22 1   
    42   20   45 1   
    43   21   27 1   
    44   21   46 1   
    45   21   47 1   
    46   22   24 1   
    47   24   48 1   
    48   24   49 1   
    49   24   50 1   
    50   25   26 1   
    51   25   51 1   
    52   25   52 1   
    53   26   27 1   
    54   26   53 1   
    55   26   54 1   
    56   27   28 1   
    57   28   29 1   
    58   28   30 1   
    59   28   55 1   
    60   29   56 1   
    61   29   57 1   
    62   29   58 1   
    63   30   59 1   
    64   30   60 1   
    65   30   61 1   
@<TRIPOS>SUBSTRUCTURE
     1 IID         1 TEMP              0 ****  ****    0 ROOT
