@<TRIPOS>MOLECULE
IIE
   63    66     1     0     0
SMALL
bcc


@<TRIPOS>ATOM
      1 C1          2.0880   -1.9860    0.1270 ca        1 IIE     -0.028000
      2 C2          2.9540   -0.9010    0.1440 ca        1 IIE     -0.179000
      3 C3          3.3160   -0.3760    1.3950 ca        1 IIE      0.005800
      4 C4          2.8030   -0.9560    2.6150 ca        1 IIE     -0.126800
      5 C5          1.9290   -2.0510    2.5550 ca        1 IIE     -0.033000
      6 C6          1.5780   -2.5520    1.3140 ca        1 IIE     -0.130000
      7 N7          4.1940    0.6720    1.7310 na        1 IIE     -0.062400
      8 C8          4.1950    0.7840    3.1560 cc        1 IIE     -0.219300
      9 C9          3.3720   -0.2150    3.7010 cd        1 IIE     -0.005200
     10 C10         5.0030    1.7610    3.8510 c         1 IIE      0.591300
     11 N11         4.8670    1.8240    5.3470 n4        1 IIE     -0.668800
     12 C12         6.0090    1.1190    6.0630 c3        1 IIE      0.131500
     13 C13         5.8000   -0.3940    6.1020 c3        1 IIE     -0.109400
     14 C14         6.9730   -1.0380    6.8500 c3        1 IIE      0.178800
     15 N15         7.1220   -0.5100    8.1960 n3        1 IIE     -0.748600
     16 C16         7.3060    0.9280    8.1970 c3        1 IIE      0.178800
     17 C17         6.1600    1.6630    7.4860 c3        1 IIE     -0.109400
     18 C27         8.0990   -1.2790    8.9870 c3        1 IIE      0.190500
     19 C28         8.7280   -0.5070   10.1450 c3        1 IIE     -0.100600
     20 C32         7.4580   -2.5480    9.5570 c3        1 IIE     -0.100600
     21 C37         4.7520    1.5850    0.8000 c3        1 IIE     -0.002700
     22 C38         3.8730    2.8130    0.5240 c         1 IIE      0.508100
     23 C43         5.8690    2.8710   -2.2540 ca        1 IIE     -0.091000
     24 C40         7.1070    3.2670   -2.7470 ca        1 IIE     -0.103000
     25 C45         5.1650    3.7250   -1.3840 ca        1 IIE     -0.093400
     26 C47         7.6500    4.5100   -2.3820 ca        1 IIE      0.069400
     27 C48         6.9400    5.3580   -1.5190 ca        1 IIE     -0.103000
     28 C49         5.7000    4.9750   -1.0200 ca        1 IIE     -0.091000
     29 N12         3.8400    3.3360   -0.8960 n4        1 IIE     -0.534200
     30 O14         3.2140    3.4460    1.3330 o         1 IIE     -0.405100
     31 CL50        9.1440    4.9830   -2.9860 cl        1 IIE      0.023600
     32 O56         5.7860    2.5750    3.3580 o         1 IIE     -0.482100
     33 H1          1.7900   -2.4240   -0.8420 ha        1 IIE      0.171000
     34 H2          3.3540   -0.4910   -0.7920 ha        1 IIE      0.135000
     35 H5          1.5380   -2.5000    3.4830 ha        1 IIE      0.170000
     36 H6          0.8920   -3.4140    1.2410 ha        1 IIE      0.178000
     37 H9          3.2000   -0.4320    4.7570 ha        1 IIE      0.176000
     38 H11         4.8870    2.8150    5.6290 hn        1 IIE      0.463800
     39 H12         6.9440    1.3610    5.4710 hx        1 IIE      0.114700
     40 H131        4.8410   -0.6450    6.6280 hc        1 IIE      0.070450
     41 H132        5.7600   -0.8180    5.0660 hc        1 IIE      0.070450
     42 H141        6.7700   -2.1450    6.9270 h1        1 IIE      0.061700
     43 H142        7.9070   -0.9010    6.2290 h1        1 IIE      0.061700
     44 H161        7.3110    1.2880    9.2660 h1        1 IIE      0.061700
     45 H162        8.2800    1.2390    7.7170 h1        1 IIE      0.061700
     46 H171        6.4060    2.7560    7.4710 hc        1 IIE      0.070450
     47 H172        5.2100    1.5160    8.0650 hc        1 IIE      0.070450
     48 H27         8.9500   -1.5990    8.3050 h1        1 IIE      0.033700
     49 H281        7.9540   -0.1550   10.8680 hc        1 IIE      0.050867
     50 H282        9.3170    0.3680    9.7800 hc        1 IIE      0.050867
     51 H283        9.4270   -1.1910   10.6880 hc        1 IIE      0.050867
     52 H321        6.6300   -2.2930   10.2600 hc        1 IIE      0.050867
     53 H322        8.2370   -3.1220   10.1140 hc        1 IIE      0.050867
     54 H323        7.0520   -3.2010    8.7480 hc        1 IIE      0.050867
     55 H371        5.7310    2.0020    1.1990 h1        1 IIE      0.132200
     56 H372        4.9610    1.0330   -0.1640 h1        1 IIE      0.132200
     57 H48         7.3580    6.3430   -1.2390 ha        1 IIE      0.191500
     58 H49         5.1520    5.6640   -0.3540 ha        1 IIE      0.160000
     59 HA          3.4530    2.6090   -1.5120 hn        1 IIE      0.471300
     60 H43         5.4550    1.8990   -2.5700 ha        1 IIE      0.160000
     61 H112        3.9770    1.4150    5.6460 hn        1 IIE      0.463800
     62 H122        3.2190    4.1610   -0.9340 hn        1 IIE      0.471300
     63 H40         7.6580    2.6020   -3.4370 ha        1 IIE      0.191500
@<TRIPOS>BOND
     1    1    2 ar  
     2    1    6 ar  
     3    1   33 1   
     4    2    3 ar  
     5    2   34 1   
     6    3    4 ar  
     7    3    7 1   
     8    4    5 ar  
     9    4    9 1   
    10    5    6 ar  
    11    5   35 1   
    12    6   36 1   
    13    7    8 1   
    14    7   21 1   
    15    8    9 2   
    16    8   10 1   
    17    9   37 1   
    18   10   11 1   
    19   10   32 2   
    20   11   12 1   
    21   11   38 1   
    22   11   61 1   
    23   12   13 1   
    24   12   17 1   
    25   12   39 1   
    26   13   14 1   
    27   13   40 1   
    28   13   41 1   
    29   14   15 1   
    30   14   42 1   
    31   14   43 1   
    32   15   16 1   
    33   15   18 1   
    34   16   17 1   
    35   16   44 1   
    36   16   45 1   
    37   17   46 1   
    38   17   47 1   
    39   18   19 1   
    40   18   20 1   
    41   18   48 1   
    42   19   49 1   
    43   19   50 1   
    44   19   51 1   
    45   20   52 1   
    46   20   53 1   
    47   20   54 1   
    48   21   22 1   
    49   21   55 1   
    50   21   56 1   
    51   22   29 1   
    52   22   30 2   
    53   23   24 ar  
    54   23   25 ar  
    55   23   60 1   
    56   24   26 ar  
    57   24   63 1   
    58   25   28 ar  
    59   25   29 1   
    60   26   27 ar  
    61   26   31 1   
    62   27   28 ar  
    63   27   57 1   
    64   28   58 1   
    65   29   59 1   
    66   29   62 1   
@<TRIPOS>SUBSTRUCTURE
     1 IIE         1 TEMP              0 ****  ****    0 ROOT
