@<TRIPOS>MOLECULE
IIE
   61    64     1     0     0
SMALL
bcc


@<TRIPOS>ATOM
      1 C1          2.7910    5.4410    0.3220 ca        1 IIE     -0.100000
      2 C2          2.5210    4.3070   -0.4240 ca        1 IIE     -0.138000
      3 C3          1.3640    3.5740   -0.0980 ca        1 IIE     -0.025200
      4 C4          0.4990    3.9910    0.9810 ca        1 IIE     -0.109800
      5 C5          0.8120    5.1430    1.7100 ca        1 IIE     -0.077000
      6 C6          1.9500    5.8570    1.3740 ca        1 IIE     -0.154000
      7 N7          0.8350    2.4070   -0.6650 na        1 IIE     -0.050400
      8 C8         -0.3390    2.0810    0.0440 cc        1 IIE     -0.137300
      9 C9         -0.5690    3.0270    1.0460 cd        1 IIE     -0.130200
     10 C10        -1.1550    0.8780   -0.2530 c         1 IIE      0.700300
     11 N11        -2.4920    0.9580    0.0500 n         1 IIE     -0.549900
     12 C12        -3.4090   -0.1460   -0.1390 c3        1 IIE      0.095700
     13 C13        -4.5620    0.2110   -1.0890 c3        1 IIE     -0.093400
     14 C14        -5.4700   -0.9980   -1.2920 c3        1 IIE      0.167800
     15 N15        -5.9910   -1.5660   -0.0550 n3        1 IIE     -0.724600
     16 C16        -4.9470   -1.8170    0.9310 c3        1 IIE      0.167800
     17 C17        -4.0270   -0.6260    1.1820 c3        1 IIE     -0.093400
     18 C27        -6.8050   -2.7690   -0.3070 c3        1 IIE      0.183500
     19 C28        -7.4120   -3.3450    0.9750 c3        1 IIE     -0.094100
     20 C32        -7.9450   -2.5080   -1.2950 c3        1 IIE     -0.094100
     21 C37         1.3830    1.7250   -1.7930 c3        1 IIE     -0.034700
     22 C38         2.6170    0.8510   -1.4620 c         1 IIE      0.649100
     23 C43         2.8420   -2.3860    0.3830 ca        1 IIE     -0.162000
     24 C40         3.7280   -3.3610    0.8240 ca        1 IIE     -0.100000
     25 C45         3.3170   -1.2280   -0.2840 ca        1 IIE      0.071600
     26 C47         5.1000   -3.2070    0.6110 ca        1 IIE     -0.012600
     27 C48         5.5840   -2.0730   -0.0450 ca        1 IIE     -0.100000
     28 C49         4.7060   -1.0900   -0.4890 ca        1 IIE     -0.162000
     29 N12         2.3780   -0.2680   -0.6950 n         1 IIE     -0.454100
     30 O14         3.7270    1.1900   -1.9100 o         1 IIE     -0.594100
     31 CL50        6.1810   -4.4030    1.1520 cl        1 IIE     -0.100400
     32 O56        -0.6490   -0.1570   -0.7490 o         1 IIE     -0.650100
     33 H1          3.6900    6.0350    0.0950 ha        1 IIE      0.136000
     34 H2          3.1880    3.9740   -1.2320 ha        1 IIE      0.154000
     35 H5          0.1600    5.4660    2.5340 ha        1 IIE      0.136000
     36 H6          2.2120    6.7660    1.9350 ha        1 IIE      0.134000
     37 H9         -1.3870    3.0360    1.7620 ha        1 IIE      0.158000
     38 H11        -2.8590    1.7980    0.4280 hn        1 IIE      0.319500
     39 H12        -2.8240   -1.0030   -0.5920 h1        1 IIE      0.090700
     40 H131       -5.1530    1.0670   -0.6730 hc        1 IIE      0.053450
     41 H132       -4.1620    0.5200   -2.0890 hc        1 IIE      0.053450
     42 H141       -4.9070   -1.7700   -1.8970 h1        1 IIE      0.036700
     43 H142       -6.3530   -0.6570   -1.9050 h1        1 IIE      0.036700
     44 H161       -5.4560   -2.0620    1.9060 h1        1 IIE      0.036700
     45 H162       -4.3100   -2.7060    0.6420 h1        1 IIE      0.036700
     46 H171       -4.6040    0.2060    1.6630 hc        1 IIE      0.053450
     47 H172       -3.2250   -0.9490    1.8950 hc        1 IIE      0.053450
     48 H27        -6.1490   -3.5800   -0.7600 h1        1 IIE      0.017700
     49 H281       -7.9570   -2.5590    1.5500 hc        1 IIE      0.040367
     50 H282       -8.1330   -4.1540    0.7060 hc        1 IIE      0.040367
     51 H283       -6.6230   -3.7900    1.6270 hc        1 IIE      0.040367
     52 H321       -8.5520   -1.6250   -0.9840 hc        1 IIE      0.040367
     53 H322       -7.5520   -2.3340   -2.3240 hc        1 IIE      0.040367
     54 H323       -8.6110   -3.4050   -1.3290 hc        1 IIE      0.040367
     55 H371        0.5900    1.0740   -2.2630 h1        1 IIE      0.098200
     56 H372        1.7330    2.4900   -2.5470 h1        1 IIE      0.098200
     57 H40         3.3420   -4.2540    1.3390 ha        1 IIE      0.146500
     58 H48         6.6650   -1.9480   -0.2140 ha        1 IIE      0.146500
     59 H49         5.1130   -0.2040   -1.0060 ha        1 IIE      0.158000
     60 HA          1.4250   -0.4600   -0.4530 hn        1 IIE      0.351500
     61 H43         1.7640   -2.5270    0.5570 ha        1 IIE      0.158000
@<TRIPOS>BOND
     1    1    2 ar  
     2    1    6 ar  
     3    1   33 1   
     4    2    3 ar  
     5    2   34 1   
     6    3    4 ar  
     7    3    7 1   
     8    4    5 ar  
     9    4    9 1   
    10    5    6 ar  
    11    5   35 1   
    12    6   36 1   
    13    7    8 1   
    14    7   21 1   
    15    8    9 2   
    16    8   10 1   
    17    9   37 1   
    18   10   11 1   
    19   10   32 2   
    20   11   12 1   
    21   11   38 1   
    22   12   13 1   
    23   12   17 1   
    24   12   39 1   
    25   13   14 1   
    26   13   40 1   
    27   13   41 1   
    28   14   15 1   
    29   14   42 1   
    30   14   43 1   
    31   15   16 1   
    32   15   18 1   
    33   16   17 1   
    34   16   44 1   
    35   16   45 1   
    36   17   46 1   
    37   17   47 1   
    38   18   19 1   
    39   18   20 1   
    40   18   48 1   
    41   19   49 1   
    42   19   50 1   
    43   19   51 1   
    44   20   52 1   
    45   20   53 1   
    46   20   54 1   
    47   21   22 1   
    48   21   55 1   
    49   21   56 1   
    50   22   29 1   
    51   22   30 2   
    52   23   24 ar  
    53   23   25 ar  
    54   23   61 1   
    55   24   26 ar  
    56   24   57 1   
    57   25   28 ar  
    58   25   29 1   
    59   26   27 ar  
    60   26   31 1   
    61   27   28 ar  
    62   27   58 1   
    63   28   59 1   
    64   29   60 1   
@<TRIPOS>SUBSTRUCTURE
     1 IIE         1 TEMP              0 ****  ****    0 ROOT
