@<TRIPOS>MOLECULE
IIE
   62    65     1     0     0
SMALL
bcc


@<TRIPOS>ATOM
      1 C1          0.1530   -0.6420    0.1660 ca        1 IIE     -0.065000
      2 C2          1.5200   -0.5260   -0.0220 ca        1 IIE     -0.150000
      3 C3          2.3390   -0.5220    1.1220 ca        1 IIE     -0.007200
      4 C4          1.7610   -0.6310    2.4430 ca        1 IIE     -0.116800
      5 C5          0.3740   -0.7550    2.5890 ca        1 IIE     -0.060000
      6 C6         -0.4150   -0.7550    1.4520 ca        1 IIE     -0.138000
      7 N7          3.7380   -0.4880    1.2460 na        1 IIE     -0.028400
      8 C8          4.0280   -0.4750    2.6350 cc        1 IIE     -0.198300
      9 C9          2.8500   -0.5910    3.3810 cd        1 IIE     -0.073200
     10 C10         5.3990   -0.3950    3.1230 c         1 IIE      0.617300
     11 N11         5.5920    0.6240    4.2220 n4        1 IIE     -0.666800
     12 C12         6.5640    0.1960    5.2890 c3        1 IIE      0.119500
     13 C13         5.9530   -0.8530    6.2200 c3        1 IIE     -0.102900
     14 C14         6.9700   -1.2430    7.2990 c3        1 IIE      0.174800
     15 N15         7.4550   -0.0970    8.0470 n3        1 IIE     -0.743600
     16 C16         8.0230    0.9210    7.1760 c3        1 IIE      0.174800
     17 C17         7.0390    1.4000    6.1070 c3        1 IIE     -0.102900
     18 C27         8.3560   -0.4190    9.1680 c3        1 IIE      0.188500
     19 C28         8.2350    0.6280   10.2800 c3        1 IIE     -0.098600
     20 C32         8.1310   -1.7950    9.7910 c3        1 IIE     -0.098600
     21 C37         4.6550   -0.0530    0.2380 c3        1 IIE     -0.045700
     22 C38         5.2070    1.3770    0.4600 c         1 IIE      0.663100
     23 C43         6.3720    3.9650   -1.9020 ca        1 IIE     -0.136500
     24 C40         6.9050    5.2450   -1.9860 ca        1 IIE     -0.102000
     25 C45         5.8620    3.4840   -0.6740 ca        1 IIE      0.027600
     26 C47         6.9440    6.0660   -0.8530 ca        1 IIE      0.014400
     27 C48         6.4420    5.6000    0.3650 ca        1 IIE     -0.102000
     28 C49         5.9020    4.3200    0.4590 ca        1 IIE     -0.136500
     29 N12         5.3000    2.1870   -0.6380 n         1 IIE     -0.428100
     30 O14         5.5670    1.7150    1.6130 o         1 IIE     -0.690100
     31 CL50        7.5980    7.6240   -0.9600 cl        1 IIE     -0.059400
     32 O56         6.3860   -1.0040    2.7340 o         1 IIE     -0.432100
     33 H1         -0.5140   -0.6470   -0.7120 ha        1 IIE      0.155000
     34 H2          1.9470   -0.4500   -1.0310 ha        1 IIE      0.145000
     35 H5         -0.0700   -0.8530    3.5910 ha        1 IIE      0.153000
     36 H6         -1.5090   -0.8490    1.5430 ha        1 IIE      0.157000
     37 H9          2.7600   -0.6840    4.4620 ha        1 IIE      0.165000
     38 H11         4.6840    0.8420    4.6460 hn        1 IIE      0.469300
     39 H12         7.4500   -0.2590    4.7470 hx        1 IIE      0.121700
     40 H131        5.6820   -1.7760    5.6450 hc        1 IIE      0.067950
     41 H132        5.0270   -0.4510    6.7090 hc        1 IIE      0.067950
     42 H141        6.4410   -1.9350    8.0140 h1        1 IIE      0.055950
     43 H142        7.8070   -1.8200    6.8070 h1        1 IIE      0.055950
     44 H161        8.3010    1.8090    7.8130 h1        1 IIE      0.055950
     45 H162        8.9620    0.5610    6.6590 h1        1 IIE      0.055950
     46 H171        7.5650    2.1430    5.4520 hc        1 IIE      0.067950
     47 H172        6.1690    1.9110    6.5960 hc        1 IIE      0.067950
     48 H27         9.4290   -0.4010    8.7950 h1        1 IIE      0.030700
     49 H281        7.2020    0.6400   10.7020 hc        1 IIE      0.046700
     50 H282        8.4810    1.6510    9.9080 hc        1 IIE      0.046700
     51 H283        8.9530    0.3680   11.0950 hc        1 IIE      0.046700
     52 H321        8.8360   -1.9160   10.6490 hc        1 IIE      0.046700
     53 H322        8.3350   -2.6120    9.0580 hc        1 IIE      0.046700
     54 H323        7.0890   -1.9000   10.1770 hc        1 IIE      0.046700
     55 H371        4.1450   -0.1550   -0.7620 h1        1 IIE      0.105200
     56 H372        5.5580   -0.7360    0.2590 h1        1 IIE      0.105200
     57 H48         6.4660    6.2450    1.2580 ha        1 IIE      0.159500
     58 H49         5.5110    3.9710    1.4270 ha        1 IIE      0.148000
     59 HA          5.0380    1.8110   -1.5240 hn        1 IIE      0.332500
     60 H43         6.3510    3.3360   -2.8060 ha        1 IIE      0.148000
     61 H112        5.9490    1.4800    3.7630 hn        1 IIE      0.469300
     62 H40         7.2990    5.6100   -2.9490 ha        1 IIE      0.159500
@<TRIPOS>BOND
     1    1    2 ar  
     2    1    6 ar  
     3    1   33 1   
     4    2    3 ar  
     5    2   34 1   
     6    3    4 ar  
     7    3    7 1   
     8    4    5 ar  
     9    4    9 1   
    10    5    6 ar  
    11    5   35 1   
    12    6   36 1   
    13    7    8 1   
    14    7   21 1   
    15    8    9 2   
    16    8   10 1   
    17    9   37 1   
    18   10   11 1   
    19   10   32 2   
    20   11   12 1   
    21   11   38 1   
    22   11   61 1   
    23   12   13 1   
    24   12   17 1   
    25   12   39 1   
    26   13   14 1   
    27   13   40 1   
    28   13   41 1   
    29   14   15 1   
    30   14   42 1   
    31   14   43 1   
    32   15   16 1   
    33   15   18 1   
    34   16   17 1   
    35   16   44 1   
    36   16   45 1   
    37   17   46 1   
    38   17   47 1   
    39   18   19 1   
    40   18   20 1   
    41   18   48 1   
    42   19   49 1   
    43   19   50 1   
    44   19   51 1   
    45   20   52 1   
    46   20   53 1   
    47   20   54 1   
    48   21   22 1   
    49   21   55 1   
    50   21   56 1   
    51   22   29 1   
    52   22   30 2   
    53   23   24 ar  
    54   23   25 ar  
    55   23   60 1   
    56   24   26 ar  
    57   24   62 1   
    58   25   28 ar  
    59   25   29 1   
    60   26   27 ar  
    61   26   31 1   
    62   27   28 ar  
    63   27   57 1   
    64   28   58 1   
    65   29   59 1   
@<TRIPOS>SUBSTRUCTURE
     1 IIE         1 TEMP              0 ****  ****    0 ROOT
