@<TRIPOS>MOLECULE
IIE
   62    65     1     0     0
SMALL
bcc


@<TRIPOS>ATOM
      1 C1          0.2580   -0.7720    0.0660 ca        1 IIE     -0.065000
      2 C2          1.6240   -0.6190   -0.0970 ca        1 IIE     -0.150000
      3 C3          2.4230   -0.5970    1.0610 ca        1 IIE     -0.007200
      4 C4          1.8250   -0.7300    2.3710 ca        1 IIE     -0.116800
      5 C5          0.4390   -0.8920    2.4910 ca        1 IIE     -0.060000
      6 C6         -0.3290   -0.9080    1.3420 ca        1 IIE     -0.138000
      7 N7          3.8180   -0.5260    1.2100 na        1 IIE     -0.028400
      8 C8          4.0830   -0.5120    2.6040 cc        1 IIE     -0.198300
      9 C9          2.8970   -0.6650    3.3280 cd        1 IIE     -0.073200
     10 C10         5.4430   -0.3970    3.1150 c         1 IIE      0.617300
     11 N11         5.5880    0.6200    4.2230 ny        1 IIE     -0.666800
     12 C12         6.5530    0.2120    5.3050 c3        1 IIE      0.119500
     13 C13         5.9540   -0.8560    6.2210 c3        1 IIE     -0.102900
     14 C14         6.9620   -1.2250    7.3150 c3        1 IIE      0.174800
     15 N15         7.4040   -0.0700    8.0760 n3        1 IIE     -0.743600
     16 C16         7.9610    0.9670    7.2200 c3        1 IIE      0.174800
     17 C17         6.9820    1.4250    6.1360 c3        1 IIE     -0.102900
     18 C27         8.2940   -0.3740    9.2110 c3        1 IIE      0.188500
     19 C28         8.1270    0.6630   10.3260 c3        1 IIE     -0.098600
     20 C32         8.0950   -1.7590    9.8230 c3        1 IIE     -0.098600
     21 C37         4.7400   -0.0600    0.2190 c3        1 IIE     -0.045700
     22 C38         5.2470    1.3840    0.4590 c         1 IIE      0.663100
     23 C43         6.3760    4.0190   -1.8690 ca        1 IIE     -0.136500
     24 C40         6.8740    5.3140   -1.9380 ca        1 IIE     -0.102000
     25 C45         5.8620    3.5160   -0.6510 ca        1 IIE      0.027600
     26 C47         6.8730    6.1270   -0.7990 ca        1 IIE      0.014400
     27 C48         6.3670    5.6400    0.4090 ca        1 IIE     -0.102000
     28 C49         5.8620    4.3450    0.4860 ca        1 IIE     -0.136500
     29 N12         5.3360    2.2030   -0.6320 ns        1 IIE     -0.428100
     30 O14         5.5790    1.7250    1.6200 o         1 IIE     -0.690100
     31 Cl50        7.4860    7.7040   -0.8860 cl        1 IIE     -0.059400
     32 O56         6.4530   -0.9770    2.7410 o         1 IIE     -0.432100
     33 H1         -0.3940   -0.7920   -0.8230 ha        1 IIE      0.155000
     34 H2          2.0660   -0.5250   -1.0990 ha        1 IIE      0.145000
     35 H5         -0.0180   -1.0080    3.4850 ha        1 IIE      0.153000
     36 H6         -1.4220   -1.0320    1.4130 ha        1 IIE      0.157000
     37 H9          2.7900   -0.7660    4.4060 ha        1 IIE      0.165000
     38 H11         4.6680    0.8100    4.6320 hn        1 IIE      0.469300
     39 H12         7.4600   -0.2160    4.7770 hx        1 IIE      0.121700
     40 H131        5.0100   -0.4800    6.6950 hc        1 IIE      0.067950
     41 H132        5.7160   -1.7840    5.6380 hc        1 IIE      0.067950
     42 H141        6.4390   -1.9340    8.0180 h1        1 IIE      0.055950
     43 H142        7.8220   -1.7770    6.8350 h1        1 IIE      0.055950
     44 H161        8.2050    1.8580    7.8650 h1        1 IIE      0.055950
     45 H162        8.9170    0.6330    6.7170 h1        1 IIE      0.055950
     46 H171        6.0910    1.9100    6.6120 hc        1 IIE      0.067950
     47 H172        7.5000    2.1840    5.4930 hc        1 IIE      0.067950
     48 H27         9.3730   -0.3260    8.8560 h1        1 IIE      0.030700
     49 H281        7.0870    0.6460   10.7300 hc        1 IIE      0.046700
     50 H282        8.8380    0.4190   11.1520 hc        1 IIE      0.046700
     51 H283        8.3520    1.6940    9.9630 hc        1 IIE      0.046700
     52 H321        8.7890   -1.8660   10.6930 hc        1 IIE      0.046700
     53 H322        7.0500   -1.8930   10.1920 hc        1 IIE      0.046700
     54 H323        8.3330   -2.5670    9.0910 hc        1 IIE      0.046700
     55 H371        5.6610   -0.7170    0.2530 h1        1 IIE      0.105200
     56 H372        4.2500   -0.1700   -0.7900 h1        1 IIE      0.105200
     57 H48         6.3600    6.2800    1.3060 ha        1 IIE      0.159500
     58 H49         5.4660    3.9790    1.4460 ha        1 IIE      0.148000
     59 HA          5.0980    1.8260   -1.5250 hn        1 IIE      0.332500
     60 H43         6.3860    3.3960   -2.7780 ha        1 IIE      0.148000
     61 H112        5.9300    1.4880    3.7750 hn        1 IIE      0.469300
     62 H40         7.2720    5.6960   -2.8920 ha        1 IIE      0.159500
@<TRIPOS>BOND
     1    1    2 ar  
     2    1    6 ar  
     3    1   33 1   
     4    2    3 ar  
     5    2   34 1   
     6    3    4 ar  
     7    3    7 1   
     8    4    5 ar  
     9    4    9 1   
    10    5    6 ar  
    11    5   35 1   
    12    6   36 1   
    13    7    8 1   
    14    7   21 1   
    15    8    9 2   
    16    8   10 1   
    17    9   37 1   
    18   10   11 1   
    19   10   32 2   
    20   11   12 1   
    21   11   38 1   
    22   11   61 1   
    23   12   13 1   
    24   12   17 1   
    25   12   39 1   
    26   13   14 1   
    27   13   40 1   
    28   13   41 1   
    29   14   15 1   
    30   14   42 1   
    31   14   43 1   
    32   15   16 1   
    33   15   18 1   
    34   16   17 1   
    35   16   44 1   
    36   16   45 1   
    37   17   46 1   
    38   17   47 1   
    39   18   19 1   
    40   18   20 1   
    41   18   48 1   
    42   19   49 1   
    43   19   50 1   
    44   19   51 1   
    45   20   52 1   
    46   20   53 1   
    47   20   54 1   
    48   21   22 1   
    49   21   55 1   
    50   21   56 1   
    51   22   29 1   
    52   22   30 2   
    53   23   24 ar  
    54   23   25 ar  
    55   23   60 1   
    56   24   26 ar  
    57   24   62 1   
    58   25   28 ar  
    59   25   29 1   
    60   26   27 ar  
    61   26   31 1   
    62   27   28 ar  
    63   27   57 1   
    64   28   58 1   
    65   29   59 1   
@<TRIPOS>SUBSTRUCTURE
     1 IIE         1 TEMP              0 ****  ****    0 ROOT
