@<TRIPOS>MOLECULE
IIE
   61    53     1     0     0
SMALL
bcc


@<TRIPOS>ATOM
      1 C1         -4.1440   -1.1500   -3.7270 c1        1 IIE     -0.132250
      2 C2         -2.7520   -1.1260   -3.7720 c1        1 IIE     -0.116000
      3 C3         -2.0060   -1.1600   -2.5760 c1        1 IIE     -0.046500
      4 C4         -2.6560   -1.2170   -1.3610 c1        1 IIE     -0.046500
      5 C5         -4.0690   -1.2410   -1.3160 c1        1 IIE     -0.116000
      6 C6         -4.8020   -1.2080   -2.4940 c1        1 IIE     -0.132250
      7 N7         -0.6350   -1.1470   -2.3310 n1        1 IIE     -0.143000
      8 C8         -0.4450   -1.1960   -0.9710 c1        1 IIE     -0.065000
      9 C9         -1.6950   -1.2390   -0.3640 c1        1 IIE     -0.155000
     10 C10         0.4060   -1.9370    0.0850 c1        1 IIE      0.368000
     11 N11         0.2440   -1.6300    1.4870 n3        1 IIE     -0.367000
     12 C12         0.9720   -2.4210    2.5100 c3        1 IIE      0.028000
     13 C13         2.4040   -2.0210    2.5000 c3        1 IIE     -0.207500
     14 C14         2.6130   -0.6180    3.0150 c3        1 IIE     -0.072500
     15 N15         1.9800   -0.3950    4.3150 n3        1 IIE     -0.250000
     16 C16         0.5560   -0.7860    4.3340 c3        1 IIE     -0.072500
     17 C17         0.3370   -2.1970    3.8240 c3        1 IIE     -0.207500
     18 C27         2.7060   -1.1360    5.3490 c3        1 IIE     -0.018000
     19 C28         4.1870   -0.6950    5.3550 c3        1 IIE     -0.212000
     20 C32         2.0790   -0.8470    6.7190 c3        1 IIE     -0.212000
     21 C37         0.1100   -0.4470   -3.3650 c2        1 IIE     -0.055000
     22 C38        -0.4370    0.9780   -3.5180 c2        1 IIE      0.285000
     23 C43        -1.6660    3.5310   -4.2510 c1        1 IIE     -0.149000
     24 C40        -2.2420    4.7670   -4.5230 c1        1 IIE     -0.099000
     25 C45        -0.4110    3.2340   -4.7330 c1        1 IIE      0.076000
     26 C47        -1.5520    5.7060   -5.2830 c1        1 IIE     -0.090000
     27 C48        -0.2930    5.4110   -5.7680 c1        1 IIE     -0.132250
     28 C49         0.2830    4.1760   -5.4960 c1        1 IIE     -0.132250
     29 N12         0.1360    1.8910   -4.5580 n         1 IIE     -0.320000
     30 O14        -1.3540    1.3520   -2.8210 o         1 IIE     -0.337000
     31 CL50       -2.3150    7.2280   -5.6980 cl        1 IIE     -0.018000
     32 O56         1.1460   -2.8540   -0.2600 o         1 IIE     -0.368000
     33 H1         -4.6560   -1.1280   -4.5480 ha        1 IIE      0.139000
     34 H2         -2.2870   -1.0860   -4.6430 ha        1 IIE      0.139500
     35 H5         -4.5350   -1.2830   -0.4440 ha        1 IIE      0.139500
     36 H6         -5.7990   -1.2250   -2.4620 ha        1 IIE      0.139000
     37 H9         -1.8640   -1.2780    0.5880 DU        1 IIE      0.162000
     38 H11        -0.2870   -0.9280    1.7440 hn        1 IIE      0.231000
     39 H12         0.9070   -3.3570    2.2850 h1        1 IIE      0.130000
     40 H131        2.7460   -2.0770    1.5730 hc        1 IIE      0.096500
     41 H132        2.9100   -2.6450    3.0640 hc        1 IIE      0.096500
     42 H141        2.2410    0.0140    2.3700 h1        1 IIE      0.090250
     43 H142        3.5580   -0.4560    3.0990 h1        1 IIE      0.090250
     44 H161        0.0500   -0.1660    3.7750 h1        1 IIE      0.090250
     45 H162        0.2270   -0.7270    5.2420 h1        1 IIE      0.090250
     46 H171        0.7150   -2.8270    4.4690 hc        1 IIE      0.096500
     47 H172       -0.6220   -2.3610    3.7450 hc        1 IIE      0.096500
     48 H27         2.6520   -2.0970    5.1600 h1        1 IIE      0.059000
     49 H281        4.6980   -1.2710    5.9710 hc        1 IIE      0.078333
     50 H282        4.2490    0.2290    5.6490 hc        1 IIE      0.078333
     51 H283        4.5530   -0.7760    4.4570 hc        1 IIE      0.078333
     52 H321        2.7880   -0.8030    7.4020 hc        1 IIE      0.078333
     53 H322        1.4530   -1.5580    6.9450 hc        1 IIE      0.078333
     54 H323        1.5990    0.0170    6.6870 hc        1 IIE      0.078333
     55 H371        1.0390   -0.4090   -3.1200 ha        1 IIE      0.155000
     56 H372        0.0160   -0.9220   -4.2090 ha        1 IIE      0.155000
     57 H43        -2.1420    2.8860   -3.7280 ha        1 IIE      0.178000
     58 H40        -3.1180    4.9720   -4.1850 ha        1 IIE      0.150000
     59 H48         0.1910    6.0700   -6.3010 ha        1 IIE      0.139000
     60 H49         1.1760    3.9670   -5.8390 ha        1 IIE      0.139000
     61 HA          0.8580    1.6240   -5.0520 hn        1 IIE      0.242000
@<TRIPOS>BOND
     1    1    6 1   
     2    1   33 1   
     3    2    3 1   
     4    2   34 1   
     5    4    5 1   
     6    5   35 1   
     7    6   36 1   
     8    7    8 1   
     9    8    9 1   
    10   10   11 1   
    11   10   32 1   
    12   11   12 1   
    13   11   38 1   
    14   12   13 1   
    15   12   17 1   
    16   12   39 1   
    17   13   14 1   
    18   13   40 1   
    19   13   41 1   
    20   14   15 1   
    21   14   42 1   
    22   14   43 1   
    23   15   16 1   
    24   15   18 1   
    25   16   17 1   
    26   16   44 1   
    27   16   45 1   
    28   17   46 1   
    29   17   47 1   
    30   18   19 1   
    31   18   20 1   
    32   18   48 1   
    33   19   49 1   
    34   19   50 1   
    35   19   51 1   
    36   20   52 1   
    37   20   53 1   
    38   20   54 1   
    39   21   22 1   
    40   21   55 1   
    41   21   56 1   
    42   22   29 1   
    43   22   30 1   
    44   23   25 1   
    45   23   57 1   
    46   24   26 1   
    47   24   58 1   
    48   25   29 1   
    49   26   31 1   
    50   27   28 1   
    51   27   59 1   
    52   28   60 1   
    53   29   61 1   
@<TRIPOS>SUBSTRUCTURE
     1 IIE         1 TEMP              0 ****  ****    0 ROOT
