@<TRIPOS>MOLECULE
IIG
   57    60     1     0     0
SMALL
bcc


@<TRIPOS>ATOM
      1 N1         -2.3300   -1.8470   -0.4250 n         1 IIG     -0.445800
      2 C4          0.9220   -1.2400   -1.1490 ca        1 IIG     -0.098500
      3 C5          0.1440   -1.6250   -0.0520 ca        1 IIG     -0.097600
      4 C6          0.5920   -1.3600    1.2430 ca        1 IIG     -0.098500
      5 C7          1.7960   -0.6820    1.4420 ca        1 IIG     -0.107000
      6 C8          3.8520    0.4910    0.5460 c3        1 IIG      0.197100
      7 C10         4.1030    0.9320    1.9820 c3        1 IIG     -0.097100
      8 C13        -3.4650   -2.6880   -0.6810 cx        1 IIG      0.035700
      9 C15        -4.6730   -2.7130    0.2410 cx        1 IIG     -0.126400
     10 C17        -2.9590    1.5520    1.1900 c3        1 IIG     -0.080900
     11 C20        -3.0130    3.8450    0.2370 cx        1 IIG     -0.161700
     12 C21        -3.3900    4.6710   -0.9640 cx        1 IIG     -0.127900
     13 C22        -4.4600    4.0450   -0.1220 cx        1 IIG     -0.127900
     14 C1         -2.3460    2.4870    0.1370 c3        1 IIG      0.180800
     15 C18        -2.4670    1.8720   -1.2620 c3        1 IIG     -0.080900
     16 C19        -1.9070    0.4670   -1.3170 c3        1 IIG     -0.093900
     17 O3         -0.9690    2.6260    0.4940 oh        1 IIG     -0.593800
     18 C16        -2.4020    0.1480    1.1070 c3        1 IIG     -0.093900
     19 C12        -2.6300   -0.4300   -0.3000 c3        1 IIG      0.118700
     20 C14        -3.7870   -3.9170    0.1470 cx        1 IIG     -0.126400
     21 C11        -1.0860   -2.4450   -0.2720 c         1 IIG      0.671700
     22 O2         -0.9770   -3.6870   -0.3410 o         1 IIG     -0.588100
     23 C3          2.1250   -0.5690   -0.9450 ca        1 IIG     -0.107000
     24 C2          2.5690   -0.2730    0.3520 ca        1 IIG     -0.119300
     25 C9          5.0890   -0.4040    0.0810 c3        1 IIG      0.585900
     26 F2          5.1310   -1.6600    0.6220 f         1 IIG     -0.236967
     27 F3          5.1370   -0.5890   -1.2790 f         1 IIG     -0.236967
     28 F1          6.3070    0.1460    0.3880 f         1 IIG     -0.236967
     29 O1          3.8930    1.6740   -0.2310 oh        1 IIG     -0.568800
     30 H6          0.0010   -1.6910    2.1110 ha        1 IIG      0.147500
     31 H7          2.1240   -0.4820    2.4740 ha        1 IIG      0.142000
     32 H10         4.2870    0.0370    2.6230 hc        1 IIG      0.067033
     33 H10A        5.0020    1.5960    2.0120 hc        1 IIG      0.067033
     34 H10B        3.2240    1.5040    2.3620 hc        1 IIG      0.067033
     35 H13        -3.6600   -2.7540   -1.7760 h1        1 IIG      0.080700
     36 H15        -4.6600   -2.1130    1.1690 hc        1 IIG      0.078950
     37 H15A       -5.6740   -2.7360   -0.2230 hc        1 IIG      0.078950
     38 H17        -2.7450    1.9720    2.2070 hc        1 IIG      0.050450
     39 H17A       -4.0690    1.5430    1.0390 hc        1 IIG      0.050450
     40 H20        -2.6270    4.3900    1.1250 hc        1 IIG      0.092700
     41 H21        -3.2390    5.7640   -0.9160 hc        1 IIG      0.072450
     42 H21A       -3.2090    4.2790   -1.9800 hc        1 IIG      0.072450
     43 H22        -5.0370    3.1950   -0.5310 hc        1 IIG      0.072450
     44 H22A       -5.0830    4.6870    0.5260 hc        1 IIG      0.072450
     45 H18        -3.5470    1.8670   -1.5620 hc        1 IIG      0.050450
     46 H18A       -1.9090    2.5110   -1.9960 hc        1 IIG      0.050450
     47 H19        -2.0310    0.0580   -2.3530 hc        1 IIG      0.056450
     48 H19A       -0.8100    0.5010   -1.0830 hc        1 IIG      0.056450
     49 HO3        -0.5720    3.2230   -0.1510 ho        1 IIG      0.402000
     50 H16        -1.3040    0.1740    1.3360 hc        1 IIG      0.056450
     51 H16A       -2.9060   -0.4950    1.8740 hc        1 IIG      0.056450
     52 H12        -3.7420   -0.3320   -0.5150 h1        1 IIG      0.059700
     53 H14        -4.1400   -4.8150   -0.3900 hc        1 IIG      0.078950
     54 H14A       -3.1330   -4.1790    0.9980 hc        1 IIG      0.078950
     55 H3          2.7410   -0.2950   -1.8170 ha        1 IIG      0.142000
     56 HO1         3.6680    1.4440   -1.1430 ho        1 IIG      0.417000
     57 H4          0.5890   -1.4760   -2.1710 ha        1 IIG      0.147500
@<TRIPOS>BOND
     1    1    8 1   
     2    1   19 1   
     3    1   21 1   
     4    2    3 ar  
     5    2   23 ar  
     6    2   57 1   
     7    3    4 ar  
     8    3   21 1   
     9    4    5 ar  
    10    4   30 1   
    11    5   24 ar  
    12    5   31 1   
    13    6    7 1   
    14    6   24 1   
    15    6   25 1   
    16    6   29 1   
    17    7   32 1   
    18    7   33 1   
    19    7   34 1   
    20    8    9 1   
    21    8   20 1   
    22    8   35 1   
    23    9   20 1   
    24    9   36 1   
    25    9   37 1   
    26   10   14 1   
    27   10   18 1   
    28   10   38 1   
    29   10   39 1   
    30   11   12 1   
    31   11   13 1   
    32   11   14 1   
    33   11   40 1   
    34   12   13 1   
    35   12   41 1   
    36   12   42 1   
    37   13   43 1   
    38   13   44 1   
    39   14   15 1   
    40   14   17 1   
    41   15   16 1   
    42   15   45 1   
    43   15   46 1   
    44   16   19 1   
    45   16   47 1   
    46   16   48 1   
    47   17   49 1   
    48   18   19 1   
    49   18   50 1   
    50   18   51 1   
    51   19   52 1   
    52   20   53 1   
    53   20   54 1   
    54   21   22 2   
    55   23   24 ar  
    56   23   55 1   
    57   25   26 1   
    58   25   27 1   
    59   25   28 1   
    60   29   56 1   
@<TRIPOS>SUBSTRUCTURE
     1 IIG         1 TEMP              0 ****  ****    0 ROOT
