@<TRIPOS>MOLECULE
IIG
   58    61     1     0     0
SMALL
bcc


@<TRIPOS>ATOM
      1 N1          0.1040   -0.1260   -0.2210 nx        1 IIG     -0.566200
      2 C4          1.1440   -3.1060   -1.8930 ca        1 IIG     -0.085000
      3 C5          0.0410   -2.4690   -1.3100 ca        1 IIG     -0.175600
      4 C6         -0.9780   -3.2200   -0.7110 ca        1 IIG     -0.085000
      5 C7         -0.8900   -4.6090   -0.6960 ca        1 IIG     -0.095000
      6 C8          0.2930   -6.7600   -1.2500 c3        1 IIG      0.176100
      7 C10         0.2620   -7.3040    0.1720 c3        1 IIG     -0.136100
      8 C13        -0.6470   -0.6120    0.9440 cx        1 IIG      0.003500
      9 C15        -2.0990   -0.2220    1.1500 cx        1 IIG     -0.104900
     10 C17         3.7150   -0.7710    1.0290 c3        1 IIG     -0.083900
     11 C20         5.8870    0.0640    0.1450 cx        1 IIG     -0.175700
     12 C21         6.9350   -0.9800    0.4290 cx        1 IIG     -0.119900
     13 C22         7.0260   -0.1520   -0.8160 cx        1 IIG     -0.119900
     14 C1          4.4720   -0.3160   -0.2270 c3        1 IIG      0.181800
     15 C18         3.7560    0.9000   -0.8320 c3        1 IIG     -0.083900
     16 C19         2.3140    0.5790   -1.1610 c3        1 IIG     -0.093400
     17 O3          4.4010   -1.3420   -1.2160 oh        1 IIG     -0.610800
     18 C16         2.2720   -1.1060    0.7160 c3        1 IIG     -0.093400
     19 C12         1.5720    0.1060    0.0970 c3        1 IIG      0.145500
     20 C14        -1.0490    0.3330    2.0610 cx        1 IIG     -0.104900
     21 C11        -0.0950   -1.0110   -1.4500 c         1 IIG      0.589700
     22 O2         -0.3660   -0.3840   -2.4650 o         1 IIG     -0.414100
     23 C3          1.2250   -4.4980   -1.8700 ca        1 IIG     -0.095000
     24 C2          0.2100   -5.2560   -1.2750 ca        1 IIG     -0.037300
     25 C9         -0.9190   -7.4030   -2.0640 c3        1 IIG      0.594900
     26 F2         -2.1310   -7.3050   -1.4340 f         1 IIG     -0.226300
     27 F3         -1.1140   -6.8750   -3.3090 f         1 IIG     -0.226300
     28 F1         -0.7260   -8.7450   -2.2700 f         1 IIG     -0.226300
     29 O1          1.4850   -7.1420   -1.9150 oh        1 IIG     -0.577800
     30 H6         -1.8600   -2.7230   -0.2770 ha        1 IIG      0.157500
     31 H7         -1.7070   -5.2020   -0.2480 ha        1 IIG      0.179000
     32 H10        -0.6650   -6.9720    0.6970 hc        1 IIG      0.070700
     33 H10A        1.1580   -6.9420    0.7320 hc        1 IIG      0.070700
     34 H10B        0.2790   -8.4220    0.1480 hc        1 IIG      0.070700
     35 H13        -0.3280   -1.6470    1.2080 hx        1 IIG      0.144700
     36 H15        -2.6010    0.4560    0.4330 hc        1 IIG      0.107700
     37 H15A       -2.7880   -1.0070    1.5170 hc        1 IIG      0.107700
     38 H17         4.2140   -1.6830    1.4490 hc        1 IIG      0.071700
     39 H17A        3.7720    0.0380    1.8020 hc        1 IIG      0.071700
     40 H20         5.9000    0.9820    0.7680 hc        1 IIG      0.094700
     41 H21         7.6500   -0.7970    1.2520 hc        1 IIG      0.082200
     42 H21A        6.6770   -2.0510    0.3510 hc        1 IIG      0.082200
     43 H22         7.8090    0.6240   -0.8940 hc        1 IIG      0.082200
     44 H22A        6.8150   -0.6240   -1.7940 hc        1 IIG      0.082200
     45 H18         3.8150    1.7520   -0.1080 hc        1 IIG      0.071700
     46 H18A        4.2830    1.2020   -1.7750 hc        1 IIG      0.071700
     47 H19         1.8190    1.4900   -1.5890 hc        1 IIG      0.069700
     48 H19A        2.2970   -0.2300   -1.9410 hc        1 IIG      0.069700
     49 HO3         5.0800   -1.9960   -1.0080 ho        1 IIG      0.418000
     50 H16         2.2470   -1.9690   -0.0030 hc        1 IIG      0.069700
     51 H16A        1.7560   -1.4130    1.6630 hc        1 IIG      0.069700
     52 H12         1.5720    0.9410    0.8640 hx        1 IIG      0.093700
     53 H14        -0.7960    1.4080    1.9950 hc        1 IIG      0.107700
     54 H14A       -0.9660   -0.0420    3.0990 hc        1 IIG      0.107700
     55 H3          2.0890   -5.0040   -2.3380 ha        1 IIG      0.179000
     56 HO1         1.5610   -8.1060   -1.8430 ho        1 IIG      0.440000
     57 H11        -0.2700    0.8030   -0.4800 hn        1 IIG      0.445800
     58 H4          1.9450   -2.5180   -2.3740 ha        1 IIG      0.157500
@<TRIPOS>BOND
     1    1    8 1   
     2    1   19 1   
     3    1   21 1   
     4    1   57 1   
     5    2    3 ar  
     6    2   23 ar  
     7    2   58 1   
     8    3    4 ar  
     9    3   21 1   
    10    4    5 ar  
    11    4   30 1   
    12    5   24 ar  
    13    5   31 1   
    14    6    7 1   
    15    6   24 1   
    16    6   25 1   
    17    6   29 1   
    18    7   32 1   
    19    7   33 1   
    20    7   34 1   
    21    8    9 1   
    22    8   20 1   
    23    8   35 1   
    24    9   20 1   
    25    9   36 1   
    26    9   37 1   
    27   10   14 1   
    28   10   18 1   
    29   10   38 1   
    30   10   39 1   
    31   11   12 1   
    32   11   13 1   
    33   11   14 1   
    34   11   40 1   
    35   12   13 1   
    36   12   41 1   
    37   12   42 1   
    38   13   43 1   
    39   13   44 1   
    40   14   15 1   
    41   14   17 1   
    42   15   16 1   
    43   15   45 1   
    44   15   46 1   
    45   16   19 1   
    46   16   47 1   
    47   16   48 1   
    48   17   49 1   
    49   18   19 1   
    50   18   50 1   
    51   18   51 1   
    52   19   52 1   
    53   20   53 1   
    54   20   54 1   
    55   21   22 2   
    56   23   24 ar  
    57   23   55 1   
    58   25   26 1   
    59   25   27 1   
    60   25   28 1   
    61   29   56 1   
@<TRIPOS>SUBSTRUCTURE
     1 IIG         1 TEMP              0 ****  ****    0 ROOT
