@<TRIPOS>MOLECULE
IIG
   58    61     1     0     0
SMALL
bcc


@<TRIPOS>ATOM
      1 N1          0.1240   -0.1100   -0.2430 n4        1 IIG     -0.566200
      2 C4          1.1560   -3.1000   -1.9010 ca        1 IIG     -0.085000
      3 C5          0.0520   -2.4510   -1.3320 ca        1 IIG     -0.175600
      4 C6         -0.9820   -3.1920   -0.7470 ca        1 IIG     -0.085000
      5 C7         -0.9090   -4.5820   -0.7310 ca        1 IIG     -0.095000
      6 C8          0.2590   -6.7450   -1.2700 c3        1 IIG      0.176100
      7 C10         0.2050   -7.2890    0.1520 c3        1 IIG     -0.136100
      8 C13        -0.6480   -0.5870    0.9120 cx        1 IIG      0.003500
      9 C15        -2.0990   -0.1820    1.0970 cx        1 IIG     -0.104900
     10 C17         3.7110   -0.7930    1.0580 c3        1 IIG     -0.083900
     11 C20         5.9030    0.0190    0.2040 cx        1 IIG     -0.175700
     12 C21         6.9370   -1.0360    0.5010 cx        1 IIG     -0.119900
     13 C22         7.0530   -0.2080   -0.7420 cx        1 IIG     -0.119900
     14 C1          4.4900   -0.3450   -0.1880 c3        1 IIG      0.181800
     15 C18         3.7950    0.8780   -0.8020 c3        1 IIG     -0.083900
     16 C19         2.3550    0.5730   -1.1510 c3        1 IIG     -0.093400
     17 O3          4.4220   -1.3700   -1.1780 oh        1 IIG     -0.610800
     18 C16         2.2680   -1.1120    0.7240 c3        1 IIG     -0.093400
     19 C12         1.5910    0.1070    0.0960 c3        1 IIG      0.145500
     20 C14        -1.0560    0.3620    2.0230 cx        1 IIG     -0.104900
     21 C11        -0.0670   -0.9920   -1.4740 c         1 IIG      0.589700
     22 O2         -0.3170   -0.3630   -2.4920 o         1 IIG     -0.414100
     23 C3          1.2230   -4.4920   -1.8780 ca        1 IIG     -0.095000
     24 C2          0.1920   -5.2410   -1.2960 ca        1 IIG     -0.037300
     25 C9         -0.9480   -7.3750   -2.0990 c3        1 IIG      0.594900
     26 F2         -2.1680   -7.2660   -1.4850 f         1 IIG     -0.226300
     27 F3         -1.1220   -6.8450   -3.3460 f         1 IIG     -0.226300
     28 F1         -0.7660   -8.7190   -2.3040 f         1 IIG     -0.226300
     29 O1          1.4550   -7.1390   -1.9190 oh        1 IIG     -0.577800
     30 H6         -1.8640   -2.6870   -0.3240 ha        1 IIG      0.157500
     31 H7         -1.7370   -5.1670   -0.2930 ha        1 IIG      0.179000
     32 H10         0.2090   -8.4070    0.1280 hc        1 IIG      0.070700
     33 H10A       -0.7260   -6.9470    0.6650 hc        1 IIG      0.070700
     34 H10B        1.0970   -6.9370    0.7230 hc        1 IIG      0.070700
     35 H13        -0.3430   -1.6250    1.1810 hx        1 IIG      0.144700
     36 H15        -2.8010   -0.9600    1.4550 hc        1 IIG      0.107700
     37 H15A       -2.5830    0.5010    0.3740 hc        1 IIG      0.107700
     38 H17         3.7650    0.0150    1.8310 hc        1 IIG      0.071700
     39 H17A        4.1940   -1.7110    1.4840 hc        1 IIG      0.071700
     40 H20         5.9180    0.9370    0.8280 hc        1 IIG      0.094700
     41 H21         6.6680   -2.1050    0.4190 hc        1 IIG      0.082200
     42 H21A        7.6420   -0.8620    1.3340 hc        1 IIG      0.082200
     43 H22         6.8510   -0.6770   -1.7220 hc        1 IIG      0.082200
     44 H22A        7.8450    0.5590   -0.8080 hc        1 IIG      0.082200
     45 H18         4.3380    1.1750   -1.7380 hc        1 IIG      0.071700
     46 H18A        3.8530    1.7300   -0.0760 hc        1 IIG      0.071700
     47 H19         1.8750    1.4890   -1.5850 hc        1 IIG      0.069700
     48 H19A        2.3400   -0.2360   -1.9320 hc        1 IIG      0.069700
     49 HO3         5.0900   -2.0320   -0.9610 ho        1 IIG      0.418000
     50 H16         1.7370   -1.4150    1.6630 hc        1 IIG      0.069700
     51 H16A        2.2450   -1.9750    0.0050 hc        1 IIG      0.069700
     52 H12         1.5880    0.9420    0.8640 hx        1 IIG      0.093700
     53 H14        -0.7910    1.4350    1.9600 hc        1 IIG      0.107700
     54 H14A       -0.9920   -0.0130    3.0620 hc        1 IIG      0.107700
     55 H3          2.0870   -5.0070   -2.3340 ha        1 IIG      0.179000
     56 HO1         1.5210   -8.1040   -1.8460 ho        1 IIG      0.440000
     57 H11        -0.2360    0.8240   -0.5070 hn        1 IIG      0.445800
     58 H4          1.9690   -2.5200   -2.3710 ha        1 IIG      0.157500
@<TRIPOS>BOND
     1    1    8 1   
     2    1   19 1   
     3    1   21 1   
     4    1   57 1   
     5    2    3 ar  
     6    2   23 ar  
     7    2   58 1   
     8    3    4 ar  
     9    3   21 1   
    10    4    5 ar  
    11    4   30 1   
    12    5   24 ar  
    13    5   31 1   
    14    6    7 1   
    15    6   24 1   
    16    6   25 1   
    17    6   29 1   
    18    7   32 1   
    19    7   33 1   
    20    7   34 1   
    21    8    9 1   
    22    8   20 1   
    23    8   35 1   
    24    9   20 1   
    25    9   36 1   
    26    9   37 1   
    27   10   14 1   
    28   10   18 1   
    29   10   38 1   
    30   10   39 1   
    31   11   12 1   
    32   11   13 1   
    33   11   14 1   
    34   11   40 1   
    35   12   13 1   
    36   12   41 1   
    37   12   42 1   
    38   13   43 1   
    39   13   44 1   
    40   14   15 1   
    41   14   17 1   
    42   15   16 1   
    43   15   45 1   
    44   15   46 1   
    45   16   19 1   
    46   16   47 1   
    47   16   48 1   
    48   17   49 1   
    49   18   19 1   
    50   18   50 1   
    51   18   51 1   
    52   19   52 1   
    53   20   53 1   
    54   20   54 1   
    55   21   22 2   
    56   23   24 ar  
    57   23   55 1   
    58   25   26 1   
    59   25   27 1   
    60   25   28 1   
    61   29   56 1   
@<TRIPOS>SUBSTRUCTURE
     1 IIG         1 TEMP              0 ****  ****    0 ROOT
