@<TRIPOS>MOLECULE
IIG
   58    61     1     0     0
SMALL
bcc


@<TRIPOS>ATOM
      1 N1         -0.2960    0.0570   -0.0810 n4        1 IIG     -0.566200
      2 C4         -3.5790    0.2470    1.3120 ca        1 IIG     -0.085000
      3 C5         -2.2840    0.7710    1.4070 ca        1 IIG     -0.175600
      4 C6         -1.7900    1.2240    2.6360 ca        1 IIG     -0.085000
      5 C7         -2.5940    1.1500    3.7710 ca        1 IIG     -0.095000
      6 C8         -4.7490    0.5480    4.9210 c3        1 IIG      0.176100
      7 C10        -4.0930   -0.2840    6.0160 c3        1 IIG     -0.136100
      8 C13         0.5860   -0.0470    1.0890 cx        1 IIG      0.003500
      9 C15         1.6700    0.9850    1.3380 cx        1 IIG     -0.104900
     10 C17        -1.6450   -3.5750   -0.1910 c3        1 IIG     -0.083900
     11 C20        -2.8640   -4.7740   -2.0000 cx        1 IIG     -0.175700
     12 C21        -3.7830   -5.7780   -1.3530 cx        1 IIG     -0.119900
     13 C22        -4.1940   -5.1010   -2.6240 cx        1 IIG     -0.119900
     14 C1         -2.6070   -3.4210   -1.3780 c3        1 IIG      0.181800
     15 C18        -1.9740   -2.4880   -2.4210 c3        1 IIG     -0.083900
     16 C19        -1.6420   -1.1400   -1.8200 c3        1 IIG     -0.093400
     17 O3         -3.7950   -2.7640   -0.9390 oh        1 IIG     -0.610800
     18 C16        -1.3110   -2.2340    0.4290 c3        1 IIG     -0.093400
     19 C12        -0.6970   -1.3060   -0.6220 c3        1 IIG      0.145500
     20 C14         2.0510   -0.4040    0.9310 cx        1 IIG     -0.104900
     21 C11        -1.5000    0.9610    0.1760 c         1 IIG      0.589700
     22 O2         -1.6880    1.7870   -0.7050 o         1 IIG     -0.414100
     23 C3         -4.3760    0.1720    2.4540 ca        1 IIG     -0.095000
     24 C2         -3.8910    0.6250    3.6860 ca        1 IIG     -0.037300
     25 C9         -5.0340    2.0070    5.4990 c3        1 IIG      0.594900
     26 F2         -3.9520    2.5940    6.1000 f         1 IIG     -0.226300
     27 F3         -5.4680    2.9130    4.5720 f         1 IIG     -0.226300
     28 F1         -6.0120    1.9830    6.4600 f         1 IIG     -0.226300
     29 O1         -6.0020    0.0010    4.5490 oh        1 IIG     -0.577800
     30 H6         -0.7820    1.6630    2.7090 ha        1 IIG      0.157500
     31 H7         -2.2140    1.5320    4.7340 ha        1 IIG      0.179000
     32 H10        -3.9730   -1.3370    5.6650 hc        1 IIG      0.070700
     33 H10A       -3.0940    0.1370    6.2800 hc        1 IIG      0.070700
     34 H10B       -4.7370   -0.2790    6.9300 hc        1 IIG      0.070700
     35 H13         0.0260   -0.4570    1.9610 hx        1 IIG      0.144700
     36 H15         1.8260    1.3150    2.3830 hc        1 IIG      0.107700
     37 H15A        1.8240    1.8150    0.6230 hc        1 IIG      0.107700
     38 H17        -2.1240   -4.2230    0.5890 hc        1 IIG      0.071700
     39 H17A       -0.7140   -4.0890   -0.5410 hc        1 IIG      0.071700
     40 H20        -1.9500   -5.1640   -2.4930 hc        1 IIG      0.094700
     41 H21        -3.4970   -6.8450   -1.3780 hc        1 IIG      0.082200
     42 H21A       -4.2980   -5.5210   -0.4100 hc        1 IIG      0.082200
     43 H22        -4.2120   -5.6800   -3.5650 hc        1 IIG      0.082200
     44 H22A       -4.9970   -4.3410   -2.5950 hc        1 IIG      0.082200
     45 H18        -1.0510   -2.9750   -2.8290 hc        1 IIG      0.071700
     46 H18A       -2.6980   -2.3400   -3.2650 hc        1 IIG      0.071700
     47 H19        -1.1720   -0.4890   -2.6030 hc        1 IIG      0.069700
     48 H19A       -2.5990   -0.6520   -1.4860 hc        1 IIG      0.069700
     49 HO3        -4.3620   -3.4280   -0.5270 ho        1 IIG      0.418000
     50 H16        -2.2530   -1.7780    0.8380 hc        1 IIG      0.069700
     51 H16A       -0.5940   -2.3940    1.2760 hc        1 IIG      0.069700
     52 H12         0.2740   -1.7720   -0.9770 hx        1 IIG      0.093700
     53 H14         2.4900   -1.0960    1.6760 hc        1 IIG      0.107700
     54 H14A        2.4760   -0.5700   -0.0770 hc        1 IIG      0.107700
     55 H3         -5.4020   -0.2320    2.3800 ha        1 IIG      0.179000
     56 HO1        -6.5270   -0.1000    5.3580 ho        1 IIG      0.440000
     57 H11         0.2360    0.5080   -0.8460 hn        1 IIG      0.445800
     58 H4         -3.9750   -0.1040    0.3430 ha        1 IIG      0.157500
@<TRIPOS>BOND
     1    1    8 1   
     2    1   19 1   
     3    1   21 1   
     4    1   57 1   
     5    2    3 ar  
     6    2   23 ar  
     7    2   58 1   
     8    3    4 ar  
     9    3   21 1   
    10    4    5 ar  
    11    4   30 1   
    12    5   24 ar  
    13    5   31 1   
    14    6    7 1   
    15    6   24 1   
    16    6   25 1   
    17    6   29 1   
    18    7   32 1   
    19    7   33 1   
    20    7   34 1   
    21    8    9 1   
    22    8   20 1   
    23    8   35 1   
    24    9   20 1   
    25    9   36 1   
    26    9   37 1   
    27   10   14 1   
    28   10   18 1   
    29   10   38 1   
    30   10   39 1   
    31   11   12 1   
    32   11   13 1   
    33   11   14 1   
    34   11   40 1   
    35   12   13 1   
    36   12   41 1   
    37   12   42 1   
    38   13   43 1   
    39   13   44 1   
    40   14   15 1   
    41   14   17 1   
    42   15   16 1   
    43   15   45 1   
    44   15   46 1   
    45   16   19 1   
    46   16   47 1   
    47   16   48 1   
    48   17   49 1   
    49   18   19 1   
    50   18   50 1   
    51   18   51 1   
    52   19   52 1   
    53   20   53 1   
    54   20   54 1   
    55   21   22 2   
    56   23   24 ar  
    57   23   55 1   
    58   25   26 1   
    59   25   27 1   
    60   25   28 1   
    61   29   56 1   
@<TRIPOS>SUBSTRUCTURE
     1 IIG         1 TEMP              0 ****  ****    0 ROOT
