@<TRIPOS>MOLECULE
IIL
   21    20     1     0     0
SMALL
bcc


@<TRIPOS>ATOM
      1 N          -1.8610    0.4380   -0.2790 n3        1 IIL     -0.889800
      2 CA         -0.4100    0.5760   -0.3040 c3        1 IIL      0.022500
      3 C           0.2660    0.0420   -1.6110 c         1 IIL      0.886600
      4 O          -0.4150   -0.7050   -2.3720 o         1 IIL     -0.846300
      5 CB          0.2940   -0.0830    0.8950 c3        1 IIL     -0.049700
      6 CG2         0.0120   -1.5680    0.9600 c3        1 IIL     -0.088100
      7 CG1        -0.0750    0.6130    2.1960 c3        1 IIL     -0.073400
      8 CD1         0.8260    0.2140    3.3380 c3        1 IIL     -0.088100
      9 OXT         1.4550    0.3990   -1.8360 o         1 IIL     -0.846300
     10 H          -2.0830   -0.5390   -0.1900 hn        1 IIL      0.328800
     11 H2         -2.2010    0.7170   -1.1840 hn        1 IIL      0.328800
     12 HA         -0.1950    1.6840   -0.2590 h1        1 IIL      0.040700
     13 HB          1.3980    0.0610    0.7080 hc        1 IIL      0.067700
     14 HG21       -0.9990   -1.7710    1.3890 hc        1 IIL      0.027700
     15 HG22        0.0570   -2.0010   -0.0720 hc        1 IIL      0.027700
     16 HG23        0.7690   -2.0820    1.6000 hc        1 IIL      0.027700
     17 HG12       -1.1400    0.3780    2.4570 hc        1 IIL      0.034700
     18 HG13       -0.0090    1.7230    2.0460 hc        1 IIL      0.034700
     19 HD11        0.5500    0.7700    4.2670 hc        1 IIL      0.018033
     20 HD12        0.7400   -0.8800    3.5440 hc        1 IIL      0.018033
     21 HD13        1.8920    0.4400    3.0950 hc        1 IIL      0.018033
@<TRIPOS>BOND
     1    1    2 1   
     2    1   10 1   
     3    1   11 1   
     4    2    3 1   
     5    2    5 1   
     6    2   12 1   
     7    3    4 1   
     8    3    9 1   
     9    5    6 1   
    10    5    7 1   
    11    5   13 1   
    12    6   14 1   
    13    6   15 1   
    14    6   16 1   
    15    7    8 1   
    16    7   17 1   
    17    7   18 1   
    18    8   19 1   
    19    8   20 1   
    20    8   21 1   
@<TRIPOS>SUBSTRUCTURE
     1 IIL         1 TEMP              0 ****  ****    0 ROOT
