@<TRIPOS>MOLECULE
IIN
   32    34     1     0     0
SMALL
bcc


@<TRIPOS>ATOM
      1 C1          1.6060    0.2860    1.4900 c         1 IIN      0.713100
      2 O1          2.5790    0.8350    2.0260 o         1 IIN     -0.613500
      3 N2          1.6750   -0.5330    0.3500 n         1 IIN     -0.517800
      4 C3          0.3030   -0.9540   -0.1180 c3        1 IIN      0.438200
      5 C3A        -0.6070   -0.3930    0.9970 ca        1 IIN     -0.075300
      6 C4         -1.9710   -0.5230    1.1720 ca        1 IIN     -0.096000
      7 C5         -2.5540    0.0980    2.2890 ca        1 IIN     -0.111000
      8 C6         -1.7820    0.8180    3.1970 ca        1 IIN     -0.139000
      9 C7         -0.3950    0.9420    3.0250 ca        1 IIN     -0.062000
     10 C7A         0.1790    0.3310    1.9250 ca        1 IIN     -0.155600
     11 CM2         2.8050   -0.5910   -0.5130 c3        1 IIN      0.085300
     12 N3          0.1530   -2.4070   -0.2000 n3        1 IIN     -0.899800
     13 C1'        -0.0730   -0.2680   -1.4350 ca        1 IIN     -0.095300
     14 C2'         0.2010    1.0980   -1.5960 ca        1 IIN     -0.108500
     15 C3'        -0.1540    1.7570   -2.7700 ca        1 IIN     -0.136000
     16 C4'        -0.7930    1.0640   -3.7980 ca        1 IIN     -0.121000
     17 C5'        -1.0800   -0.2900   -3.6390 ca        1 IIN     -0.136000
     18 C6'        -0.7260   -0.9550   -2.4640 ca        1 IIN     -0.108500
     19 H4         -2.5850   -1.0950    0.4610 ha        1 IIN      0.152000
     20 H5         -3.6400    0.0110    2.4440 ha        1 IIN      0.137000
     21 H6         -2.2620    1.2970    4.0640 ha        1 IIN      0.138000
     22 H7          0.2200    1.5060    3.7420 ha        1 IIN      0.155000
     23 HM21        3.7060   -0.1940    0.0270 h1        1 IIN      0.044700
     24 HM22        2.9940   -1.6580   -0.8110 h1        1 IIN      0.044700
     25 HM23        2.6390    0.0150   -1.4470 h1        1 IIN      0.044700
     26 HN31        0.7900   -2.7940   -0.8690 hn        1 IIN      0.367300
     27 HN32        0.2970   -2.8330    0.6940 hn        1 IIN      0.367300
     28 H2'         0.6910    1.6660   -0.7900 ha        1 IIN      0.144000
     29 H3'         0.0700    2.8290   -2.8840 ha        1 IIN      0.134000
     30 H4'        -1.0710    1.5840   -4.7260 ha        1 IIN      0.133000
     31 H5'        -1.5910   -0.8420   -4.4410 ha        1 IIN      0.134000
     32 H6'        -0.9850   -2.0200   -2.3670 ha        1 IIN      0.144000
@<TRIPOS>BOND
     1    1    2 2   
     2    1    3 1   
     3    1   10 1   
     4    3    4 1   
     5    3   11 1   
     6    4    5 1   
     7    4   12 1   
     8    4   13 1   
     9    5    6 ar  
    10    5   10 ar  
    11    6    7 ar  
    12    6   19 1   
    13    7    8 ar  
    14    7   20 1   
    15    8    9 ar  
    16    8   21 1   
    17    9   10 ar  
    18    9   22 1   
    19   11   23 1   
    20   11   24 1   
    21   11   25 1   
    22   12   26 1   
    23   12   27 1   
    24   13   14 ar  
    25   13   18 ar  
    26   14   15 ar  
    27   14   28 1   
    28   15   16 ar  
    29   15   29 1   
    30   16   17 ar  
    31   16   30 1   
    32   17   18 ar  
    33   17   31 1   
    34   18   32 1   
@<TRIPOS>SUBSTRUCTURE
     1 IIN         1 TEMP              0 ****  ****    0 ROOT
