@<TRIPOS>MOLECULE
IIN
   33    35     1     0     0
SMALL
bcc


@<TRIPOS>ATOM
      1 C1         -0.1540    0.1080   -0.0370 c         1 IIN      0.724100
      2 O1         -0.8280    0.1830   -1.0610 o         1 IIN     -0.519500
      3 N2          1.2720    0.0120   -0.0440 n         1 IIN     -0.520800
      4 C3          1.8090   -0.0720    1.3070 c3        1 IIN      0.461200
      5 C3A         0.5690   -0.0150    2.2110 ca        1 IIN     -0.158300
      6 C4          0.4590   -0.0870    3.5840 ca        1 IIN     -0.091000
      7 C5         -0.8330   -0.0380    4.1430 ca        1 IIN     -0.095000
      8 C6         -1.9610    0.0730    3.3380 ca        1 IIN     -0.097000
      9 C7         -1.8490    0.1360    1.9360 ca        1 IIN     -0.037000
     10 C7A        -0.5830    0.0930    1.3890 ca        1 IIN     -0.140600
     11 CM2         2.0710   -0.0570   -1.2240 c3        1 IIN      0.071300
     12 N3          2.6470    1.2290    1.5960 n4        1 IIN     -0.882600
     13 C1'         2.6870   -1.2680    1.6230 ca        1 IIN     -0.159300
     14 C2'         2.5830   -2.4360    0.8590 ca        1 IIN     -0.111000
     15 C3'         3.3540   -3.5560    1.1770 ca        1 IIN     -0.111500
     16 C4'         4.2280   -3.5240    2.2620 ca        1 IIN     -0.083000
     17 C5'         4.3160   -2.3700    3.0430 ca        1 IIN     -0.111500
     18 C6'         3.5460   -1.2520    2.7340 ca        1 IIN     -0.111000
     19 H4          1.3390   -0.2030    4.2340 ha        1 IIN      0.148000
     20 H5         -0.9430   -0.0970    5.2390 ha        1 IIN      0.165000
     21 H6         -2.9630    0.1040    3.7970 ha        1 IIN      0.169000
     22 H7         -2.7450    0.2110    1.2970 ha        1 IIN      0.180000
     23 HM21        2.8660   -0.8450   -1.1270 h1        1 IIN      0.064700
     24 HM22        2.5630    0.9350   -1.4190 h1        1 IIN      0.064700
     25 HM23        1.4050   -0.3050   -2.0970 h1        1 IIN      0.064700
     26 HN31        2.2010    2.0450    1.1740 hn        1 IIN      0.452800
     27 HN32        3.5880    1.1150    1.2180 hn        1 IIN      0.452800
     28 H2'         1.8830   -2.5060    0.0100 ha        1 IIN      0.135500
     29 H3'         3.2620   -4.4690    0.5670 ha        1 IIN      0.161000
     30 H4'         4.8390   -4.4070    2.5100 ha        1 IIN      0.164000
     31 H5'         4.9920   -2.3460    3.9140 ha        1 IIN      0.161000
     32 H6'         3.6150   -0.3840    3.4060 ha        1 IIN      0.135500
     33 H33         2.6960    1.3580    2.6070 hn        1 IIN      0.452800
@<TRIPOS>BOND
     1    1    2 2   
     2    1    3 1   
     3    1   10 1   
     4    3    4 1   
     5    3   11 1   
     6    4    5 1   
     7    4   12 1   
     8    4   13 1   
     9    5    6 ar  
    10    5   10 ar  
    11    6    7 ar  
    12    6   19 1   
    13    7    8 ar  
    14    7   20 1   
    15    8    9 ar  
    16    8   21 1   
    17    9   10 ar  
    18    9   22 1   
    19   11   23 1   
    20   11   24 1   
    21   11   25 1   
    22   12   26 1   
    23   12   27 1   
    24   12   33 1   
    25   13   14 ar  
    26   13   18 ar  
    27   14   15 ar  
    28   14   28 1   
    29   15   16 ar  
    30   15   29 1   
    31   16   17 ar  
    32   16   30 1   
    33   17   18 ar  
    34   17   31 1   
    35   18   32 1   
@<TRIPOS>SUBSTRUCTURE
     1 IIN         1 TEMP              0 ****  ****    0 ROOT
