@<TRIPOS>MOLECULE
IIN
   33    35     1     0     0
SMALL
bcc


@<TRIPOS>ATOM
      1 C1         -0.1680    0.0850   -0.0350 c         1 IIN      0.724100
      2 O1         -0.8480    0.1470   -1.0550 o         1 IIN     -0.519500
      3 N2          1.2580   -0.0060   -0.0480 n         1 IIN     -0.520800
      4 C3          1.8030   -0.0750    1.3000 c3        1 IIN      0.461200
      5 C3A         0.5690   -0.0140    2.2110 ca        1 IIN     -0.158300
      6 C4          0.4660   -0.0730    3.5850 ca        1 IIN     -0.091000
      7 C5         -0.8220   -0.0230    4.1510 ca        1 IIN     -0.095000
      8 C6         -1.9550    0.0750    3.3510 ca        1 IIN     -0.097000
      9 C7         -1.8520    0.1250    1.9480 ca        1 IIN     -0.037000
     10 C7A        -0.5880    0.0810    1.3940 ca        1 IIN     -0.140600
     11 CM2         2.0510   -0.0820   -1.2320 c3        1 IIN      0.071300
     12 N3          2.6380    1.2320    1.5720 n4        1 IIN     -0.882600
     13 C1'         2.6880   -1.2640    1.6230 ca        1 IIN     -0.159300
     14 C2'         2.5870   -2.4390    0.8700 ca        1 IIN     -0.111000
     15 C3'         3.3640   -3.5520    1.1950 ca        1 IIN     -0.111500
     16 C4'         4.2420   -3.5070    2.2750 ca        1 IIN     -0.083000
     17 C5'         4.3290   -2.3460    3.0460 ca        1 IIN     -0.111500
     18 C6'         3.5510   -1.2350    2.7300 ca        1 IIN     -0.111000
     19 H4          1.3510   -0.1790    4.2310 ha        1 IIN      0.148000
     20 H5         -0.9260   -0.0720    5.2480 ha        1 IIN      0.165000
     21 H6         -2.9550    0.1070    3.8160 ha        1 IIN      0.169000
     22 H7         -2.7520    0.1910    1.3140 ha        1 IIN      0.180000
     23 HM21        1.3820   -0.3440   -2.0990 h1        1 IIN      0.064700
     24 HM22        2.8520   -0.8640   -1.1320 h1        1 IIN      0.064700
     25 HM23        2.5350    0.9110   -1.4410 h1        1 IIN      0.064700
     26 HN31        2.6920    1.3710    2.5820 hn        1 IIN      0.452800
     27 HN32        3.5770    1.1180    1.1890 hn        1 IIN      0.452800
     28 H2'         1.8840   -2.5200    0.0250 ha        1 IIN      0.135500
     29 H3'         3.2740   -4.4710    0.5920 ha        1 IIN      0.161000
     30 H4'         4.8580   -4.3860    2.5280 ha        1 IIN      0.164000
     31 H5'         5.0080   -2.3110    3.9130 ha        1 IIN      0.161000
     32 H6'         3.6190   -0.3600    3.3940 ha        1 IIN      0.135500
     33 H33         2.1870    2.0430    1.1450 hn        1 IIN      0.452800
@<TRIPOS>BOND
     1    1    2 2   
     2    1    3 1   
     3    1   10 1   
     4    3    4 1   
     5    3   11 1   
     6    4    5 1   
     7    4   12 1   
     8    4   13 1   
     9    5    6 ar  
    10    5   10 ar  
    11    6    7 ar  
    12    6   19 1   
    13    7    8 ar  
    14    7   20 1   
    15    8    9 ar  
    16    8   21 1   
    17    9   10 ar  
    18    9   22 1   
    19   11   23 1   
    20   11   24 1   
    21   11   25 1   
    22   12   26 1   
    23   12   27 1   
    24   12   33 1   
    25   13   14 ar  
    26   13   18 ar  
    27   14   15 ar  
    28   14   28 1   
    29   15   16 ar  
    30   15   29 1   
    31   16   17 ar  
    32   16   30 1   
    33   17   18 ar  
    34   17   31 1   
    35   18   32 1   
@<TRIPOS>SUBSTRUCTURE
     1 IIN         1 TEMP              0 ****  ****    0 ROOT
