@<TRIPOS>MOLECULE
IIN
   33    35     1     0     0
SMALL
bcc


@<TRIPOS>ATOM
      1 C1         -0.1670    0.0770   -0.0380 c         1 IIN      0.724100
      2 O1         -0.8480    0.1360   -1.0590 o         1 IIN     -0.519500
      3 N2          1.2590   -0.0110   -0.0510 n         1 IIN     -0.520800
      4 C3          1.8040   -0.0760    1.2980 c3        1 IIN      0.461200
      5 C3A         0.5680   -0.0130    2.2080 ca        1 IIN     -0.158300
      6 C4          0.4660   -0.0680    3.5820 ca        1 IIN     -0.091000
      7 C5         -0.8230   -0.0180    4.1480 ca        1 IIN     -0.095000
      8 C6         -1.9560    0.0760    3.3470 ca        1 IIN     -0.097000
      9 C7         -1.8520    0.1210    1.9430 ca        1 IIN     -0.037000
     10 C7A        -0.5880    0.0780    1.3900 ca        1 IIN     -0.140600
     11 CM2         2.0530   -0.0910   -1.2350 c3        1 IIN      0.071300
     12 N3          2.6360    1.2340    1.5660 nz        1 IIN     -0.882600
     13 C1'         2.6900   -1.2620    1.6250 ca        1 IIN     -0.159300
     14 C2'         2.5890   -2.4400    0.8750 ca        1 IIN     -0.111000
     15 C3'         3.3680   -3.5520    1.2040 ca        1 IIN     -0.111500
     16 C4'         4.2460   -3.5020    2.2840 ca        1 IIN     -0.083000
     17 C5'         4.3320   -2.3370    3.0510 ca        1 IIN     -0.111500
     18 C6'         3.5540   -1.2280    2.7320 ca        1 IIN     -0.111000
     19 H4          1.3500   -0.1710    4.2280 ha        1 IIN      0.148000
     20 H5         -0.9270   -0.0640    5.2450 ha        1 IIN      0.165000
     21 H6         -2.9560    0.1080    3.8110 ha        1 IIN      0.169000
     22 H7         -2.7520    0.1840    1.3090 ha        1 IIN      0.180000
     23 HM21        1.3840   -0.3550   -2.1010 h1        1 IIN      0.064700
     24 HM22        2.8530   -0.8720   -1.1320 h1        1 IIN      0.064700
     25 HM23        2.5370    0.9020   -1.4460 h1        1 IIN      0.064700
     26 HN31        2.1840    2.0420    1.1350 hn        1 IIN      0.452800
     27 HN32        3.5760    1.1190    1.1830 hn        1 IIN      0.452800
     28 H2'         1.8860   -2.5250    0.0310 ha        1 IIN      0.135500
     29 H3'         3.2790   -4.4730    0.6050 ha        1 IIN      0.161000
     30 H4'         4.8640   -4.3780    2.5400 ha        1 IIN      0.164000
     31 H5'         5.0110   -2.2980    3.9180 ha        1 IIN      0.161000
     32 H6'         3.6210   -0.3510    3.3920 ha        1 IIN      0.135500
     33 H33         2.6900    1.3760    2.5750 hn        1 IIN      0.452800
@<TRIPOS>BOND
     1    1    2 2   
     2    1    3 1   
     3    1   10 1   
     4    3    4 1   
     5    3   11 1   
     6    4    5 1   
     7    4   12 1   
     8    4   13 1   
     9    5    6 ar  
    10    5   10 ar  
    11    6    7 ar  
    12    6   19 1   
    13    7    8 ar  
    14    7   20 1   
    15    8    9 ar  
    16    8   21 1   
    17    9   10 ar  
    18    9   22 1   
    19   11   23 1   
    20   11   24 1   
    21   11   25 1   
    22   12   26 1   
    23   12   27 1   
    24   12   33 1   
    25   13   14 ar  
    26   13   18 ar  
    27   14   15 ar  
    28   14   28 1   
    29   15   16 ar  
    30   15   29 1   
    31   16   17 ar  
    32   16   30 1   
    33   17   18 ar  
    34   17   31 1   
    35   18   32 1   
@<TRIPOS>SUBSTRUCTURE
     1 IIN         1 TEMP              0 ****  ****    0 ROOT
