@<TRIPOS>MOLECULE
IIP
   90    93     1     0     0
SMALL
bcc


@<TRIPOS>ATOM
      1 C           0.4340    0.2230   -0.4580 cc        1 IIP      0.424200
      2 C1          0.5280   -0.3280    6.1400 cc        1 IIP     -0.127000
      3 C2          1.8610    0.3430   -0.4120 cd        1 IIP     -0.222600
      4 C3          3.5450    0.3320    1.4470 c3        1 IIP      0.018600
      5 C4          1.0320    0.0960    1.6600 cd        1 IIP      0.312000
      6 C5          1.0130   -0.0300    3.1400 c         1 IIP      0.628600
      7 C6         -0.4430   -0.3190    5.0890 cc        1 IIP      0.003600
      8 C8         -1.7220   -0.4800    5.7070 cd        1 IIP     -0.142300
      9 C10        -0.1760   -0.4910    7.3590 cd        1 IIP     -0.239900
     10 C11         0.3620   -0.5620    8.7110 c         1 IIP      0.742700
     11 C12         2.4450   -0.4920   10.0090 cc        1 IIP      0.052600
     12 C13         1.9400   -0.6540   11.3160 cc        1 IIP     -0.161000
     13 C14         3.8920   -0.3750   10.1360 cd        1 IIP     -0.052300
     14 C16         3.0630   -0.6370   12.2180 cd        1 IIP     -0.301900
     15 C18        -0.6730   -1.7350   20.0350 c3        1 IIP      0.104800
     16 C19        -1.9580   -1.9090   20.8460 c3        1 IIP     -0.130400
     17 C20        -1.5700   -2.0340   22.3230 c3        1 IIP      0.104800
     18 C21        -3.3520   -3.5000   23.2210 c3        1 IIP      0.078100
     19 C22        -2.3080   -1.8140   24.6520 c3        1 IIP      0.078100
     20 C23         3.0670   -0.7750   13.6180 c         1 IIP      0.600700
     21 C25        -0.8770    0.4040   -3.9740 cc        1 IIP      0.308000
     22 C26        -2.7440    0.3390   -5.1230 cd        1 IIP      0.293200
     23 C27        -1.6930    0.5080   -6.0600 cc        1 IIP     -0.224600
     24 C29         1.6220   -1.1030   15.6630 c3        1 IIP      0.103800
     25 C30         0.2290   -1.2760   16.2860 c3        1 IIP     -0.177400
     26 C31         0.3900   -1.4220   17.7760 c         1 IIP      0.549100
     27 O1          2.0640    0.0020    3.8130 o         1 IIP     -0.631100
     28 O2         -0.3290   -0.7160    9.7420 o         1 IIP     -0.654100
     29 O3          3.9460   -0.7910   14.4730 o         1 IIP     -0.492100
     30 O5          1.4180   -1.4180   18.4250 o         1 IIP     -0.353100
     31 N           2.2180    0.2610    0.9220 na        1 IIP     -0.132900
     32 N1         -0.2360   -0.1860    3.7260 n         1 IIP     -0.431100
     33 N2         -0.0640    0.0700    0.8440 nc        1 IIP     -0.671000
     34 N3         -1.5480   -0.5820    7.0710 na        1 IIP     -0.000100
     35 N4          1.7620   -0.4460    8.8180 n         1 IIP     -0.448100
     36 N5          4.2420   -0.4640   11.4470 na        1 IIP      0.046900
     37 N6         -0.9090   -1.6000   18.5640 n4        1 IIP     -0.682800
     38 N7         -2.7350   -2.1450   23.2580 n4        1 IIP     -0.678400
     39 N8         -0.3770    0.2480   -1.5920 n         1 IIP     -0.508400
     40 N9         -0.5160    0.5490   -5.3300 na        1 IIP     -0.137900
     41 N10        -2.2320    0.2770   -3.8450 nd        1 IIP     -0.643000
     42 N11         1.6140   -0.9500   14.1950 n4        1 IIP     -0.686800
     43 H1          1.6030   -0.2250    5.9920 ha        1 IIP      0.185000
     44 H2          2.5740    0.4730   -1.2300 h4        1 IIP      0.226000
     45 H31         3.6230    1.1950    2.1630 h1        1 IIP      0.068700
     46 H32         4.2750    0.4670    0.6060 h1        1 IIP      0.068700
     47 H33         3.7800   -0.6130    2.0090 h1        1 IIP      0.068700
     48 H8         -2.7100   -0.5230    5.2430 h4        1 IIP      0.193000
     49 H91        -3.5850   -0.7880    7.5070 h1        1 IIP      0.064367
     50 H92        -2.5800    0.1030    8.7600 h1        1 IIP      0.064367
     51 H93        -2.4310   -1.7060    8.6020 h1        1 IIP      0.064367
     52 H13         0.8870   -0.7710   11.5680 ha        1 IIP      0.183000
     53 H14         4.6310   -0.2380    9.3350 h4        1 IIP      0.221000
     54 H151        5.7400    0.6650   12.3910 h1        1 IIP      0.094367
     55 H152        5.7130   -1.1210   12.7960 h1        1 IIP      0.094367
     56 H153        6.3180   -0.5610   11.1550 h1        1 IIP      0.094367
     57 H181       -0.1190   -0.8090   20.3760 hx        1 IIP      0.132200
     58 H182        0.0090   -2.6240   20.1910 hx        1 IIP      0.132200
     59 H191       -2.6360   -1.0240   20.6970 hc        1 IIP      0.090200
     60 H192       -2.5100   -2.8290   20.5110 hc        1 IIP      0.090200
     61 H201       -0.9220   -2.9470   22.4750 hx        1 IIP      0.120700
     62 H202       -0.9740   -1.1230   22.6280 hx        1 IIP      0.120700
     63 H211       -4.2520   -3.5140   23.8990 hx        1 IIP      0.119700
     64 H212       -3.6740   -3.7400   22.1730 hx        1 IIP      0.119700
     65 H213       -2.6120   -4.2660   23.5810 hx        1 IIP      0.119700
     66 H221       -3.1930   -1.9240   25.3400 hx        1 IIP      0.119700
     67 H222       -1.4950   -2.5190   24.9760 hx        1 IIP      0.119700
     68 H223       -1.9350   -0.7550   24.6920 hx        1 IIP      0.119700
     69 H26        -3.8130    0.2640   -5.3220 h4        1 IIP      0.053100
     70 H27        -1.7160    0.5970   -7.1460 h4        1 IIP      0.191000
     71 H281        1.4340   -0.1810   -5.5550 h1        1 IIP      0.071033
     72 H282        1.2790    1.6260   -5.4040 h1        1 IIP      0.071033
     73 H283        0.7680    0.7960   -6.9630 h1        1 IIP      0.071033
     74 H291        2.2720   -1.9950   15.9170 hx        1 IIP      0.140700
     75 H292        2.1320   -0.1930   16.1050 hx        1 IIP      0.140700
     76 H301       -0.4180   -0.3810   16.0630 hc        1 IIP      0.121700
     77 H302       -0.2800   -2.1910   15.8710 hc        1 IIP      0.121700
     78 HN1        -1.0490   -0.2050    3.1470 hn        1 IIP      0.355500
     79 HN4         2.2970   -0.3230    7.9840 hn        1 IIP      0.353500
     80 HN6        -1.3920   -2.4380   18.2150 hn        1 IIP      0.469800
     81 HN7        -3.4500   -1.4580   22.9750 hn        1 IIP      0.456800
     82 HN8        -1.3610    0.1520   -1.4520 hn        1 IIP      0.360500
     83 H11         1.0730   -0.1260   13.9140 hn        1 IIP      0.458800
     84 C9         -2.5940   -0.7520    8.0310 c3        1 IIP      0.018600
     85 C24         0.1240    0.3990   -2.8750 c         1 IIP      0.621600
     86 C15         5.5740   -0.3660   11.9750 c3        1 IIP     -0.016400
     87 C28         0.8070    0.7060   -5.8460 c3        1 IIP      0.013600
     88 O4          1.3450    0.5230   -3.1080 o         1 IIP     -0.619100
     89 H62        -1.5140   -0.7870   18.3860 hn        1 IIP      0.469800
     90 H112        1.2020   -1.7720   13.7420 hn        1 IIP      0.458800
@<TRIPOS>BOND
     1    1    3 2   
     2    1   33 1   
     3    1   39 1   
     4    2    7 1   
     5    2    9 2   
     6    2   43 1   
     7    3   31 1   
     8    3   44 1   
     9    4   31 1   
    10    4   45 1   
    11    4   46 1   
    12    4   47 1   
    13    5    6 1   
    14    5   31 1   
    15    5   33 2   
    16    6   27 2   
    17    6   32 1   
    18    7    8 2   
    19    7   32 1   
    20    8   34 1   
    21    8   48 1   
    22    9   10 1   
    23    9   34 1   
    24   10   28 2   
    25   10   35 1   
    26   11   12 1   
    27   11   13 2   
    28   11   35 1   
    29   12   14 2   
    30   12   52 1   
    31   13   36 1   
    32   13   53 1   
    33   14   20 1   
    34   14   36 1   
    35   15   16 1   
    36   15   37 1   
    37   15   57 1   
    38   15   58 1   
    39   16   17 1   
    40   16   59 1   
    41   16   60 1   
    42   17   38 1   
    43   17   61 1   
    44   17   62 1   
    45   18   38 1   
    46   18   63 1   
    47   18   64 1   
    48   18   65 1   
    49   19   38 1   
    50   19   66 1   
    51   19   67 1   
    52   19   68 1   
    53   20   29 2   
    54   20   42 1   
    55   21   40 1   
    56   21   41 2   
    57   21   85 1   
    58   22   23 2   
    59   22   41 1   
    60   22   69 1   
    61   23   40 1   
    62   23   70 1   
    63   24   25 1   
    64   24   42 1   
    65   24   74 1   
    66   24   75 1   
    67   25   26 1   
    68   25   76 1   
    69   25   77 1   
    70   26   30 2   
    71   26   37 1   
    72   32   78 1   
    73   34   84 1   
    74   35   79 1   
    75   36   86 1   
    76   37   80 1   
    77   37   89 1   
    78   38   81 1   
    79   39   82 1   
    80   39   85 1   
    81   40   87 1   
    82   42   83 1   
    83   42   90 1   
    84   49   84 1   
    85   50   84 1   
    86   51   84 1   
    87   54   86 1   
    88   55   86 1   
    89   56   86 1   
    90   71   87 1   
    91   72   87 1   
    92   73   87 1   
    93   85   88 2   
@<TRIPOS>SUBSTRUCTURE
     1 IIP         1 TEMP              0 ****  ****    0 ROOT
