@<TRIPOS>MOLECULE
IIP
   88    91     1     0     0
SMALL
bcc


@<TRIPOS>ATOM
      1 C           6.4140   -0.0270    1.3730 cc        1 IIP      0.413200
      2 C1          0.0450    0.5500   -0.3950 cc        1 IIP     -0.143000
      3 C2          6.2760   -1.4370    1.1840 cd        1 IIP     -0.229600
      4 C3          4.3740   -2.9140    0.4750 c3        1 IIP      0.019600
      5 C4          4.3380   -0.3940    0.7300 cd        1 IIP      0.327000
      6 C5          2.9110   -0.2260    0.3340 c         1 IIP      0.620600
      7 C6          1.1380    1.4180   -0.0580 cc        1 IIP     -0.009400
      8 C8          0.6480    2.7510   -0.1420 cd        1 IIP     -0.171300
      9 C10        -1.0670    1.3750   -0.6670 cd        1 IIP     -0.209900
     10 C11        -2.4250    0.9290   -1.0250 c         1 IIP      0.731700
     11 C12        -3.6840   -0.8890   -2.0780 cc        1 IIP     -0.025400
     12 C13        -4.9450   -0.2600   -2.3540 cc        1 IIP     -0.171000
     13 C14        -3.8690   -2.2880   -2.2690 cd        1 IIP     -0.162300
     14 C16        -5.8530   -1.2880   -2.6840 cd        1 IIP     -0.203900
     15 C18        -9.4320   -0.2600    0.4630 c3        1 IIP      0.083000
     16 C19        -8.0280   -0.6770    0.9280 c3        1 IIP     -0.137400
     17 C20        -7.4180    0.3000    1.9230 c3        1 IIP      0.112800
     18 C21        -7.0370    2.6840    2.3630 c3        1 IIP      0.091600
     19 C22        -5.7230    1.5550    0.6470 c3        1 IIP      0.091600
     20 C23        -7.2940   -1.1270   -2.9550 c         1 IIP      0.704700
     21 C25         9.8810    0.9180    2.4760 cc        1 IIP      0.316000
     22 C26        11.1100    2.6510    3.0220 cd        1 IIP      0.292200
     23 C27        11.9450    1.5120    3.1250 cc        1 IIP     -0.231600
     24 C29        -9.0430    0.3590   -3.8620 c3        1 IIP      0.086000
     25 C30        -9.6400    1.4460   -2.9670 c3        1 IIP     -0.174400
     26 C31        -9.3870    1.2470   -1.4890 c         1 IIP      0.680100
     27 O1          2.2000   -1.2150    0.0590 o         1 IIP     -0.622100
     28 O2         -3.4560    1.5820   -0.7350 o         1 IIP     -0.683100
     29 O3         -8.1450   -1.9740   -2.5980 o         1 IIP     -0.643100
     30 O5         -9.0440    2.2190   -0.7660 o         1 IIP     -0.689100
     31 N           4.9680   -1.6510    0.7810 na        1 IIP     -0.138900
     32 N1          2.4360    1.0730    0.2940 n         1 IIP     -0.426100
     33 N2          5.1940    0.6070    1.0850 nc        1 IIP     -0.672000
     34 N3         -0.6920    2.7120   -0.4910 na        1 IIP     -0.010100
     35 N4         -2.4960   -0.2790   -1.6980 n         1 IIP     -0.434100
     36 N5         -5.1880   -2.5150   -2.6260 na        1 IIP      0.001900
     37 N6         -9.5690    0.0010   -0.9410 n         1 IIP     -0.558900
     38 N7         -7.0430    1.6230    1.3260 n4        1 IIP     -0.698400
     39 N8          7.5580    0.6630    1.7780 n         1 IIP     -0.503400
     40 N9         11.1650    0.4180    2.7790 na        1 IIP     -0.141900
     41 N10         9.8440    2.2760    2.6220 nd        1 IIP     -0.643000
     42 N11        -7.6720    0.0460   -3.5750 n         1 IIP     -0.570900
     43 H1          0.0840   -0.5390   -0.4090 ha        1 IIP      0.186000
     44 H2          7.0120   -2.2330    1.3130 h4        1 IIP      0.221000
     45 H31         3.5050   -3.1000    1.1650 h1        1 IIP      0.069033
     46 H32         3.9870   -2.9040   -0.5800 h1        1 IIP      0.069033
     47 H33         5.1370   -3.7270    0.5960 h1        1 IIP      0.069033
     48 H8          1.1690    3.6940    0.0300 h4        1 IIP      0.183000
     49 H91        -1.3570    4.1670   -1.8540 h1        1 IIP      0.065700
     50 H92        -2.5660    3.6450   -0.5820 h1        1 IIP      0.065700
     51 H93        -1.1490    4.7170   -0.1230 h1        1 IIP      0.065700
     52 H13        -5.1440    0.8080   -2.3050 ha        1 IIP      0.170000
     53 H14        -3.1490   -3.1030   -2.1840 h4        1 IIP      0.187000
     54 H151       -5.5520   -3.9990   -4.0680 h1        1 IIP      0.075367
     55 H152       -5.2200   -4.5910   -2.3690 h1        1 IIP      0.075367
     56 H153       -6.8320   -3.8110   -2.7700 h1        1 IIP      0.075367
     57 H181       -9.7680    0.6540    1.0330 h1        1 IIP      0.070700
     58 H182      -10.1450   -1.0990    0.7160 h1        1 IIP      0.070700
     59 H191       -8.1090   -1.6630    1.4640 hc        1 IIP      0.089700
     60 H192       -7.3400   -0.8440    0.0570 hc        1 IIP      0.089700
     61 H201       -8.1570    0.4920    2.7540 hx        1 IIP      0.094700
     62 H202       -6.4880   -0.1520    2.3730 hx        1 IIP      0.094700
     63 H211       -8.0710    2.8010    2.7850 hx        1 IIP      0.101367
     64 H212       -6.3210    2.4110    3.1810 hx        1 IIP      0.101367
     65 H213       -6.7180    3.6530    1.8920 hx        1 IIP      0.101367
     66 H221       -5.7160    0.7130   -0.0980 hx        1 IIP      0.101367
     67 H222       -5.5300    2.5190    0.1040 hx        1 IIP      0.101367
     68 H223       -4.9070    1.3880    1.3970 hx        1 IIP      0.101367
     69 H26        11.3690    3.6920    3.2150 h4        1 IIP      0.051100
     70 H27        12.9920    1.4190    3.4080 h4        1 IIP      0.187000
     71 H281       10.9470   -1.5560    3.4430 h1        1 IIP      0.069367
     72 H282       11.4270   -1.3570    1.7000 h1        1 IIP      0.069367
     73 H283       12.6580   -1.0260    3.0260 h1        1 IIP      0.069367
     74 H291       -9.1150    0.7230   -4.9290 h1        1 IIP      0.077700
     75 H292       -9.6610   -0.5820   -3.7800 h1        1 IIP      0.077700
     76 H301       -9.2250    2.4520   -3.2440 hc        1 IIP      0.094700
     77 H302      -10.7510    1.4760   -3.1360 hc        1 IIP      0.094700
     78 HN1         3.0500    1.8270    0.5150 hn        1 IIP      0.349500
     79 HN4        -1.6510   -0.7710   -1.8940 hn        1 IIP      0.341500
     80 HN6        -9.6760   -0.7890   -1.5430 hn        1 IIP      0.353500
     81 HN7        -7.7650    1.8680    0.6160 hn        1 IIP      0.490800
     82 HN8         7.4850    1.6560    1.8610 hn        1 IIP      0.360500
     83 H11        -6.9710    0.6650   -3.9100 hn        1 IIP      0.330500
     84 C9         -1.4820    3.8680   -0.7780 c3        1 IIP      0.008600
     85 C24         8.7580    0.0350    2.0580 c         1 IIP      0.618600
     86 C15        -5.7270   -3.7950   -2.9760 c3        1 IIP     -0.001400
     87 C28        11.5770   -0.9490    2.7370 c3        1 IIP      0.015600
     88 O4          8.9090   -1.2020    1.9710 o         1 IIP     -0.622100
@<TRIPOS>BOND
     1    1    3 2   
     2    1   33 1   
     3    1   39 1   
     4    2    7 1   
     5    2    9 2   
     6    2   43 1   
     7    3   31 1   
     8    3   44 1   
     9    4   31 1   
    10    4   45 1   
    11    4   46 1   
    12    4   47 1   
    13    5    6 1   
    14    5   31 1   
    15    5   33 2   
    16    6   27 2   
    17    6   32 1   
    18    7    8 2   
    19    7   32 1   
    20    8   34 1   
    21    8   48 1   
    22    9   10 1   
    23    9   34 1   
    24   10   28 2   
    25   10   35 1   
    26   11   12 1   
    27   11   13 2   
    28   11   35 1   
    29   12   14 2   
    30   12   52 1   
    31   13   36 1   
    32   13   53 1   
    33   14   20 1   
    34   14   36 1   
    35   15   16 1   
    36   15   37 1   
    37   15   57 1   
    38   15   58 1   
    39   16   17 1   
    40   16   59 1   
    41   16   60 1   
    42   17   38 1   
    43   17   61 1   
    44   17   62 1   
    45   18   38 1   
    46   18   63 1   
    47   18   64 1   
    48   18   65 1   
    49   19   38 1   
    50   19   66 1   
    51   19   67 1   
    52   19   68 1   
    53   20   29 2   
    54   20   42 1   
    55   21   40 1   
    56   21   41 2   
    57   21   85 1   
    58   22   23 2   
    59   22   41 1   
    60   22   69 1   
    61   23   40 1   
    62   23   70 1   
    63   24   25 1   
    64   24   42 1   
    65   24   74 1   
    66   24   75 1   
    67   25   26 1   
    68   25   76 1   
    69   25   77 1   
    70   26   30 2   
    71   26   37 1   
    72   32   78 1   
    73   34   84 1   
    74   35   79 1   
    75   36   86 1   
    76   37   80 1   
    77   38   81 1   
    78   39   82 1   
    79   39   85 1   
    80   40   87 1   
    81   42   83 1   
    82   49   84 1   
    83   50   84 1   
    84   51   84 1   
    85   54   86 1   
    86   55   86 1   
    87   56   86 1   
    88   71   87 1   
    89   72   87 1   
    90   73   87 1   
    91   85   88 2   
@<TRIPOS>SUBSTRUCTURE
     1 IIP         1 TEMP              0 ****  ****    0 ROOT
