@<TRIPOS>MOLECULE
IIP
   88    77     1     0     0
SMALL
bcc


@<TRIPOS>ATOM
      1 C           1.2010   -2.3770   -8.7770 cg        1 IIP     -0.035500
      2 C1         -2.0700    0.3020   -3.4850 cg        1 IIP     -0.086750
      3 C2          0.4010   -1.8040   -9.7330 c1        1 IIP     -0.198300
      4 C3         -1.3590   -0.3720   -9.9870 c3        1 IIP      0.018100
      5 C4         -0.4730   -1.3650   -7.7650 c1        1 IIP      0.107900
      6 C5         -1.4450   -0.8720   -6.6680 c1        1 IIP      0.848900
      7 C6         -2.1110   -0.8000   -4.3060 cg        1 IIP     -0.086750
      8 C8         -3.1750   -1.5960   -3.8990 c1        1 IIP     -0.085950
      9 C9         -5.1030   -1.5100   -2.5390 c3        1 IIP      0.196600
     10 C10        -3.1060    0.1900   -2.5700 c1        1 IIP     -0.085950
     11 C11        -3.3990    1.1580   -1.3990 c1        1 IIP      0.848900
     12 C12        -2.6660    2.9890    0.0830 cg        1 IIP     -0.086750
     13 C13        -2.5500    2.5570    1.3630 cg        1 IIP     -0.086750
     14 C14        -2.8910    4.3490    0.1120 c1        1 IIP     -0.085950
     15 C15        -3.5330    6.0150    1.6300 c3        1 IIP      0.196600
     16 C16        -2.7030    3.6490    2.1970 c1        1 IIP     -0.085950
     17 C18         0.2900    0.4180    9.1940 c3        1 IIP      0.109000
     18 C19         1.6320    0.3820   10.0080 c3        1 IIP     -0.106400
     19 C20         1.6470    1.5480   11.0420 c3        1 IIP      0.108800
     20 C21         3.7360    2.1780   11.8860 c3        1 IIP      0.086100
     21 C22         2.0890    1.4530   13.3280 c3        1 IIP      0.086100
     22 C23        -2.1880    3.5120    3.6920 c1        1 IIP      0.618500
     23 C24         2.8960   -3.8800   -9.7210 c1        1 IIP      0.848900
     24 C25         3.9510   -5.0120   -9.5390 c1        1 IIP      0.107900
     25 C26         4.9550   -6.8170   -8.7550 cg        1 IIP     -0.035500
     26 C27         5.5820   -6.4380   -9.9440 c1        1 IIP     -0.198300
     27 C28         5.2990   -4.5860  -11.6330 c3        1 IIP      0.018100
     28 C29        -1.0740    2.1750    5.4460 c3        1 IIP      0.046300
     29 C30        -0.5320    0.7080    5.6780 c3        1 IIP     -0.188400
     30 C31         0.5830    0.7390    6.7320 c         1 IIP      0.688100
     31 O1         -2.5140   -0.3600   -6.9850 o         1 IIP     -0.618500
     32 O2         -4.3570    0.9450   -0.6560 o         1 IIP     -0.618500
     33 O3         -2.3030    4.4640    4.4730 o         1 IIP     -0.627500
     34 O4          2.6450   -3.4730  -10.7980 o         1 IIP     -0.618500
     35 O5          1.5510    1.4070    6.5530 o         1 IIP     -0.688100
     36 N          -0.6260   -1.1830   -9.1010 n3        1 IIP     -0.023400
     37 N1         -1.1620   -1.1320   -5.2950 n2        1 IIP     -0.742800
     38 N2          0.6630   -2.1060   -7.5660 ne        1 IIP     -0.405900
     39 N3         -3.7810   -0.9830   -2.8340 n3        1 IIP     -0.343800
     40 N4         -2.4750    2.1990   -1.0870 n2        1 IIP     -0.742800
     41 N5         -2.9120    4.7470    1.4190 n3        1 IIP     -0.343800
     42 N6          0.5150   -0.1330    7.8690 n         1 IIP     -0.574900
     43 N7          2.6510    1.2820   12.0510 n4        1 IIP     -0.672400
     44 N8          2.2120   -3.3850   -8.6110 n2        1 IIP     -0.742800
     45 N9          4.9530   -5.3280  -10.4120 n3        1 IIP     -0.023400
     46 N10         3.9640   -5.9470   -8.5140 ne        1 IIP     -0.405900
     47 N11        -1.6910    2.2610    4.1610 n3        1 IIP     -0.408400
     48 H1         -1.4050    1.0560   -3.5390 DU        1 IIP      0.187000
     49 H2          0.5480   -1.8400  -10.7230 DU        1 IIP      0.187000
     50 H31        -2.0510   -0.9070  -10.4200 h1        1 IIP      0.069367
     51 H32        -1.7670    0.3470   -9.5000 h1        1 IIP      0.069367
     52 H33        -0.7600   -0.0080  -10.6630 h1        1 IIP      0.069367
     53 H8         -3.4570   -2.4830   -4.3220 DU        1 IIP      0.187000
     54 H91        -5.5210   -0.9710   -1.8230 h1        1 IIP      0.065700
     55 H92        -5.0250   -2.4310   -2.2460 h1        1 IIP      0.065700
     56 H93        -5.6650   -1.4690   -3.3540 h1        1 IIP      0.065700
     57 H13        -2.3830    1.6070    1.6550 DU        1 IIP      0.187000
     58 H14        -3.0150    4.9350   -0.6790 DU        1 IIP      0.187000
     59 H151       -2.8300    6.7300    1.6670 h1        1 IIP      0.065700
     60 H152       -4.0320    6.0000    2.4820 h1        1 IIP      0.065700
     61 H153       -4.1520    6.2020    0.8910 h1        1 IIP      0.065700
     62 H181       -0.4090   -0.1300    9.6720 h1        1 IIP      0.058700
     63 H182       -0.0120    1.3180    9.1160 h1        1 IIP      0.058700
     64 H191        1.7020   -0.4540   10.4710 hc        1 IIP      0.075200
     65 H192        2.3720    0.4770    9.4090 hc        1 IIP      0.075200
     66 H201        1.8580    2.3940   10.5840 hx        1 IIP      0.112200
     67 H202        0.7960    1.6150   11.4510 hx        1 IIP      0.112200
     68 H211        4.3090    1.8560   11.2030 hx        1 IIP      0.106700
     69 H212        3.3860    3.0880   11.6300 hx        1 IIP      0.106700
     70 H213        4.2450    2.2470   12.7440 hx        1 IIP      0.106700
     71 H221        2.8040    1.4380   14.0060 hx        1 IIP      0.106700
     72 H222        1.4530    0.7250   13.5070 hx        1 IIP      0.106700
     73 H223        1.6170    2.3190   13.3660 hx        1 IIP      0.106700
     74 H26         5.1990   -7.5970   -8.1860 DU        1 IIP      0.187000
     75 H27         6.3350   -6.8900  -10.3610 DU        1 IIP      0.187000
     76 H281        6.0330   -5.0600  -12.1160 h1        1 IIP      0.069367
     77 H282        4.5150   -4.5260  -12.2120 h1        1 IIP      0.069367
     78 H283        5.5960   -3.6820  -11.3930 h1        1 IIP      0.069367
     79 H291       -0.3130    2.8200    5.4910 h1        1 IIP      0.062700
     80 H292       -1.7450    2.4010    6.1550 h1        1 IIP      0.062700
     81 H301       -0.1650    0.3410    4.8100 hc        1 IIP      0.090200
     82 H302       -1.2700    0.1300    5.9940 hc        1 IIP      0.090200
     83 HN1        -0.3590   -1.4460   -5.0560 hn        1 IIP      0.502067
     84 HN4        -1.8370    2.4270   -1.6840 hn        1 IIP      0.502067
     85 HN6         0.5790   -1.0260    7.7570 hn        1 IIP      0.331500
     86 HN7         2.9480    0.4300   11.9630 hn        1 IIP      0.439800
     87 HN8         2.4370   -3.6860   -7.7490 hn        1 IIP      0.502067
     88 H11        -1.7770    1.5410    3.6640 hn        1 IIP      0.288700
@<TRIPOS>BOND
     1    1    3 3   
     2    1   38 1   
     3    2    7 1   
     4    2   10 3   
     5    3   36 1   
     6    4   36 1   
     7    4   50 1   
     8    4   51 1   
     9    4   52 1   
    10    5   36 2   
    11    5   38 2   
    12    6   31 2   
    13    6   37 2   
    14    7    8 3   
    15    8   39 1   
    16    9   39 1   
    17    9   54 1   
    18    9   55 1   
    19    9   56 1   
    20   10   39 1   
    21   11   32 2   
    22   11   40 2   
    23   12   13 1   
    24   12   14 3   
    25   13   16 3   
    26   14   41 1   
    27   15   41 1   
    28   15   59 1   
    29   15   60 1   
    30   15   61 1   
    31   16   41 1   
    32   17   18 1   
    33   17   42 1   
    34   17   62 1   
    35   17   63 1   
    36   18   19 1   
    37   18   64 1   
    38   18   65 1   
    39   19   43 1   
    40   19   66 1   
    41   19   67 1   
    42   20   43 1   
    43   20   68 1   
    44   20   69 1   
    45   20   70 1   
    46   21   43 1   
    47   21   71 1   
    48   21   72 1   
    49   21   73 1   
    50   22   33 2   
    51   22   47 2   
    52   23   34 2   
    53   23   44 2   
    54   24   45 2   
    55   24   46 2   
    56   25   26 3   
    57   25   46 1   
    58   26   45 1   
    59   27   45 1   
    60   27   76 1   
    61   27   77 1   
    62   27   78 1   
    63   28   29 1   
    64   28   47 1   
    65   28   79 1   
    66   28   80 1   
    67   29   30 1   
    68   29   81 1   
    69   29   82 1   
    70   30   35 2   
    71   30   42 1   
    72   37   83 1   
    73   40   84 1   
    74   42   85 1   
    75   43   86 1   
    76   44   87 1   
    77   47   88 1   
@<TRIPOS>SUBSTRUCTURE
     1 IIP         1 TEMP              0 ****  ****    0 ROOT
