@<TRIPOS>MOLECULE
IJ1
   30    30     1     0     0
SMALL
bcc


@<TRIPOS>ATOM
      1 CAA         0.0200   -0.0610    0.0510 c3        1 IJ1     -0.063800
      2 CAM         1.5000   -0.0130    0.0080 ca        1 IJ1     -0.063300
      3 CAH         2.2500   -0.0820    1.1860 ca        1 IJ1     -0.114000
      4 CAF         2.1640    0.0980   -1.2220 ca        1 IJ1     -0.101000
      5 CAE         3.5560    0.1390   -1.2710 ca        1 IJ1     -0.119000
      6 CAG         4.3030    0.0670   -0.0950 ca        1 IJ1     -0.107000
      7 CAN         3.6480   -0.0430    1.1340 ca        1 IJ1     -0.163300
      8 CAK         4.4360   -0.0930    2.4010 c3        1 IJ1      0.159100
      9 NAL         4.5840   -1.4870    2.9050 ny        1 IJ1     -0.769000
     10 CAI         5.3320   -1.5490    4.2130 c3        1 IJ1      0.161800
     11 CAJ         5.4810   -2.9380    4.7080 c3        1 IJ1     -0.305600
     12 SAO         6.4150   -2.8360    6.3440 s6        1 IJ1      1.444800
     13 OAD         6.5010   -4.1690    6.7260 o         1 IJ1     -0.723533
     14 OAC         7.5940   -2.2120    5.9210 o         1 IJ1     -0.723533
     15 OAB         5.5480   -2.0140    7.0750 o         1 IJ1     -0.723533
     16 H1         -0.3630    0.1060    1.0880 hc        1 IJ1      0.055367
     17 H2         -0.4170    0.7230   -0.6170 hc        1 IJ1      0.055367
     18 H3         -0.3400   -1.0600   -0.3020 hc        1 IJ1      0.055367
     19 H4          1.7360   -0.1520    2.1570 ha        1 IJ1      0.138000
     20 H5          1.5780    0.1560   -2.1520 ha        1 IJ1      0.148000
     21 H6          4.0690    0.2310   -2.2410 ha        1 IJ1      0.149000
     22 H7          5.4020    0.1100   -0.1390 ha        1 IJ1      0.141000
     23 H8          3.9250    0.5110    3.2080 hx        1 IJ1      0.104700
     24 H9          5.4710    0.3300    2.2490 hx        1 IJ1      0.104700
     25 H10         3.6580   -1.9060    3.0340 hn        1 IJ1      0.436300
     26 H12         4.7580   -0.9250    4.9620 hx        1 IJ1      0.111700
     27 H13         6.3480   -1.0810    4.0450 hx        1 IJ1      0.111700
     28 H14         6.0900   -3.5850    4.0430 h1        1 IJ1      0.082700
     29 H15         4.5160   -3.4370    4.9340 h1        1 IJ1      0.082700
     30 HAL2        5.0820   -2.0540    2.2130 hn        1 IJ1      0.436300
@<TRIPOS>BOND
     1    1    2 1   
     2    1   16 1   
     3    1   17 1   
     4    1   18 1   
     5    2    3 ar  
     6    2    4 ar  
     7    3    7 ar  
     8    3   19 1   
     9    4    5 ar  
    10    4   20 1   
    11    5    6 ar  
    12    5   21 1   
    13    6    7 ar  
    14    6   22 1   
    15    7    8 1   
    16    8    9 1   
    17    8   23 1   
    18    8   24 1   
    19    9   10 1   
    20    9   25 1   
    21    9   30 1   
    22   10   11 1   
    23   10   26 1   
    24   10   27 1   
    25   11   12 1   
    26   11   28 1   
    27   11   29 1   
    28   12   13 1   
    29   12   14 1   
    30   12   15 1   
@<TRIPOS>SUBSTRUCTURE
     1 IJ1         1 TEMP              0 ****  ****    0 ROOT
