@<TRIPOS>MOLECULE
IJ1
   29    29     1     0     0
SMALL
bcc


@<TRIPOS>ATOM
      1 CAA        -5.2480    2.1380    0.3200 c3        1 IJ1     -0.047800
      2 CAM        -4.4870    0.8760    0.1740 ca        1 IJ1     -0.089300
      3 CAH        -3.1270    0.9150   -0.1560 ca        1 IJ1     -0.129000
      4 CAF        -5.1140   -0.3600    0.3560 ca        1 IJ1     -0.142000
      5 CAE        -4.3880   -1.5410    0.2060 ca        1 IJ1     -0.139000
      6 CAG        -3.0350   -1.4990   -0.1270 ca        1 IJ1     -0.115000
      7 CAN        -2.3970   -0.2670   -0.3110 ca        1 IJ1     -0.069300
      8 CAK        -0.9500   -0.2020   -0.7080 c3        1 IJ1      0.195100
      9 NAL        -0.0910   -1.0770    0.0700 n3        1 IJ1     -0.817200
     10 CAI         1.3220   -0.9110   -0.2260 c3        1 IJ1      0.185800
     11 CAJ         1.9950    0.3450    0.2820 c3        1 IJ1     -0.325600
     12 SAO         3.7220    0.4090   -0.1670 s6        1 IJ1      1.430800
     13 OAD         3.7320    0.3440   -1.5800 o         1 IJ1     -0.751200
     14 OAC         4.1560    1.6510    0.3530 o         1 IJ1     -0.751200
     15 OAB         4.3060   -0.7140    0.4640 o         1 IJ1     -0.751200
     16 H1         -5.5060    2.5490   -0.6890 hc        1 IJ1      0.037367
     17 H2         -6.1990    1.9740    0.8840 hc        1 IJ1      0.037367
     18 H3         -4.6430    2.9050    0.8640 hc        1 IJ1      0.037367
     19 H4         -2.6300    1.8880   -0.2920 ha        1 IJ1      0.133000
     20 H5         -6.1800   -0.4000    0.6190 ha        1 IJ1      0.118000
     21 H6         -4.8850   -2.5100    0.3530 ha        1 IJ1      0.121000
     22 H7         -2.4620   -2.4310   -0.2440 ha        1 IJ1      0.150000
     23 H8         -0.8700   -0.5300   -1.7860 h1        1 IJ1      0.041200
     24 H9         -0.6100    0.8770   -0.6690 h1        1 IJ1      0.041200
     25 H10        -0.2510   -0.9170    1.0490 hn        1 IJ1      0.345800
     26 H12         1.8430   -1.8030    0.2300 h1        1 IJ1      0.063200
     27 H13         1.4610   -0.9650   -1.3440 h1        1 IJ1      0.063200
     28 H14         1.4970    1.2530   -0.1300 h1        1 IJ1      0.063200
     29 H15         1.9190    0.4030    1.3940 h1        1 IJ1      0.063200
@<TRIPOS>BOND
     1    1    2 1   
     2    1   16 1   
     3    1   17 1   
     4    1   18 1   
     5    2    3 ar  
     6    2    4 ar  
     7    3    7 ar  
     8    3   19 1   
     9    4    5 ar  
    10    4   20 1   
    11    5    6 ar  
    12    5   21 1   
    13    6    7 ar  
    14    6   22 1   
    15    7    8 1   
    16    8    9 1   
    17    8   23 1   
    18    8   24 1   
    19    9   10 1   
    20    9   25 1   
    21   10   11 1   
    22   10   26 1   
    23   10   27 1   
    24   11   12 1   
    25   11   28 1   
    26   11   29 1   
    27   12   13 1   
    28   12   14 1   
    29   12   15 1   
@<TRIPOS>SUBSTRUCTURE
     1 IJ1         1 TEMP              0 ****  ****    0 ROOT
