@<TRIPOS>MOLECULE
IJ1
   30    30     1     0     0
SMALL
bcc


@<TRIPOS>ATOM
      1 CAA         0.0130   -0.0380    0.0610 c3        1 IJ1     -0.063800
      2 CAM         1.4930   -0.0250    0.0080 ca        1 IJ1     -0.063300
      3 CAH         2.2470   -0.0860    1.1840 ca        1 IJ1     -0.114000
      4 CAF         2.1550    0.0660   -1.2250 ca        1 IJ1     -0.100000
      5 CAE         3.5460    0.0990   -1.2790 ca        1 IJ1     -0.119000
      6 CAG         4.2960    0.0370   -0.1040 ca        1 IJ1     -0.107000
      7 CAN         3.6440   -0.0560    1.1280 ca        1 IJ1     -0.163300
      8 CAK         4.4350   -0.0980    2.3940 c3        1 IJ1      0.159100
      9 NAL         4.5850   -1.4890    2.9050 n4        1 IJ1     -0.769000
     10 CAI         5.3380   -1.5420    4.2110 c3        1 IJ1      0.161800
     11 CAJ         5.4890   -2.9290    4.7140 c3        1 IJ1     -0.305600
     12 SAO         6.4280   -2.8160    6.3460 s6        1 IJ1      1.444800
     13 OAD         6.5150   -4.1470    6.7370 o         1 IJ1     -0.723533
     14 OAC         7.6060   -2.1950    5.9150 o         1 IJ1     -0.723533
     15 OAB         5.5640   -1.9890    7.0740 o         1 IJ1     -0.723533
     16 H1         -0.3540   -0.4870    1.0160 hc        1 IJ1      0.055700
     17 H2         -0.3790    1.0080   -0.0080 hc        1 IJ1      0.055700
     18 H3         -0.4090   -0.6260   -0.7920 hc        1 IJ1      0.055700
     19 H4          1.7340   -0.1440    2.1570 ha        1 IJ1      0.138000
     20 H5          1.5670    0.1140   -2.1550 ha        1 IJ1      0.148000
     21 H6          4.0580    0.1760   -2.2510 ha        1 IJ1      0.149000
     22 H7          5.3950    0.0710   -0.1520 ha        1 IJ1      0.141000
     23 H8          3.9270    0.5100    3.1980 hx        1 IJ1      0.104700
     24 H9          5.4700    0.3240    2.2350 hx        1 IJ1      0.104700
     25 H10         3.6590   -1.9070    3.0410 hn        1 IJ1      0.436300
     26 H12         4.7670   -0.9140    4.9580 hx        1 IJ1      0.111700
     27 H13         6.3530   -1.0760    4.0360 hx        1 IJ1      0.111700
     28 H14         6.0950   -3.5800    4.0510 h1        1 IJ1      0.082700
     29 H15         4.5240   -3.4260    4.9470 h1        1 IJ1      0.082700
     30 HAL2        5.0810   -2.0610    2.2150 hn        1 IJ1      0.436300
@<TRIPOS>BOND
     1    1    2 1   
     2    1   16 1   
     3    1   17 1   
     4    1   18 1   
     5    2    3 ar  
     6    2    4 ar  
     7    3    7 ar  
     8    3   19 1   
     9    4    5 ar  
    10    4   20 1   
    11    5    6 ar  
    12    5   21 1   
    13    6    7 ar  
    14    6   22 1   
    15    7    8 1   
    16    8    9 1   
    17    8   23 1   
    18    8   24 1   
    19    9   10 1   
    20    9   25 1   
    21    9   30 1   
    22   10   11 1   
    23   10   26 1   
    24   10   27 1   
    25   11   12 1   
    26   11   28 1   
    27   11   29 1   
    28   12   13 1   
    29   12   14 1   
    30   12   15 1   
@<TRIPOS>SUBSTRUCTURE
     1 IJ1         1 TEMP              0 ****  ****    0 ROOT
