@<TRIPOS>MOLECULE
IJ1
   30    30     1     0     0
SMALL
bcc


@<TRIPOS>ATOM
      1 CAA         0.0170   -0.0400    0.0590 c3        1 IJ1     -0.063800
      2 CAM         1.4970   -0.0030    0.0120 ca        1 IJ1     -0.063300
      3 CAH         2.2490   -0.0720    1.1880 ca        1 IJ1     -0.114000
      4 CAF         2.1590    0.0980   -1.2190 ca        1 IJ1     -0.100000
      5 CAE         3.5510    0.1280   -1.2720 ca        1 IJ1     -0.119000
      6 CAG         4.3000    0.0560   -0.0970 ca        1 IJ1     -0.107000
      7 CAN         3.6460   -0.0440    1.1340 ca        1 IJ1     -0.163300
      8 CAK         4.4360   -0.0940    2.4000 c3        1 IJ1      0.159100
      9 NAL         4.5830   -1.4880    2.9050 n4        1 IJ1     -0.769000
     10 CAI         5.3350   -1.5500    4.2100 c3        1 IJ1      0.161800
     11 CAJ         5.4830   -2.9400    4.7050 c3        1 IJ1     -0.305600
     12 SAO         6.4230   -2.8380    6.3380 s6        1 IJ1      1.444800
     13 OAD         6.5120   -4.1720    6.7190 o         1 IJ1     -0.723533
     14 OAC         7.6010   -2.2130    5.9110 o         1 IJ1     -0.723533
     15 OAB         5.5580   -2.0180    7.0730 o         1 IJ1     -0.723533
     16 H1         -0.3490   -1.0550   -0.2410 hc        1 IJ1      0.055700
     17 H2         -0.4180    0.7100   -0.6470 hc        1 IJ1      0.055700
     18 H3         -0.3630    0.1800    1.0870 hc        1 IJ1      0.055700
     19 H4          1.7360   -0.1350    2.1610 ha        1 IJ1      0.138000
     20 H5          1.5720    0.1570   -2.1490 ha        1 IJ1      0.148000
     21 H6          4.0640    0.2120   -2.2420 ha        1 IJ1      0.149000
     22 H7          5.3990    0.0900   -0.1430 ha        1 IJ1      0.141000
     23 H8          5.4720    0.3260    2.2450 hx        1 IJ1      0.104700
     24 H9          3.9290    0.5110    3.2070 hx        1 IJ1      0.104700
     25 H10         5.0780   -2.0570    2.2120 hn        1 IJ1      0.436300
     26 H12         6.3500   -1.0840    4.0390 hx        1 IJ1      0.111700
     27 H13         4.7640   -0.9260    4.9600 hx        1 IJ1      0.111700
     28 H14         4.5180   -3.4370    4.9350 h1        1 IJ1      0.082700
     29 H15         6.0890   -3.5880    4.0380 h1        1 IJ1      0.082700
     30 HAL2        3.6560   -1.9050    3.0370 hn        1 IJ1      0.436300
@<TRIPOS>BOND
     1    1    2 1   
     2    1   16 1   
     3    1   17 1   
     4    1   18 1   
     5    2    3 ar  
     6    2    4 ar  
     7    3    7 ar  
     8    3   19 1   
     9    4    5 ar  
    10    4   20 1   
    11    5    6 ar  
    12    5   21 1   
    13    6    7 ar  
    14    6   22 1   
    15    7    8 1   
    16    8    9 1   
    17    8   23 1   
    18    8   24 1   
    19    9   10 1   
    20    9   25 1   
    21    9   30 1   
    22   10   11 1   
    23   10   26 1   
    24   10   27 1   
    25   11   12 1   
    26   11   28 1   
    27   11   29 1   
    28   12   13 1   
    29   12   14 1   
    30   12   15 1   
@<TRIPOS>SUBSTRUCTURE
     1 IJ1         1 TEMP              0 ****  ****    0 ROOT
