@<TRIPOS>MOLECULE
IJ2
   23    18     1     0     0
SMALL
bcc


@<TRIPOS>ATOM
      1 CAF         3.1040   -1.4110    0.3530 cg        1 IJ2     -0.209500
      2 CAD         4.1470   -0.8100    0.9960 cg        1 IJ2     -0.209500
      3 CAE         3.6830    0.3590    1.5630 c1        1 IJ2     -0.032900
      4 OAK         2.3490    0.4750    1.2640 os        1 IJ2     -0.158200
      5 CAL         1.9860   -0.6150    0.5180 c1        1 IJ2     -0.032900
      6 CAI         0.5640   -0.9630    0.0710 c2        1 IJ2      0.292100
      7 NAJ        -0.1500    0.2540   -0.2620 nh        1 IJ2     -0.375100
      8 CAG        -1.5330   -0.0490   -0.4890 c3        1 IJ2      0.008300
      9 CAH        -2.3770    1.1790   -0.1810 c3        1 IJ2     -0.361100
     10 SAM        -3.9510    1.0390   -1.0050 s4        1 IJ2      1.651500
     11 OAC        -3.8240    1.3370   -2.4830 o         1 IJ2     -0.682400
     12 OAB        -4.9010    2.1310   -0.5650 o         1 IJ2     -0.682400
     13 OAA        -4.5430   -0.3280   -0.7720 os        1 IJ2     -1.073000
     14 H1          3.1410   -2.2540   -0.1380 DU        1 IJ2      0.161000
     15 H2          5.0640   -1.1500    1.0470 DU        1 IJ2      0.161000
     16 H3          4.2250    1.0190    2.0520 DU        1 IJ2      0.161000
     17 H4          0.6030   -1.5420   -0.7140 h4        1 IJ2     -0.036700
     18 H5          0.0980   -1.4290    0.7990 h4        1 IJ2     -0.036700
     19 H6          0.2090    0.6210   -1.0170 hn        1 IJ2      0.197700
     20 H7         -1.8060   -0.7910    0.0960 h1        1 IJ2      0.064200
     21 H8         -1.9090    1.9900   -0.4990 h1        1 IJ2      0.063700
     22 H9         -1.6600   -0.3050   -1.4190 h1        1 IJ2      0.064200
     23 H10        -2.5200    1.2430    0.7860 h1        1 IJ2      0.063700
@<TRIPOS>BOND
     1    1    2 1   
     2    1    5 3   
     3    2    3 3   
     4    3    4 1   
     5    4    5 1   
     6    6    7 2   
     7    6   17 1   
     8    6   18 1   
     9    7    8 1   
    10    7   19 1   
    11    8    9 1   
    12    8   20 1   
    13    8   22 1   
    14    9   10 1   
    15    9   21 1   
    16    9   23 1   
    17   10   11 1   
    18   10   12 1   
@<TRIPOS>SUBSTRUCTURE
     1 IJ2         1 TEMP              0 ****  ****    0 ROOT
