@<TRIPOS>MOLECULE
IJ2
   24    24     1     0     0
SMALL
bcc


@<TRIPOS>ATOM
      1 CAF         0.0830    0.4710   -0.0990 cc        1 IJ2     -0.174300
      2 CAD         1.5130    0.3080    0.0390 cc        1 IJ2     -0.267300
      3 CAE         1.7290   -0.2830    1.2690 cd        1 IJ2      0.287600
      4 OAK         0.5190   -0.4990    1.9220 os        1 IJ2     -0.374800
      5 CAL        -0.4840   -0.0260    1.0580 cd        1 IJ2      0.136000
      6 CAI        -1.8630   -0.1000    1.5710 c3        1 IJ2      0.093500
      7 NAJ        -2.2640   -1.4930    1.9120 n4        1 IJ2     -0.771000
      8 CAG        -3.6850   -1.5670    2.4180 c3        1 IJ2      0.164800
      9 CAH        -4.0980   -2.9570    2.7220 c3        1 IJ2     -0.304600
     10 SAM        -5.9070   -2.8770    3.2670 s6        1 IJ2      1.444800
     11 OAC        -6.2130   -4.2130    3.4920 o         1 IJ2     -0.722867
     12 OAB        -5.7950   -2.0440    4.3860 o         1 IJ2     -0.722867
     13 OAA        -6.4740   -2.2690    2.1400 o         1 IJ2     -0.722867
     14 H1         -0.4270    0.9070   -0.9560 ha        1 IJ2      0.177000
     15 H2          2.2570    0.6030   -0.6970 ha        1 IJ2      0.180000
     16 H3          2.6040   -0.6100    1.8270 h4        1 IJ2      0.070100
     17 H4         -1.9640    0.5240    2.5090 hx        1 IJ2      0.116200
     18 H5         -2.5780    0.2990    0.7930 hx        1 IJ2      0.116200
     19 H6         -1.6330   -1.8640    2.6300 hn        1 IJ2      0.441800
     20 H7         -3.7480   -0.9250    3.3460 hx        1 IJ2      0.111700
     21 H8         -4.0750   -3.6340    1.8430 h1        1 IJ2      0.083700
     22 H9         -4.3510   -1.1270    1.6160 hx        1 IJ2      0.111700
     23 H10        -3.5380   -3.4150    3.5640 h1        1 IJ2      0.083700
     24 HAJ2       -2.1780   -2.0940    1.0870 hn        1 IJ2      0.441800
@<TRIPOS>BOND
     1    1    2 1   
     2    1    5 2   
     3    1   14 1   
     4    2    3 2   
     5    2   15 1   
     6    3    4 1   
     7    3   16 1   
     8    4    5 1   
     9    5    6 1   
    10    6    7 1   
    11    6   17 1   
    12    6   18 1   
    13    7    8 1   
    14    7   19 1   
    15    7   24 1   
    16    8    9 1   
    17    8   20 1   
    18    8   22 1   
    19    9   10 1   
    20    9   21 1   
    21    9   23 1   
    22   10   11 1   
    23   10   12 1   
    24   10   13 1   
@<TRIPOS>SUBSTRUCTURE
     1 IJ2         1 TEMP              0 ****  ****    0 ROOT
