@<TRIPOS>MOLECULE
IJ2
   24    24     1     0     0
SMALL
bcc


@<TRIPOS>ATOM
      1 CAF         0.0630    0.4450   -0.1440 cc        1 IJ2     -0.174300
      2 CAD         1.4940    0.2990   -0.0060 cc        1 IJ2     -0.267300
      3 CAE         1.7190   -0.2600    1.2380 cd        1 IJ2      0.287600
      4 OAK         0.5120   -0.4710    1.8990 os        1 IJ2     -0.374800
      5 CAL        -0.4970   -0.0290    1.0260 cd        1 IJ2      0.136000
      6 CAI        -1.8740   -0.1030    1.5430 c3        1 IJ2      0.093500
      7 NAJ        -2.2610   -1.4910    1.9190 ny        1 IJ2     -0.771000
      8 CAG        -3.6800   -1.5660    2.4300 c3        1 IJ2      0.164800
      9 CAH        -4.0800   -2.9520    2.7680 c3        1 IJ2     -0.304600
     10 SAM        -5.8880   -2.8760    3.3160 s6        1 IJ2      1.444800
     11 OAC        -6.1810   -4.2090    3.5720 o         1 IJ2     -0.722867
     12 OAB        -5.7820   -2.0160    4.4150 o         1 IJ2     -0.722867
     13 OAA        -6.4630   -2.3000    2.1760 o         1 IJ2     -0.722867
     14 H1         -0.4530    0.8550   -1.0110 ha        1 IJ2      0.177000
     15 H2          2.2350    0.5820   -0.7500 ha        1 IJ2      0.180000
     16 H3          2.5990   -0.5650    1.8020 h4        1 IJ2      0.070100
     17 H4         -1.9790    0.5420    2.4660 hx        1 IJ2      0.116200
     18 H5         -2.5940    0.2700    0.7580 hx        1 IJ2      0.116200
     19 H6         -1.6250   -1.8390    2.6440 hn        1 IJ2      0.441800
     20 H7         -3.7470   -0.9030    3.3430 hx        1 IJ2      0.111700
     21 H8         -4.0520   -3.6500    1.9050 h1        1 IJ2      0.083700
     22 H9         -4.3520   -1.1520    1.6200 hx        1 IJ2      0.111700
     23 H10        -3.5140   -3.3850    3.6190 h1        1 IJ2      0.083700
     24 HAJ2       -2.1710   -2.1110    1.1080 hn        1 IJ2      0.441800
@<TRIPOS>BOND
     1    1    2 1   
     2    1    5 2   
     3    1   14 1   
     4    2    3 2   
     5    2   15 1   
     6    3    4 1   
     7    3   16 1   
     8    4    5 1   
     9    5    6 1   
    10    6    7 1   
    11    6   17 1   
    12    6   18 1   
    13    7    8 1   
    14    7   19 1   
    15    7   24 1   
    16    8    9 1   
    17    8   20 1   
    18    8   22 1   
    19    9   10 1   
    20    9   21 1   
    21    9   23 1   
    22   10   11 1   
    23   10   12 1   
    24   10   13 1   
@<TRIPOS>SUBSTRUCTURE
     1 IJ2         1 TEMP              0 ****  ****    0 ROOT
