@<TRIPOS>MOLECULE
IJ2
   23    23     1     0     0
SMALL
bcc


@<TRIPOS>ATOM
      1 CAF        -3.7770   -0.3140    0.9580 cc        1 IJ2     -0.266300
      2 CAD        -5.1170    0.1760    0.7240 cc        1 IJ2     -0.266300
      3 CAE        -5.0910    0.8380   -0.4850 cd        1 IJ2      0.213600
      4 OAK        -3.8080    0.7970   -1.0310 os        1 IJ2     -0.369800
      5 CAL        -3.0140    0.0800   -0.1250 cd        1 IJ2      0.269000
      6 CAI        -1.5950   -0.0970   -0.5240 c3        1 IJ2      0.119500
      7 NAJ        -0.7450   -0.4670    0.5930 n3        1 IJ2     -0.814200
      8 CAG         0.6560   -0.6000    0.2300 c3        1 IJ2      0.186800
      9 CAH         1.4150    0.6700   -0.0800 c3        1 IJ2     -0.326600
     10 SAM         3.1280    0.3440   -0.4700 s6        1 IJ2      1.431800
     11 OAC         3.6560   -0.2650    0.6920 o         1 IJ2     -0.750533
     12 OAB         3.0850   -0.5090   -1.5970 o         1 IJ2     -0.750533
     13 OAA         3.6600    1.6270   -0.7390 o         1 IJ2     -0.750533
     14 H1         -3.4420   -0.8860    1.8180 ha        1 IJ2      0.167000
     15 H2         -5.9660    0.0380    1.3870 ha        1 IJ2      0.148000
     16 H3         -5.8170    1.3670   -1.0930 h4        1 IJ2      0.041100
     17 H4         -1.5440   -0.9300   -1.2860 h1        1 IJ2      0.056200
     18 H5         -1.2550    0.8490   -1.0470 h1        1 IJ2      0.056200
     19 H6         -0.8420    0.2140    1.3260 hn        1 IJ2      0.347800
     20 H7          1.1570   -1.1100    1.1050 h1        1 IJ2      0.065700
     21 H8          0.9570    1.2010   -0.9470 h1        1 IJ2      0.063700
     22 H9          0.7300   -1.2900   -0.6590 h1        1 IJ2      0.065700
     23 H10         1.3820    1.3670    0.7900 h1        1 IJ2      0.063700
@<TRIPOS>BOND
     1    1    2 1   
     2    1    5 2   
     3    1   14 1   
     4    2    3 2   
     5    2   15 1   
     6    3    4 1   
     7    3   16 1   
     8    4    5 1   
     9    5    6 1   
    10    6    7 1   
    11    6   17 1   
    12    6   18 1   
    13    7    8 1   
    14    7   19 1   
    15    8    9 1   
    16    8   20 1   
    17    8   22 1   
    18    9   10 1   
    19    9   21 1   
    20    9   23 1   
    21   10   11 1   
    22   10   12 1   
    23   10   13 1   
@<TRIPOS>SUBSTRUCTURE
     1 IJ2         1 TEMP              0 ****  ****    0 ROOT
