@<TRIPOS>MOLECULE
IJ4
   29    24     1     0     0
SMALL
bcc


@<TRIPOS>ATOM
      1 OAD         0.3060   -5.6720    0.6210 o         1 IJ4     -1.073333
      2 SAP        -0.9570   -5.0230    0.1030 s4        1 IJ4      2.861000
      3 OAB        -1.7250   -5.9620   -0.8090 o         1 IJ4     -1.073333
      4 OAC        -1.9580   -4.8090    1.2120 o         1 IJ4     -1.073333
      5 CAJ        -0.5670   -3.4780   -0.7290 c2        1 IJ4     -0.865000
      6 CAI         0.1560   -2.5450    0.2410 c3        1 IJ4     -0.051000
      7 NAL        -0.0230   -1.1710   -0.1850 n3        1 IJ4     -0.296000
      8 CAK         0.9460   -0.3290    0.4830 c3        1 IJ4     -0.048000
      9 CAO         0.4320    1.1320    0.5090 c1        1 IJ4     -0.072000
     10 CAH         0.6550    1.9650   -0.5800 c1        1 IJ4     -0.110000
     11 CAM         0.2720    3.3030   -0.5230 c1        1 IJ4     -0.109000
     12 CAA         0.4520    4.1950   -1.7380 c2        1 IJ4     -0.173000
     13 CAN        -0.3330    3.8030    0.6190 c1        1 IJ4      0.068000
     14 FAE        -0.7170    5.0850    0.6670 f         1 IJ4     -0.121000
     15 CAF        -0.5560    2.9680    1.7100 c2        1 IJ4     -0.171000
     16 CAG        -0.1730    1.6330    1.6530 c1        1 IJ4     -0.093000
     17 H1         -1.3900   -3.0550   -1.0330 ha        1 IJ4      0.102000
     18 H2         -0.2140   -2.6590    1.1400 h1        1 IJ4      0.103500
     19 H3          0.0950   -1.1140   -1.0860 hn        1 IJ4      0.141000
     20 H4          1.0760   -0.6460    1.4010 h1        1 IJ4      0.082000
     21 H5          1.7990   -0.3660    0.0000 h1        1 IJ4      0.082000
     22 H6          1.1240    1.6280   -1.3600 ha        1 IJ4      0.139000
     23 H7          0.8960    3.6910   -2.4500 ha        1 IJ4      0.083000
     24 H8         -0.4270    4.5020   -2.0520 ha        1 IJ4      0.083000
     25 H9          1.0010    4.9700   -1.4950 ha        1 IJ4      0.083000
     26 H10        -1.0250    3.3070    2.4930 ha        1 IJ4      0.138000
     27 H11        -0.2710    1.0670    2.4370 ha        1 IJ4      0.157000
     28 H13         0.0110   -3.6590   -1.5010 ha        1 IJ4      0.102000
     29 H14         1.1150   -2.7630    0.2520 h1        1 IJ4      0.103500
@<TRIPOS>BOND
     1    1    2 1   
     2    2    3 1   
     3    2    4 1   
     4    5    6 1   
     5    5   17 1   
     6    5   28 1   
     7    6    7 1   
     8    6   18 1   
     9    6   29 1   
    10    7    8 1   
    11    7   19 1   
    12    8    9 1   
    13    8   20 1   
    14    8   21 1   
    15    9   10 1   
    16   10   22 1   
    17   11   13 1   
    18   12   23 1   
    19   12   24 1   
    20   12   25 1   
    21   13   15 1   
    22   15   16 1   
    23   15   26 1   
    24   16   27 1   
@<TRIPOS>SUBSTRUCTURE
     1 IJ4         1 TEMP              0 ****  ****    0 ROOT
