@<TRIPOS>MOLECULE
IJ4
   30    30     1     0     0
SMALL
bcc


@<TRIPOS>ATOM
      1 OAD         0.1650    0.2160   -0.0180 o         1 IJ4     -0.722867
      2 SAP         1.5520    0.1410    0.0020 s6        1 IJ4      1.444800
      3 OAB         2.1680   -0.0470    1.2440 o         1 IJ4     -0.722867
      4 OAC         2.2530    0.9740   -0.8790 o         1 IJ4     -0.722867
      5 CAJ         1.8820   -1.5400   -0.7950 c3        1 IJ4     -0.305600
      6 CAI         3.3540   -1.7130   -0.8240 c3        1 IJ4      0.162800
      7 NAL         3.7600   -3.0230   -1.4540 n4        1 IJ4     -0.770000
      8 CAK         5.2390   -3.2010   -1.4840 c3        1 IJ4      0.161100
      9 CAO         5.6310   -4.4820   -2.1420 ca        1 IJ4     -0.181300
     10 CAH         5.7620   -4.5370   -3.5330 ca        1 IJ4     -0.088000
     11 CAM         6.1520   -5.7150   -4.1710 ca        1 IJ4     -0.099300
     12 CAA         6.2870   -5.7800   -5.6430 c3        1 IJ4     -0.061800
     13 CAN         6.4160   -6.8580   -3.3780 ca        1 IJ4      0.157900
     14 FAE         6.7980   -8.0140   -3.9630 f         1 IJ4     -0.120900
     15 CAF         6.2880   -6.8020   -1.9770 ca        1 IJ4     -0.159000
     16 CAG         5.8960   -5.6160   -1.3670 ca        1 IJ4     -0.083000
     17 H1          1.4160   -1.5010   -1.8010 h1        1 IJ4      0.082700
     18 H2          3.8340   -0.8850   -1.4260 hx        1 IJ4      0.111700
     19 H3          3.3290   -3.7890   -0.9290 hn        1 IJ4      0.435800
     20 H4          5.6790   -2.3210   -2.0370 hx        1 IJ4      0.105200
     21 H5          5.6110   -3.1680   -0.4190 hx        1 IJ4      0.105200
     22 H6          5.5690   -3.6380   -4.1400 ha        1 IJ4      0.145000
     23 H7          7.2510   -6.2760   -5.9210 hc        1 IJ4      0.060700
     24 H8          6.2640   -4.7610   -6.1000 hc        1 IJ4      0.060700
     25 H9          5.4510   -6.3850   -6.0770 hc        1 IJ4      0.060700
     26 H10         6.5030   -7.6990   -1.3760 ha        1 IJ4      0.165000
     27 H11         5.8070   -5.5730   -0.2700 ha        1 IJ4      0.147000
     28 H13         1.3560   -2.2890   -0.1670 h1        1 IJ4      0.082700
     29 H14         3.7720   -1.6980    0.2260 hx        1 IJ4      0.111700
     30 HAL2        3.3880   -3.0590   -2.4080 hn        1 IJ4      0.435800
@<TRIPOS>BOND
     1    1    2 1   
     2    2    3 1   
     3    2    4 1   
     4    2    5 1   
     5    5    6 1   
     6    5   17 1   
     7    5   28 1   
     8    6    7 1   
     9    6   18 1   
    10    6   29 1   
    11    7    8 1   
    12    7   19 1   
    13    7   30 1   
    14    8    9 1   
    15    8   20 1   
    16    8   21 1   
    17    9   10 ar  
    18    9   16 ar  
    19   10   11 ar  
    20   10   22 1   
    21   11   12 1   
    22   11   13 ar  
    23   12   23 1   
    24   12   24 1   
    25   12   25 1   
    26   13   14 1   
    27   13   15 ar  
    28   15   16 ar  
    29   15   26 1   
    30   16   27 1   
@<TRIPOS>SUBSTRUCTURE
     1 IJ4         1 TEMP              0 ****  ****    0 ROOT
