@<TRIPOS>MOLECULE
IJ4
   29    29     1     0     0
SMALL
bcc


@<TRIPOS>ATOM
      1 OAD        -4.6530    1.5790   -0.5040 o         1 IJ4     -0.750533
      2 SAP        -4.2060    0.3800    0.1000 s6        1 IJ4      1.431800
      3 OAB        -4.2390    0.4020    1.5140 o         1 IJ4     -0.750533
      4 OAC        -4.7550   -0.7910   -0.4700 o         1 IJ4     -0.750533
      5 CAJ        -2.4690    0.3240   -0.3140 c3        1 IJ4     -0.325600
      6 CAI        -1.7820   -0.8820    0.2870 c3        1 IJ4      0.185800
      7 NAL        -0.3580   -1.0300    0.0390 n3        1 IJ4     -0.817200
      8 CAK         0.4570   -0.0810    0.7760 c3        1 IJ4      0.196100
      9 CAO         1.9210   -0.1690    0.4550 ca        1 IJ4     -0.079300
     10 CAH         2.6550    1.0000    0.2370 ca        1 IJ4     -0.110000
     11 CAM         4.0280    0.9570   -0.0230 ca        1 IJ4     -0.116300
     12 CAA         4.7940    2.2050   -0.2380 c3        1 IJ4     -0.047800
     13 CAN         4.6680   -0.3000   -0.0680 ca        1 IJ4      0.102900
     14 FAE         5.9990   -0.3810   -0.3210 f         1 IJ4     -0.155900
     15 CAF         3.9340   -1.4810    0.1450 ca        1 IJ4     -0.171000
     16 CAG         2.5700   -1.4090    0.4060 ca        1 IJ4     -0.093000
     17 H1         -2.3730    0.3130   -1.4250 h1        1 IJ4      0.062700
     18 H2         -1.9510   -0.8720    1.4030 h1        1 IJ4      0.064200
     19 H3         -0.1760   -0.9320   -0.9440 hn        1 IJ4      0.345800
     20 H4          0.1150    0.9870    0.6250 h1        1 IJ4      0.042700
     21 H5          0.3280   -0.3120    1.8750 h1        1 IJ4      0.042700
     22 H6          2.1460    1.9760    0.2670 ha        1 IJ4      0.139000
     23 H7          5.2850    2.5210    0.7170 hc        1 IJ4      0.043700
     24 H8          5.5940    2.0480   -1.0040 hc        1 IJ4      0.043700
     25 H9          4.1260    3.0320   -0.5820 hc        1 IJ4      0.043700
     26 H10         4.4470   -2.4510    0.1020 ha        1 IJ4      0.138000
     27 H11         1.9930   -2.3320    0.5730 ha        1 IJ4      0.157000
     28 H13        -1.9980    1.2680    0.0490 h1        1 IJ4      0.062700
     29 H14        -2.2700   -1.8120   -0.1270 h1        1 IJ4      0.064200
@<TRIPOS>BOND
     1    1    2 1   
     2    2    3 1   
     3    2    4 1   
     4    2    5 1   
     5    5    6 1   
     6    5   17 1   
     7    5   28 1   
     8    6    7 1   
     9    6   18 1   
    10    6   29 1   
    11    7    8 1   
    12    7   19 1   
    13    8    9 1   
    14    8   20 1   
    15    8   21 1   
    16    9   10 ar  
    17    9   16 ar  
    18   10   11 ar  
    19   10   22 1   
    20   11   12 1   
    21   11   13 ar  
    22   12   23 1   
    23   12   24 1   
    24   12   25 1   
    25   13   14 1   
    26   13   15 ar  
    27   15   16 ar  
    28   15   26 1   
    29   16   27 1   
@<TRIPOS>SUBSTRUCTURE
     1 IJ4         1 TEMP              0 ****  ****    0 ROOT
