@<TRIPOS>MOLECULE
IJ4
   30    30     1     0     0
SMALL
bcc


@<TRIPOS>ATOM
      1 OAD         0.1650    0.2240   -0.0370 o         1 IJ4     -0.722867
      2 SAP         1.5510    0.1430   -0.0040 s6        1 IJ4      1.444800
      3 OAB         2.1550   -0.0530    1.2430 o         1 IJ4     -0.722867
      4 OAC         2.2640    0.9750   -0.8750 o         1 IJ4     -0.722867
      5 CAJ         1.8810   -1.5370   -0.8040 c3        1 IJ4     -0.305600
      6 CAI         3.3520   -1.7160   -0.8220 c3        1 IJ4      0.162800
      7 NAL         3.7590   -3.0250   -1.4550 ny        1 IJ4     -0.770000
      8 CAK         5.2370   -3.2080   -1.4740 c3        1 IJ4      0.161100
      9 CAO         5.6300   -4.4870   -2.1360 ca        1 IJ4     -0.181300
     10 CAH         5.7650   -4.5350   -3.5270 ca        1 IJ4     -0.088000
     11 CAM         6.1550   -5.7110   -4.1700 ca        1 IJ4     -0.099300
     12 CAA         6.2950   -5.7690   -5.6410 c3        1 IJ4     -0.061800
     13 CAN         6.4150   -6.8580   -3.3810 ca        1 IJ4      0.157900
     14 FAE         6.7980   -8.0120   -3.9700 f         1 IJ4     -0.120900
     15 CAF         6.2840   -6.8080   -1.9800 ca        1 IJ4     -0.159000
     16 CAG         5.8910   -5.6240   -1.3660 ca        1 IJ4     -0.083000
     17 H1          1.4240   -1.4920   -1.8140 h1        1 IJ4      0.082700
     18 H2          3.8410   -0.8870   -1.4160 hx        1 IJ4      0.111700
     19 H3          3.3200   -3.7910   -0.9360 hn        1 IJ4      0.435800
     20 H4          5.6850   -2.3260   -2.0180 hx        1 IJ4      0.105200
     21 H5          5.6000   -3.1820   -0.4060 hx        1 IJ4      0.105200
     22 H6          5.5740   -3.6330   -4.1310 ha        1 IJ4      0.144000
     23 H7          7.2600   -6.2630   -5.9190 hc        1 IJ4      0.060700
     24 H8          6.2700   -4.7480   -6.0940 hc        1 IJ4      0.060700
     25 H9          5.4610   -6.3750   -6.0800 hc        1 IJ4      0.060700
     26 H10         6.4960   -7.7080   -1.3830 ha        1 IJ4      0.165000
     27 H11         5.7990   -5.5860   -0.2690 ha        1 IJ4      0.147000
     28 H13         1.3480   -2.2860   -0.1830 h1        1 IJ4      0.082700
     29 H14         3.7620   -1.7070    0.2310 hx        1 IJ4      0.111700
     30 HAL2        3.3950   -3.0550   -2.4120 hn        1 IJ4      0.435800
@<TRIPOS>BOND
     1    1    2 1   
     2    2    3 1   
     3    2    4 1   
     4    2    5 1   
     5    5    6 1   
     6    5   17 1   
     7    5   28 1   
     8    6    7 1   
     9    6   18 1   
    10    6   29 1   
    11    7    8 1   
    12    7   19 1   
    13    7   30 1   
    14    8    9 1   
    15    8   20 1   
    16    8   21 1   
    17    9   10 ar  
    18    9   16 ar  
    19   10   11 ar  
    20   10   22 1   
    21   11   12 1   
    22   11   13 ar  
    23   12   23 1   
    24   12   24 1   
    25   12   25 1   
    26   13   14 1   
    27   13   15 ar  
    28   15   16 ar  
    29   15   26 1   
    30   16   27 1   
@<TRIPOS>SUBSTRUCTURE
     1 IJ4         1 TEMP              0 ****  ****    0 ROOT
