@<TRIPOS>MOLECULE
IJ4
   30    30     1     0     0
SMALL
bcc


@<TRIPOS>ATOM
      1 OAD         0.1640    0.2130   -0.0070 o         1 IJ4     -0.722867
      2 SAP         1.5510    0.1410    0.0050 s6        1 IJ4      1.444800
      3 OAB         2.1750   -0.0430    1.2450 o         1 IJ4     -0.722867
      4 OAC         2.2450    0.9730   -0.8810 o         1 IJ4     -0.722867
      5 CAJ         1.8810   -1.5420   -0.7890 c3        1 IJ4     -0.305600
      6 CAI         3.3530   -1.7120   -0.8260 c3        1 IJ4      0.162800
      7 NAL         3.7590   -3.0220   -1.4550 n4        1 IJ4     -0.770000
      8 CAK         5.2370   -3.1980   -1.4920 c3        1 IJ4      0.161100
      9 CAO         5.6290   -4.4800   -2.1470 ca        1 IJ4     -0.181300
     10 CAH         5.7670   -4.5370   -3.5370 ca        1 IJ4     -0.088000
     11 CAM         6.1560   -5.7170   -4.1710 ca        1 IJ4     -0.099300
     12 CAA         6.2980   -5.7840   -5.6430 c3        1 IJ4     -0.061800
     13 CAN         6.4130   -6.8600   -3.3760 ca        1 IJ4      0.157900
     14 FAE         6.7940   -8.0180   -3.9580 f         1 IJ4     -0.120900
     15 CAF         6.2780   -6.8020   -1.9750 ca        1 IJ4     -0.159000
     16 CAG         5.8870   -5.6140   -1.3690 ca        1 IJ4     -0.083000
     17 H1          1.4090   -1.5060   -1.7930 h1        1 IJ4      0.082700
     18 H2          3.8280   -0.8840   -1.4320 hx        1 IJ4      0.111700
     19 H3          3.3310   -3.7880   -0.9260 hn        1 IJ4      0.435800
     20 H4          5.6140   -3.1590   -0.4280 hx        1 IJ4      0.105200
     21 H5          5.6730   -2.3180   -2.0500 hx        1 IJ4      0.105200
     22 H6          5.5790   -3.6380   -4.1460 ha        1 IJ4      0.145000
     23 H7          7.2600   -6.2870   -5.9160 hc        1 IJ4      0.060700
     24 H8          5.4590   -6.3820   -6.0810 hc        1 IJ4      0.060700
     25 H9          6.2850   -4.7640   -6.1000 hc        1 IJ4      0.060700
     26 H10         6.4880   -7.6990   -1.3730 ha        1 IJ4      0.165000
     27 H11         5.7930   -5.5700   -0.2730 ha        1 IJ4      0.147000
     28 H13         1.3600   -2.2900   -0.1560 h1        1 IJ4      0.082700
     29 H14         3.7770   -1.6930    0.2220 hx        1 IJ4      0.111700
     30 HAL2        3.3820   -3.0610   -2.4070 hn        1 IJ4      0.435800
@<TRIPOS>BOND
     1    1    2 1   
     2    2    3 1   
     3    2    4 1   
     4    2    5 1   
     5    5    6 1   
     6    5   17 1   
     7    5   28 1   
     8    6    7 1   
     9    6   18 1   
    10    6   29 1   
    11    7    8 1   
    12    7   19 1   
    13    7   30 1   
    14    8    9 1   
    15    8   20 1   
    16    8   21 1   
    17    9   10 ar  
    18    9   16 ar  
    19   10   11 ar  
    20   10   22 1   
    21   11   12 1   
    22   11   13 ar  
    23   12   23 1   
    24   12   24 1   
    25   12   25 1   
    26   13   14 1   
    27   13   15 ar  
    28   15   16 ar  
    29   15   26 1   
    30   16   27 1   
@<TRIPOS>SUBSTRUCTURE
     1 IJ4         1 TEMP              0 ****  ****    0 ROOT
