@<TRIPOS>MOLECULE
IJ6
   33    33     1     0     0
SMALL
bcc


@<TRIPOS>ATOM
      1 CAH         0.1330   -0.0140   -0.0370 c3        1 IJ6     -0.077900
      2 CAE         1.6410   -0.0400    0.1170 c3        1 IJ6     -0.077400
      3 CAD         2.0510    0.0350    1.5720 c3        1 IJ6     -0.081400
      4 CAF         1.4510    1.2510    2.2470 c3        1 IJ6     -0.077400
      5 CAI        -0.0570    1.2750    2.1020 c3        1 IJ6     -0.077900
      6 CAM        -0.4630    1.2150    0.6330 c3        1 IJ6     -0.089700
      7 CAK        -1.9920    1.2060    0.5640 c3        1 IJ6      0.096800
      8 NAL        -2.5250    1.3550   -0.8120 ny        1 IJ6     -0.768000
      9 CAG        -4.0350    1.3850   -0.8450 c3        1 IJ6      0.164800
     10 CAJ        -4.5610    1.5210   -2.2240 c3        1 IJ6     -0.306600
     11 SAN        -6.4450    1.5390   -2.0870 s6        1 IJ6      1.444800
     12 OAC        -6.8410    1.6660   -3.4130 o         1 IJ6     -0.723533
     13 OAB        -6.6230    2.6490   -1.2540 o         1 IJ6     -0.723533
     14 OAA        -6.6610    0.3020   -1.4680 o         1 IJ6     -0.723533
     15 H1         -0.3060   -0.9400    0.4210 hc        1 IJ6      0.046700
     16 H2         -0.1180   -0.0220   -1.1300 hc        1 IJ6      0.046700
     17 H3          2.0410   -0.9830   -0.3400 hc        1 IJ6      0.051200
     18 H4          2.0880    0.8230   -0.4440 hc        1 IJ6      0.051200
     19 H5          1.7160   -0.8930    2.1050 hc        1 IJ6      0.051200
     20 H6          3.1690    0.0800    1.6440 hc        1 IJ6      0.051200
     21 H7          1.7150    1.2460    3.3370 hc        1 IJ6      0.051200
     22 H8          1.8860    2.1830    1.7990 hc        1 IJ6      0.051200
     23 H9         -0.4650    2.2100    2.5670 hc        1 IJ6      0.046700
     24 H10        -0.5010    0.4010    2.6470 hc        1 IJ6      0.046700
     25 H11        -0.0670    2.1370    0.1210 hc        1 IJ6      0.062700
     26 H12        -2.4040    2.0550    1.1830 hx        1 IJ6      0.101200
     27 H13        -2.3890    0.2380    0.9850 hx        1 IJ6      0.101200
     28 H14        -2.1720    2.2200   -1.2310 hn        1 IJ6      0.434800
     29 H16        -4.4020    0.4230   -0.3770 hx        1 IJ6      0.112200
     30 H17        -4.3690    2.2570   -0.2080 hx        1 IJ6      0.112200
     31 H18        -4.2790    2.4740   -2.7170 h1        1 IJ6      0.082700
     32 H19        -4.3080    0.6660   -2.8850 h1        1 IJ6      0.082700
     33 HAL2       -2.2020    0.5760   -1.3950 hn        1 IJ6      0.434800
@<TRIPOS>BOND
     1    1    2 1   
     2    1    6 1   
     3    1   15 1   
     4    1   16 1   
     5    2    3 1   
     6    2   17 1   
     7    2   18 1   
     8    3    4 1   
     9    3   19 1   
    10    3   20 1   
    11    4    5 1   
    12    4   21 1   
    13    4   22 1   
    14    5    6 1   
    15    5   23 1   
    16    5   24 1   
    17    6    7 1   
    18    6   25 1   
    19    7    8 1   
    20    7   26 1   
    21    7   27 1   
    22    8    9 1   
    23    8   28 1   
    24    8   33 1   
    25    9   10 1   
    26    9   29 1   
    27    9   30 1   
    28   10   11 1   
    29   10   31 1   
    30   10   32 1   
    31   11   12 1   
    32   11   13 1   
    33   11   14 1   
@<TRIPOS>SUBSTRUCTURE
     1 IJ6         1 TEMP              0 ****  ****    0 ROOT
