@<TRIPOS>MOLECULE
IJ6
   33    33     1     0     0
SMALL
bcc


@<TRIPOS>ATOM
      1 CAH         0.1330   -0.0130   -0.0450 c3        1 IJ6     -0.077900
      2 CAE         1.6410   -0.0400    0.1060 c3        1 IJ6     -0.077400
      3 CAD         2.0530    0.0280    1.5620 c3        1 IJ6     -0.081400
      4 CAF         1.4540    1.2390    2.2440 c3        1 IJ6     -0.077400
      5 CAI        -0.0540    1.2630    2.1010 c3        1 IJ6     -0.077900
      6 CAM        -0.4620    1.2120    0.6330 c3        1 IJ6     -0.089700
      7 CAK        -1.9910    1.2030    0.5660 c3        1 IJ6      0.096800
      8 NAL        -2.5260    1.3600   -0.8090 n4        1 IJ6     -0.768000
      9 CAG        -4.0360    1.3880   -0.8390 c3        1 IJ6      0.164800
     10 CAJ        -4.5640    1.5350   -2.2160 c3        1 IJ6     -0.306600
     11 SAN        -6.4480    1.5500   -2.0770 s6        1 IJ6      1.444800
     12 OAC        -6.8450    1.6910   -3.4010 o         1 IJ6     -0.723533
     13 OAB        -6.6260    2.6510   -1.2320 o         1 IJ6     -0.723533
     14 OAA        -6.6620    0.3060   -1.4710 o         1 IJ6     -0.723533
     15 H1         -0.3050   -0.9420    0.4080 hc        1 IJ6      0.046700
     16 H2         -0.1200   -0.0160   -1.1370 hc        1 IJ6      0.046700
     17 H3          2.0410   -0.9800   -0.3560 hc        1 IJ6      0.051200
     18 H4          2.0880    0.8260   -0.4500 hc        1 IJ6      0.051200
     19 H5          3.1710    0.0720    1.6320 hc        1 IJ6      0.051200
     20 H6          1.7200   -0.9040    2.0900 hc        1 IJ6      0.051200
     21 H7          1.7200    1.2280    3.3340 hc        1 IJ6      0.051200
     22 H8          1.8880    2.1740    1.8010 hc        1 IJ6      0.051200
     23 H9         -0.4970    0.3860    2.6420 hc        1 IJ6      0.046700
     24 H10        -0.4610    2.1960    2.5720 hc        1 IJ6      0.046700
     25 H11        -0.0670    2.1360    0.1250 hc        1 IJ6      0.062700
     26 H12        -2.4030    2.0470    1.1910 hx        1 IJ6      0.101200
     27 H13        -2.3870    0.2320    0.9810 hx        1 IJ6      0.101200
     28 H14        -2.1750    2.2280   -1.2220 hn        1 IJ6      0.434800
     29 H16        -4.3710    2.2550   -0.1950 hx        1 IJ6      0.112200
     30 H17        -4.4010    0.4230   -0.3790 hx        1 IJ6      0.112200
     31 H18        -4.3110    0.6860   -2.8850 h1        1 IJ6      0.082700
     32 H19        -4.2830    2.4930   -2.7020 h1        1 IJ6      0.082700
     33 HAL2       -2.2030    0.5860   -1.3980 hn        1 IJ6      0.434800
@<TRIPOS>BOND
     1    1    2 1   
     2    1    6 1   
     3    1   15 1   
     4    1   16 1   
     5    2    3 1   
     6    2   17 1   
     7    2   18 1   
     8    3    4 1   
     9    3   19 1   
    10    3   20 1   
    11    4    5 1   
    12    4   21 1   
    13    4   22 1   
    14    5    6 1   
    15    5   23 1   
    16    5   24 1   
    17    6    7 1   
    18    6   25 1   
    19    7    8 1   
    20    7   26 1   
    21    7   27 1   
    22    8    9 1   
    23    8   28 1   
    24    8   33 1   
    25    9   10 1   
    26    9   29 1   
    27    9   30 1   
    28   10   11 1   
    29   10   31 1   
    30   10   32 1   
    31   11   12 1   
    32   11   13 1   
    33   11   14 1   
@<TRIPOS>SUBSTRUCTURE
     1 IJ6         1 TEMP              0 ****  ****    0 ROOT
