@<TRIPOS>MOLECULE
IJ6
   32    31     1     0     0
SMALL
bcc


@<TRIPOS>ATOM
      1 CAH         0.2920    2.3890   -0.0800 c3        1 IJ6     -0.068900
      2 CAE         1.8060    2.4200   -0.1340 c3        1 IJ6     -0.078400
      3 CAD         2.4350    2.3980    1.2420 c3        1 IJ6     -0.072400
      4 CAF         1.9100    1.2660    2.1010 c3        1 IJ6     -0.078400
      5 CAI         0.3960    1.2350    2.1560 c3        1 IJ6     -0.068900
      6 CAM        -0.2340    1.2570    0.7780 c3        1 IJ6     -0.067700
      7 CAK         0.0620   -0.0800    0.0740 c3        1 IJ6      0.160800
      8 NAL        -1.1640   -0.8400   -0.0540 n3        1 IJ6     -0.818200
      9 CAG        -0.9980   -1.8620   -1.0770 c3        1 IJ6      0.186800
     10 CAJ        -2.2760   -2.7070   -1.1690 c3        1 IJ6     -0.360100
     11 SAN        -2.1820   -3.7790   -2.6070 s4        1 IJ6      1.650500
     12 OAC        -0.8910   -4.5620   -2.5910 os        1 IJ6     -1.075000
     13 OAB        -2.3300   -2.9910   -3.8900 o         1 IJ6     -0.682900
     14 OAA        -3.3790   -4.6970   -2.6870 o         1 IJ6     -0.682900
     15 H1         -0.0530    2.2860   -0.9850 hc        1 IJ6      0.033200
     16 H2         -0.0280    3.2390    0.2860 hc        1 IJ6      0.033200
     17 H3          2.0890    3.2350   -0.5990 hc        1 IJ6      0.040950
     18 H4          2.1200    1.6430   -0.6370 hc        1 IJ6      0.040950
     19 H5          3.4080    2.2990    1.1440 hc        1 IJ6      0.029200
     20 H6          2.2470    3.2480    1.6890 hc        1 IJ6      0.029200
     21 H7          2.2600    1.3710    3.0140 hc        1 IJ6      0.040950
     22 H8          2.2290    0.4210    1.7360 hc        1 IJ6      0.040950
     23 H9          0.1130    0.4240    2.6190 hc        1 IJ6      0.033200
     24 H10         0.0820    2.0110    2.6580 hc        1 IJ6      0.033200
     25 H11        -1.2040    1.3570    0.8740 hc        1 IJ6      0.050700
     26 H12         0.7090   -0.5910    0.6020 h1        1 IJ6      0.031200
     27 H13         0.4320    0.0950   -0.8150 h1        1 IJ6      0.031200
     28 H14        -1.3600   -1.2390    0.7460 hn        1 IJ6      0.338800
     29 H16        -0.2450   -2.4370   -0.8430 h1        1 IJ6      0.061200
     30 H17        -0.8270   -1.4360   -1.9390 h1        1 IJ6      0.061200
     31 H18        -3.0510   -2.1180   -1.2530 h1        1 IJ6      0.062200
     32 H19        -2.3670   -3.2530   -0.3590 h1        1 IJ6      0.062200
@<TRIPOS>BOND
     1    1    2 1   
     2    1    6 1   
     3    1   15 1   
     4    1   16 1   
     5    2    3 1   
     6    2   17 1   
     7    2   18 1   
     8    3    4 1   
     9    3   19 1   
    10    3   20 1   
    11    4    5 1   
    12    4   21 1   
    13    4   22 1   
    14    5    6 1   
    15    5   23 1   
    16    5   24 1   
    17    6    7 1   
    18    6   25 1   
    19    7    8 1   
    20    7   26 1   
    21    7   27 1   
    22    8    9 1   
    23    8   28 1   
    24    9   10 1   
    25    9   29 1   
    26    9   30 1   
    27   10   11 1   
    28   10   31 1   
    29   10   32 1   
    30   11   13 1   
    31   11   14 1   
@<TRIPOS>SUBSTRUCTURE
     1 IJ6         1 TEMP              0 ****  ****    0 ROOT
