@<TRIPOS>MOLECULE
IJ6
   32    32     1     0     0
SMALL
bcc


@<TRIPOS>ATOM
      1 CAH        -2.9480    1.1010   -0.3700 c3        1 IJ6     -0.074900
      2 CAE        -4.4080    1.4240   -0.6140 c3        1 IJ6     -0.074900
      3 CAD        -5.3030    0.7470    0.4030 c3        1 IJ6     -0.074400
      4 CAF        -5.0660   -0.7490    0.4250 c3        1 IJ6     -0.074900
      5 CAI        -3.6070   -1.0710    0.6730 c3        1 IJ6     -0.074900
      6 CAM        -2.7050   -0.4000   -0.3540 c3        1 IJ6     -0.067700
      7 CAK        -1.2420   -0.7240   -0.0170 c3        1 IJ6      0.161800
      8 NAL        -0.3150   -0.4250   -1.0910 n3        1 IJ6     -0.818200
      9 CAG         1.0780   -0.6200   -0.7290 c3        1 IJ6      0.186800
     10 CAJ         1.7020    0.3970    0.2010 c3        1 IJ6     -0.325600
     11 SAN         3.4150    0.0360    0.5430 s6        1 IJ6      1.430800
     12 OAC         3.7980    1.0610    1.4420 o         1 IJ6     -0.751867
     13 OAB         3.4100   -1.2570    1.1180 o         1 IJ6     -0.751867
     14 OAA         4.0630    0.1050   -0.7130 o         1 IJ6     -0.751867
     15 H1         -2.3290    1.5780   -1.1740 hc        1 IJ6      0.041700
     16 H2         -2.6240    1.5410    0.6100 hc        1 IJ6      0.041700
     17 H3         -4.5590    2.5340   -0.5670 hc        1 IJ6      0.032200
     18 H4         -4.6970    1.0890   -1.6450 hc        1 IJ6      0.032200
     19 H5         -5.0980    1.1720    1.4210 hc        1 IJ6      0.031700
     20 H6         -6.3770    0.9560    0.1600 hc        1 IJ6      0.031700
     21 H7         -5.6950   -1.2170    1.2260 hc        1 IJ6      0.032200
     22 H8         -5.3840   -1.1910   -0.5550 hc        1 IJ6      0.032200
     23 H9         -3.3160   -0.7300    1.7020 hc        1 IJ6      0.041700
     24 H10        -3.4580   -2.1820    0.6320 hc        1 IJ6      0.041700
     25 H11        -2.9540   -0.8150   -1.3700 hc        1 IJ6      0.054700
     26 H12        -0.9790   -0.1890    0.9440 h1        1 IJ6      0.030200
     27 H13        -1.1610   -1.8300    0.1890 h1        1 IJ6      0.030200
     28 H14        -0.4500    0.5220   -1.3970 hn        1 IJ6      0.339800
     29 H16         1.1870   -1.6430   -0.2670 h1        1 IJ6      0.061700
     30 H17         1.6580   -0.6170   -1.6980 h1        1 IJ6      0.061700
     31 H18         1.6410    1.4180   -0.2430 h1        1 IJ6      0.062200
     32 H19         1.1530    0.4270    1.1720 h1        1 IJ6      0.062200
@<TRIPOS>BOND
     1    1    2 1   
     2    1    6 1   
     3    1   15 1   
     4    1   16 1   
     5    2    3 1   
     6    2   17 1   
     7    2   18 1   
     8    3    4 1   
     9    3   19 1   
    10    3   20 1   
    11    4    5 1   
    12    4   21 1   
    13    4   22 1   
    14    5    6 1   
    15    5   23 1   
    16    5   24 1   
    17    6    7 1   
    18    6   25 1   
    19    7    8 1   
    20    7   26 1   
    21    7   27 1   
    22    8    9 1   
    23    8   28 1   
    24    9   10 1   
    25    9   29 1   
    26    9   30 1   
    27   10   11 1   
    28   10   31 1   
    29   10   32 1   
    30   11   12 1   
    31   11   13 1   
    32   11   14 1   
@<TRIPOS>SUBSTRUCTURE
     1 IJ6         1 TEMP              0 ****  ****    0 ROOT
