@<TRIPOS>MOLECULE
IJZ
   17    17     1     0     0
SMALL
bcc


@<TRIPOS>ATOM
      1 O10         0.0590   -0.5680    0.0640 o         1 IJZ     -0.739300
      2 C9          1.1070    0.0960    0.0330 c         1 IJZ      0.927800
      3 O11         1.6410    0.7630    0.9600 o         1 IJZ     -0.739300
      4 C5          1.8780    0.1140   -1.3480 cc        1 IJZ      0.106400
      5 C4          3.1110    0.7360   -1.5380 cd        1 IJZ     -0.335200
      6 N12         3.8080    1.4150   -0.4710 n4        1 IJZ     -0.674400
      7 C3          3.7740    0.7370   -2.8530 c         1 IJZ      0.727700
      8 O8          4.8670    1.2980   -3.0680 o         1 IJZ     -0.647500
      9 N2          3.1060    0.0700   -3.8820 n         1 IJZ     -0.569500
     10 C1          1.8670   -0.5650   -3.6940 c         1 IJZ      0.798500
     11 N6          1.2860   -0.5140   -2.4000 n         1 IJZ     -0.411100
     12 O7          1.2910   -1.1550   -4.6260 o         1 IJZ     -0.595500
     13 H112        4.5990    0.8430   -0.1700 hn        1 IJZ      0.463133
     14 H212        4.1610    2.3080   -0.8230 hn        1 IJZ      0.463133
     15 HN2         3.5100    0.0380   -4.7950 hn        1 IJZ      0.365500
     16 HN6         0.3990   -0.9700   -2.2560 hn        1 IJZ      0.396500
     17 H123        3.1470    1.5590    0.3370 hn        1 IJZ      0.463133
@<TRIPOS>BOND
     1    1    2 1   
     2    2    3 1   
     3    2    4 1   
     4    4    5 2   
     5    4   11 1   
     6    5    6 1   
     7    5    7 1   
     8    6   13 1   
     9    6   14 1   
    10    6   17 1   
    11    7    8 2   
    12    7    9 1   
    13    9   10 1   
    14    9   15 1   
    15   10   11 1   
    16   10   12 2   
    17   11   16 1   
@<TRIPOS>SUBSTRUCTURE
     1 IJZ         1 TEMP              0 ****  ****    0 ROOT
