@<TRIPOS>MOLECULE
IJZ
   16    16     1     0     0
SMALL
bcc


@<TRIPOS>ATOM
      1 O10       -52.8830   17.3870   16.7990 o         1 IJZ     -0.802800
      2 C9        -53.6140   18.4100   16.7550 c         1 IJZ      0.926800
      3 O11       -54.6300   18.6200   17.4660 o         1 IJZ     -0.802800
      4 C5        -53.2430   19.4890   15.7030 cc        1 IJZ     -0.043600
      5 C4        -53.6330   20.8120   15.7790 cd        1 IJZ     -0.083200
      6 N12       -54.2460   21.3950   16.9050 nh        1 IJZ     -0.772600
      7 C3        -53.3200   21.7280   14.6520 c         1 IJZ      0.708700
      8 O8        -53.7270   22.9030   14.5360 o         1 IJZ     -0.666500
      9 N2        -52.5260   21.2110   13.6170 n         1 IJZ     -0.588500
     10 C1        -52.0710   19.8810   13.5990 c         1 IJZ      0.788500
     11 N6        -52.4790   19.0410   14.6310 n         1 IJZ     -0.427100
     12 O7        -51.3370   19.4780   12.6610 o         1 IJZ     -0.705500
     13 H112      -55.0260   21.9580   16.6220 hn        1 IJZ      0.382800
     14 H212      -54.5370   20.6920   17.5640 hn        1 IJZ      0.382800
     15 HN2       -52.2640   21.7950   12.8560 hn        1 IJZ      0.331500
     16 HN6       -52.1280   18.1050   14.6680 hn        1 IJZ      0.370500
@<TRIPOS>BOND
     1    1    2 1   
     2    2    3 1   
     3    2    4 1   
     4    4    5 2   
     5    4   11 1   
     6    5    6 1   
     7    5    7 1   
     8    6   13 1   
     9    6   14 1   
    10    7    8 2   
    11    7    9 1   
    12    9   10 1   
    13    9   15 1   
    14   10   11 1   
    15   10   12 2   
    16   11   16 1   
@<TRIPOS>SUBSTRUCTURE
     1 IJZ         1 TEMP              0 ****  ****    0 ROOT
