@<TRIPOS>MOLECULE
IJZ
   17    17     1     0     0
SMALL
bcc


@<TRIPOS>ATOM
      1 O10         0.1360   -0.7830    0.0460 o         1 IJZ     -0.739300
      2 C9          1.2130   -0.1660    0.0570 c         1 IJZ      0.927800
      3 O11         1.8240    0.3280    1.0430 o         1 IJZ     -0.739300
      4 C5          1.9170    0.0280   -1.3460 cc        1 IJZ      0.106400
      5 C4          3.0850    0.7670   -1.5300 cd        1 IJZ     -0.335200
      6 N12         3.7530    1.4430   -0.4430 n4        1 IJZ     -0.674400
      7 C3          3.7080    0.8970   -2.8580 c         1 IJZ      0.727700
      8 O8          4.7610    1.5330   -3.0610 o         1 IJZ     -0.647500
      9 N2          3.0560    0.2540   -3.9130 n         1 IJZ     -0.569500
     10 C1          1.8740   -0.4860   -3.7330 c         1 IJZ      0.798500
     11 N6          1.3400   -0.5750   -2.4210 n         1 IJZ     -0.411100
     12 O7          1.3100   -1.0500   -4.6880 o         1 IJZ     -0.595500
     13 H112        3.5820    2.4480   -0.5180 hn        1 IJZ      0.463133
     14 H212        3.3710    1.0870    0.4720 hn        1 IJZ      0.463133
     15 HN2         3.4330    0.3090   -4.8350 hn        1 IJZ      0.365500
     16 HN6         0.4920   -1.1000   -2.2850 hn        1 IJZ      0.396500
     17 H123        4.7580    1.2720   -0.5150 hn        1 IJZ      0.463133
@<TRIPOS>BOND
     1    1    2 1   
     2    2    3 1   
     3    2    4 1   
     4    4    5 2   
     5    4   11 1   
     6    5    6 1   
     7    5    7 1   
     8    6   13 1   
     9    6   14 1   
    10    6   17 1   
    11    7    8 2   
    12    7    9 1   
    13    9   10 1   
    14    9   15 1   
    15   10   11 1   
    16   10   12 2   
    17   11   16 1   
@<TRIPOS>SUBSTRUCTURE
     1 IJZ         1 TEMP              0 ****  ****    0 ROOT
