@<TRIPOS>MOLECULE
IJZ
   17    17     1     0     0
SMALL
bcc


@<TRIPOS>ATOM
      1 O10         0.1670   -0.7580    0.1010 o         1 IJZ     -0.739300
      2 C9          1.2400   -0.1330    0.0850 c         1 IJZ      0.927800
      3 O11         1.8590    0.3870    1.0520 o         1 IJZ     -0.739300
      4 C5          1.9250    0.0330   -1.3310 cc        1 IJZ      0.106400
      5 C4          3.0850    0.7770   -1.5450 cd        1 IJZ     -0.335200
      6 N12         3.7610    1.4820   -0.4820 nz        1 IJZ     -0.674400
      7 C3          3.6910    0.8810   -2.8840 c         1 IJZ      0.727700
      8 O8          4.7370    1.5200   -3.1140 o         1 IJZ     -0.647500
      9 N2          3.0310    0.2090   -3.9150 ns        1 IJZ     -0.569500
     10 C1          1.8570   -0.5350   -3.7050 c         1 IJZ      0.798500
     11 N6          1.3400   -0.5980   -2.3850 ns        1 IJZ     -0.411100
     12 O7          1.2860   -1.1240   -4.6400 o         1 IJZ     -0.595500
     13 H112        3.3920    1.1440    0.4460 hn        1 IJZ      0.463133
     14 H212        4.7670    1.3170   -0.5620 hn        1 IJZ      0.463133
     15 HN2         3.3970    0.2460   -4.8440 hn        1 IJZ      0.365500
     16 HN6         0.4970   -1.1260   -2.2260 hn        1 IJZ      0.396500
     17 H123        3.5820    2.4830   -0.5780 hn        1 IJZ      0.463133
@<TRIPOS>BOND
     1    1    2 1   
     2    2    3 1   
     3    2    4 1   
     4    4    5 2   
     5    4   11 1   
     6    5    6 1   
     7    5    7 1   
     8    6   13 1   
     9    6   14 1   
    10    6   17 1   
    11    7    8 2   
    12    7    9 1   
    13    9   10 1   
    14    9   15 1   
    15   10   11 1   
    16   10   12 2   
    17   11   16 1   
@<TRIPOS>SUBSTRUCTURE
     1 IJZ         1 TEMP              0 ****  ****    0 ROOT
