@<TRIPOS>MOLECULE
IK1
   29    28     1     0     0
SMALL
bcc


@<TRIPOS>ATOM
      1 NAA        -0.1780   -0.4450    0.0450 n         1 IK1     -0.653000
      2 NAB         4.2410    0.4390   -4.7910 n         1 IK1     -0.667000
      3 OAC         1.8260   -0.3080    1.1610 o         1 IK1     -0.640100
      4 OAD         2.2070   -0.0280   -3.9320 o         1 IK1     -0.667100
      5 CAG         7.0830    0.5370    2.4530 c1        1 IK1     -0.125500
      6 CAF        12.3170   -0.1280   -0.0040 c1        1 IK1     -0.161500
      7 CAI         7.0330    0.3280    1.2750 cg        1 IK1     -0.181300
      8 CAH         8.1260   -0.1330   -0.8140 c2        1 IK1     -0.189000
      9 CAJ         5.4160    0.1490   -2.0870 cd        1 IK1     -0.094000
     10 NAK         1.8850   -0.0280   -1.1360 n         1 IK1     -0.439100
     11 SAL         4.2720   -0.0290    0.1740 ss        1 IK1      0.182200
     12 CAM         1.1970   -0.2590    0.0720 c         1 IK1      0.760100
     13 CAO        11.4430   -0.4740    0.7350 c1        1 IK1     -0.161500
     14 CAP         6.9940    0.0840   -0.1190 ce        1 IK1      0.117100
     15 CAQ         5.6800    0.0780   -0.7320 cc        1 IK1     -0.151900
     16 CAR         4.0190    0.1120   -2.3710 cd        1 IK1     -0.263600
     17 CAS         3.2640    0.0070   -1.1830 cc        1 IK1      0.103500
     18 HAA1       -0.7110   -0.2290   -0.7600 hn        1 IK1      0.321000
     19 HAA2       -0.6330   -0.4480    0.9250 hn        1 IK1      0.321000
     20 HAB1        3.8410    0.4820   -5.6950 hn        1 IK1      0.313000
     21 HAB2        5.2000    0.6370   -4.6800 hn        1 IK1      0.313000
     22 HAF         8.1200   -0.3330   -1.8920 ha        1 IK1      0.124000
     23 HAH        13.0920    0.1790   -0.6590 ha        1 IK1      0.162000
     24 HAO         9.1160   -0.1240   -0.3360 ha        1 IK1      0.124000
     25 HAG        10.6710   -0.7820    1.3950 ha        1 IK1      0.162000
     26 HAI         7.1150    0.7220    3.4970 ha        1 IK1      0.169500
     27 HAJ         6.1900    0.2210   -2.8540 ha        1 IK1      0.146000
     28 HAK         1.4070   -0.0820   -2.0180 hn        1 IK1      0.365500
     29 CAN         3.4300    0.1660   -3.7160 c         1 IK1      0.711700
@<TRIPOS>BOND
     1    1   12 1   
     2    1   18 1   
     3    1   19 1   
     4    2   20 1   
     5    2   21 1   
     6    2   29 1   
     7    3   12 2   
     8    4   29 2   
     9    5    7 3   
    10    5   26 1   
    11    6   13 3   
    12    6   23 1   
    13    7   14 1   
    14    8   14 2   
    15    8   22 1   
    16    8   24 1   
    17    9   15 2   
    18    9   16 1   
    19    9   27 1   
    20   10   12 1   
    21   10   17 1   
    22   10   28 1   
    23   11   15 1   
    24   11   17 1   
    25   13   25 1   
    26   14   15 1   
    27   16   17 2   
    28   16   29 1   
@<TRIPOS>SUBSTRUCTURE
     1 IK1         1 TEMP              0 ****  ****    0 ROOT
