@<TRIPOS>MOLECULE
IK1
   29    30     1     0     0
SMALL
bcc


@<TRIPOS>ATOM
      1 NAA         4.4370    2.1160    0.1120 n         1 IK1     -0.652000
      2 NAB         1.4080   -3.7290   -0.3920 n         1 IK1     -0.667000
      3 OAC         2.2030    2.6590    0.1630 o         1 IK1     -0.641100
      4 OAD         3.1630   -2.3640   -0.0080 o         1 IK1     -0.668100
      5 CAG        -4.3270    1.5400   -0.4170 ca        1 IK1     -0.124500
      6 CAF        -4.7290   -0.6670    0.4710 ca        1 IK1     -0.124500
      7 CAI        -2.9570    1.2940   -0.4180 ca        1 IK1     -0.126000
      8 CAH        -3.3580   -0.9190    0.4750 ca        1 IK1     -0.126000
      9 CAJ        -0.4250   -1.4270   -0.0690 cc        1 IK1     -0.093000
     10 NAK         2.7350    0.4070    0.1750 n         1 IK1     -0.441100
     11 SAL         0.0900    1.0510    0.1480 ss        1 IK1      0.154200
     12 CAM         3.0930    1.7690    0.1570 c         1 IK1      0.761100
     13 CAO        -5.2160    0.5610    0.0250 ca        1 IK1     -0.131000
     14 CAP        -2.4570    0.0590    0.0280 ca        1 IK1      0.004000
     15 CAQ        -1.0350   -0.1910    0.0270 cd        1 IK1     -0.132100
     16 CAR         0.9990   -1.3370   -0.0440 cc        1 IK1     -0.263600
     17 CAS         1.4190    0.0040    0.0850 cd        1 IK1      0.112500
     18 HAA1        4.6400    3.0760    0.2540 hn        1 IK1      0.321000
     19 HAA2        5.1450    1.4530    0.3000 hn        1 IK1      0.321000
     20 HAB1        2.0300   -4.4940   -0.4710 hn        1 IK1      0.313000
     21 HAB2        0.4460   -3.8760   -0.5470 hn        1 IK1      0.313000
     22 HAF        -5.4270   -1.4410    0.8240 ha        1 IK1      0.132000
     23 HAH        -2.9790   -1.8860    0.8370 ha        1 IK1      0.133500
     24 HAO        -6.2980    0.7570    0.0240 ha        1 IK1      0.132000
     25 HAG        -4.7070    2.5100   -0.7690 ha        1 IK1      0.132000
     26 HAI        -2.2590    2.0680   -0.7730 ha        1 IK1      0.133500
     27 HAJ        -0.9750   -2.3670   -0.1560 ha        1 IK1      0.147000
     28 HAK         3.4320   -0.3120    0.1100 hn        1 IK1      0.367500
     29 CAN         1.9170   -2.4780   -0.1420 c         1 IK1      0.710700
@<TRIPOS>BOND
     1    1   12 1   
     2    1   18 1   
     3    1   19 1   
     4    2   20 1   
     5    2   21 1   
     6    2   29 1   
     7    3   12 2   
     8    4   29 2   
     9    5    7 ar  
    10    5   13 ar  
    11    5   25 1   
    12    6    8 ar  
    13    6   13 ar  
    14    6   22 1   
    15    7   14 ar  
    16    7   26 1   
    17    8   14 ar  
    18    8   23 1   
    19    9   15 2   
    20    9   16 1   
    21    9   27 1   
    22   10   12 1   
    23   10   17 1   
    24   10   28 1   
    25   11   15 1   
    26   11   17 1   
    27   13   24 1   
    28   14   15 1   
    29   16   17 2   
    30   16   29 1   
@<TRIPOS>SUBSTRUCTURE
     1 IK1         1 TEMP              0 ****  ****    0 ROOT
