@<TRIPOS>MOLECULE
IK1
   29    26     1     0     0
SMALL
bcc


@<TRIPOS>ATOM
      1 NAA        -4.7150    1.9090    1.0360 n         1 IK1     -0.654000
      2 NAB         1.4580    3.8790   -1.0570 n         1 IK1     -0.667000
      3 OAC        -2.6000    2.3340    1.7840 o         1 IK1     -0.641100
      4 OAD        -0.6150    4.1730   -0.1480 o         1 IK1     -0.667100
      5 CAG         2.5660   -3.3010    1.2330 c1        1 IK1     -0.067500
      6 CAF         1.6480   -4.0640   -0.8500 c1        1 IK1     -0.067500
      7 CAI         1.9390   -2.0770    1.0620 c1        1 IK1     -0.067500
      8 CAH         1.0200   -2.8390   -1.0210 c1        1 IK1     -0.074500
      9 CAJ         1.1240    0.7810   -0.3390 c1        1 IK1      0.032200
     10 NAK        -2.7110    1.3100   -0.2530 n         1 IK1     -0.447500
     11 SAL        -1.0610   -0.2760   -0.2650 ss        1 IK1      0.231200
     12 CAM        -3.3030    1.8870    0.8990 c         1 IK1      0.761100
     13 CAN         0.2390    3.3930   -0.5200 c         1 IK1      0.709300
     14 CAO         2.4210   -4.2940    0.2770 c1        1 IK1     -0.067500
     15 CAP         1.1650   -1.8460   -0.0650 cg        1 IK1     -0.029300
     16 CAQ         0.4730   -0.5130   -0.2480 ce        1 IK1     -0.192200
     17 CAR        -0.0020    1.9040   -0.4180 ce        1 IK1     -0.410900
     18 CAS        -1.2980    1.2540   -0.3730 ce        1 IK1      0.158800
     19 HAA1       -5.0940    2.2050    1.8140 hn        1 IK1      0.322000
     20 HAA2       -5.2440    1.6120    0.3540 hn        1 IK1      0.322000
     21 HAB1        2.2300    3.4060   -0.9390 hn        1 IK1      0.313000
     22 HAB2        1.4730    4.6730   -1.5110 hn        1 IK1      0.313000
     23 HAF         1.5450   -4.7630   -1.5230 ha        1 IK1      0.074250
     24 HAH         0.4760   -2.6770   -1.8140 ha        1 IK1      0.077500
     25 HAO         2.8630   -5.1560    0.3980 ha        1 IK1      0.074250
     26 HAG         3.1110   -3.4640    2.0270 ha        1 IK1      0.074250
     27 HAI         2.0410   -1.3780    1.7350 ha        1 IK1      0.074250
     28 HAJ         2.0880    0.9360   -0.3500 DU        1 IK1      0.148000
     29 HAK        -3.2380    0.9930   -0.9270 hn        1 IK1      0.366500
@<TRIPOS>BOND
     1    1   12 1   
     2    1   19 1   
     3    1   20 1   
     4    2   13 1   
     5    2   21 1   
     6    2   22 1   
     7    3   12 2   
     8    4   13 2   
     9    5    7 3   
    10    5   26 1   
    11    6   14 3   
    12    6   23 1   
    13    7   27 1   
    14    8   15 3   
    15    8   24 1   
    16    9   16 2   
    17    9   17 2   
    18   10   12 1   
    19   10   18 2   
    20   10   29 1   
    21   11   16 1   
    22   11   18 1   
    23   13   17 1   
    24   14   25 1   
    25   15   16 1   
    26   17   18 1   
@<TRIPOS>SUBSTRUCTURE
     1 IK1         1 TEMP              0 ****  ****    0 ROOT
