@<TRIPOS>MOLECULE
IK1
   31    30     1     0     0
SMALL
bcc


@<TRIPOS>ATOM
      1 NAA        -0.2330   -0.3390    0.1240 nz        1 IK1     -0.736400
      2 NAB         4.2690    0.4310   -4.8560 nz        1 IK1     -0.745400
      3 OAC         1.7910   -0.4170    1.2580 o         1 IK1     -0.445100
      4 OAD         2.1790    0.2440   -3.9020 o         1 IK1     -0.487100
      5 CAG         7.1380   -0.3860    2.3820 c1        1 IK1     -0.022500
      6 CAF        11.5500   -0.5950    0.3840 c1        1 IK1     -0.165500
      7 CAI         7.0680   -0.2390    1.1950 cg        1 IK1     -0.265300
      8 CAH         8.2260    0.0610   -0.9000 c2        1 IK1     -0.090000
      9 CAJ         5.4470    0.1300   -2.1610 cd        1 IK1     -0.129000
     10 NAK         1.9400   -0.1190   -1.0630 ns        1 IK1     -0.396100
     11 SAL         4.4090   -0.1910    0.1320 ss        1 IK1      0.367200
     12 CAM         1.2900   -0.2920    0.1380 c         1 IK1      0.636100
     13 CAO        11.5130    0.5920    0.5310 c1        1 IK1     -0.165500
     14 CAP         7.0770   -0.0630   -0.2080 ce        1 IK1      0.056100
     15 CAQ         5.7660   -0.0270   -0.8250 cc        1 IK1     -0.041900
     16 CAR         4.0350    0.1120   -2.3740 cd        1 IK1     -0.265600
     17 CAS         3.3350   -0.0650   -1.1430 cc        1 IK1      0.002500
     18 HAA1       -0.5770   -1.1240   -0.4400 hn        1 IK1      0.490467
     19 HAA2       -0.5390   -0.4720    1.1050 hn        1 IK1      0.490467
     20 HAB1        4.8920   -0.3780   -4.9590 hn        1 IK1      0.480467
     21 HAB2        3.6860    0.5180   -5.7020 hn        1 IK1      0.480467
     22 HAF         8.2480    0.1980   -1.9890 ha        1 IK1      0.149500
     23 HAH        11.6100   -1.6480    0.2640 ha        1 IK1      0.167500
     24 HAO         9.2120    0.0300   -0.4000 ha        1 IK1      0.149500
     25 HAG        11.5070    1.6440    0.6710 ha        1 IK1      0.167500
     26 HAI         7.1950   -0.5170    3.4390 ha        1 IK1      0.195500
     27 HAJ         6.1960    0.2530   -2.9480 ha        1 IK1      0.168000
     28 HAK         1.4290   -0.0280   -1.9240 hn        1 IK1      0.377500
     29 HAA3       -0.6300    0.5380   -0.2300 hn        1 IK1      0.490467
     30 HAB3        4.8390    1.2780   -4.7510 hn        1 IK1      0.480467
     31 CAN         3.3830    0.2510   -3.6440 c         1 IK1      0.604700
@<TRIPOS>BOND
     1    1   12 1   
     2    1   18 1   
     3    1   19 1   
     4    1   29 1   
     5    2   20 1   
     6    2   21 1   
     7    2   30 1   
     8    2   31 1   
     9    3   12 2   
    10    4   31 2   
    11    5    7 3   
    12    5   26 1   
    13    6   13 3   
    14    6   23 1   
    15    7   14 1   
    16    8   14 2   
    17    8   22 1   
    18    8   24 1   
    19    9   15 2   
    20    9   16 1   
    21    9   27 1   
    22   10   12 1   
    23   10   17 1   
    24   10   28 1   
    25   11   15 1   
    26   11   17 1   
    27   13   25 1   
    28   14   15 1   
    29   16   17 2   
    30   16   31 1   
@<TRIPOS>SUBSTRUCTURE
     1 IK1         1 TEMP              0 ****  ****    0 ROOT
