@<TRIPOS>MOLECULE
IK2
   33    30     1     0     0
SMALL
bcc


@<TRIPOS>ATOM
      1 N1         -1.3760    0.4280   -3.0390 n1        1 IK2     -0.154000
      2 C2         -0.0110    0.4390   -3.0410 c1        1 IK2     -0.117000
      3 C2A         0.7340    0.4050   -4.3470 c2        1 IK2     -0.132000
      4 C3          0.6900    0.4490   -1.8310 c2        1 IK2      0.018000
      5 O3          2.1390    0.5820   -1.8290 oh        1 IK2     -0.291000
      6 C4         -0.0040    0.4470   -0.6370 c1        1 IK2     -0.183000
      7 C4A         0.7560    0.5030    0.7030 c2        1 IK2     -0.082000
      8 N4A         1.2470   -0.7720    1.0180 n3        1 IK2     -0.164000
      9 OX          2.2960   -0.6520    1.9290 os        1 IK2     -0.246000
     10 C1'         2.7460   -1.9530    2.3280 c3        1 IK2     -0.071000
     11 C2'         3.6850   -1.8230    3.5180 c2        1 IK2      0.332000
     12 O1'         4.8490   -1.3720    3.3530 o         1 IK2     -0.586500
     13 O2'         3.3500   -2.2950    4.6290 o         1 IK2     -0.586500
     14 C5         -1.3710    0.4360   -0.6440 c2        1 IK2     -0.065000
     15 C6         -2.0640    0.4270   -1.8490 c1        1 IK2     -0.096000
     16 C5A        -2.1250    0.4420    0.6530 c3        1 IK2      0.083000
     17 O4P        -3.4770    0.7340    0.4120 os        1 IK2     -0.725000
     18 P          -4.4280    0.9650    1.6590 p5        1 IK2      1.549500
     19 O1P        -3.9600    2.1800    2.4330 o         1 IK2     -0.924833
     20 O2P        -5.8450    1.1870    1.1780 o         1 IK2     -0.924833
     21 O3P        -4.3830   -0.2670    2.5690 o         1 IK2     -0.924833
     22 H2A1        0.0910    0.2150   -5.0900 ha        1 IK2      0.060333
     23 H2A2        1.4330   -0.3160   -4.3160 ha        1 IK2      0.060333
     24 H2A3        1.1720    1.2880   -4.5040 ha        1 IK2      0.060333
     25 HO3         2.3730    1.3810   -2.2150 ho        1 IK2      0.240000
     26 H4A1        1.4810    1.1120    0.6330 h4        1 IK2      0.101500
     27 H4A2        0.1340    0.8070    1.4250 h4        1 IK2      0.101500
     28 HNA         1.5480   -1.1790    0.2580 hn        1 IK2      0.156000
     29 H1'1        3.2210   -2.3780    1.5810 h1        1 IK2      0.052500
     30 H1'2        1.9620   -2.5120    2.5840 h1        1 IK2      0.052500
     31 H6         -3.0690    0.4180   -1.8500 ha        1 IK2      0.285000
     32 H5A1       -1.7450    1.1240    1.2460 h1        1 IK2      0.061000
     33 H5A2       -2.0500   -0.4510    1.0830 h1        1 IK2      0.061000
@<TRIPOS>BOND
     1    1    2 1   
     2    2    4 1   
     3    3   22 1   
     4    3   23 1   
     5    3   24 1   
     6    4    5 1   
     7    4    6 1   
     8    5   25 1   
     9    6   14 1   
    10    7    8 1   
    11    7   26 1   
    12    7   27 1   
    13    8    9 1   
    14    8   28 1   
    15    9   10 1   
    16   10   11 1   
    17   10   29 1   
    18   10   30 1   
    19   11   12 1   
    20   11   13 1   
    21   14   15 1   
    22   14   16 1   
    23   15   31 1   
    24   16   17 1   
    25   16   32 1   
    26   16   33 1   
    27   17   18 1   
    28   18   19 1   
    29   18   20 1   
    30   18   21 1   
@<TRIPOS>SUBSTRUCTURE
     1 IK2         1 TEMP              0 ****  ****    0 ROOT
