@<TRIPOS>MOLECULE
IK2
   34    34     1     0     0
SMALL
bcc


@<TRIPOS>ATOM
      1 N1          0.4860    0.0890    0.1390 nb        1 IK2     -0.670000
      2 C2          1.7790   -0.1440    0.4530 ca        1 IK2      0.321600
      3 C2A         2.8170   -0.2120   -0.6180 c3        1 IK2     -0.118400
      4 C3          2.2050   -0.3380    1.8020 ca        1 IK2      0.063800
      5 O3          3.5330   -0.5890    1.9650 oh        1 IK2     -0.525100
      6 C4          1.2590   -0.2700    2.8480 ca        1 IK2     -0.172300
      7 C4A         1.6930   -0.4370    4.2730 c3        1 IK2      0.132100
      8 N4A         1.8560   -1.8160    4.7480 n3        1 IK2     -0.552700
      9 OX          2.9850   -2.3830    4.2660 os        1 IK2     -0.277100
     10 C1'         4.0490   -2.5280    5.2340 c3        1 IK2      0.020400
     11 C2'         5.0120   -1.3360    5.2690 c         1 IK2      0.897600
     12 O1'         6.0130   -1.4440    6.0340 o         1 IK2     -0.847800
     13 O2'         4.7900   -0.3180    4.5490 o         1 IK2     -0.847800
     14 C5         -0.0810   -0.0380    2.5030 ca        1 IK2     -0.138600
     15 C6         -0.4060    0.1340    1.1400 ca        1 IK2      0.356200
     16 C5A        -1.1580    0.0350    3.5380 c3        1 IK2      0.213700
     17 O4P        -2.4270    0.0740    2.9520 os        1 IK2     -0.570200
     18 P          -3.6500    0.3020    4.0370 p5        1 IK2      1.427800
     19 O1P        -4.9130    0.3730    3.2800 o         1 IK2     -0.840000
     20 O2P        -3.5370   -1.1170    4.8460 oh        1 IK2     -0.787400
     21 O3P        -3.1750    1.2680    5.0540 o         1 IK2     -0.840000
     22 H2A1        2.3980   -0.0100   -1.6330 hc        1 IK2      0.034700
     23 H2A2        3.6190    0.5350   -0.3960 hc        1 IK2      0.034700
     24 H2A3        3.2830   -1.2290   -0.6100 hc        1 IK2      0.034700
     25 HO3         3.7490   -0.7020    2.9210 ho        1 IK2      0.496000
     26 H4A1        0.9240    0.0210    4.9580 h1        1 IK2      0.095200
     27 H4A2        2.6750    0.1040    4.4400 h1        1 IK2      0.095200
     28 HNA        -3.0790   -1.0120    5.6730 ho        1 IK2      0.423000
     29 H1'1        4.5910   -3.4360    4.8560 h1        1 IK2      0.036700
     30 H1'2        3.6500   -2.7270    6.2590 h1        1 IK2      0.036700
     31 H6         -1.4600    0.3120    0.8550 h4        1 IK2      0.042100
     32 H5A1       -1.1060   -0.8710    4.2080 h1        1 IK2      0.041700
     33 H5A2       -1.0240    0.9590    4.1740 h1        1 IK2      0.041700
     34 H4A3        1.0960   -2.3710    4.3510 hn        1 IK2      0.342800
@<TRIPOS>BOND
     1    1    2 ar  
     2    1   15 ar  
     3    2    3 1   
     4    2    4 ar  
     5    3   22 1   
     6    3   23 1   
     7    3   24 1   
     8    4    5 1   
     9    4    6 ar  
    10    5   25 1   
    11    6    7 1   
    12    6   14 ar  
    13    7    8 1   
    14    7   26 1   
    15    7   27 1   
    16    8    9 1   
    17    8   34 1   
    18    9   10 1   
    19   10   11 1   
    20   10   29 1   
    21   10   30 1   
    22   11   12 1   
    23   11   13 1   
    24   14   15 ar  
    25   14   16 1   
    26   15   31 1   
    27   16   17 1   
    28   16   32 1   
    29   16   33 1   
    30   17   18 1   
    31   18   19 1   
    32   18   20 1   
    33   18   21 1   
    34   20   28 1   
@<TRIPOS>SUBSTRUCTURE
     1 IK2         1 TEMP              0 ****  ****    0 ROOT
