@<TRIPOS>MOLECULE
IK2
   33    33     1     0     0
SMALL
bcc


@<TRIPOS>ATOM
      1 N1          2.6400    0.3980    2.2770 nb        1 IK2     -0.682000
      2 C2          3.1680    0.3430    1.0200 ca        1 IK2      0.304600
      3 C2A         4.6340    0.5370    0.8260 c3        1 IK2     -0.107400
      4 C3          2.3610    0.0820   -0.1080 ca        1 IK2     -0.001200
      5 O3          3.0170   -0.0060   -1.3210 oh        1 IK2     -0.543100
      6 C4          0.9650   -0.1150    0.0420 ca        1 IK2     -0.147300
      7 C4A         0.1450   -0.4660   -1.1640 c3        1 IK2      0.162100
      8 N4A         0.0180    0.6720   -2.0970 n3        1 IK2     -0.593700
      9 OX         -0.4030    0.2480   -3.3140 os        1 IK2     -0.245100
     10 C1'         0.6510    0.2370   -4.3030 c3        1 IK2      0.021400
     11 C2'         0.0120    0.0240   -5.6940 c         1 IK2      0.916600
     12 O1'         0.1290   -1.1180   -6.2240 o         1 IK2     -0.851800
     13 O2'        -0.5130    1.0140   -6.2770 o         1 IK2     -0.851800
     14 C5          0.4300   -0.0190    1.3270 ca        1 IK2     -0.142600
     15 C6          1.3270    0.2190    2.4140 ca        1 IK2      0.371200
     16 C5A        -1.0340   -0.1830    1.6670 c3        1 IK2      0.243700
     17 O4P        -1.4220    0.5800    2.7360 os        1 IK2     -0.563200
     18 P          -1.7600   -0.2660    4.2160 p5        1 IK2      1.315900
     19 O1P        -2.2550   -1.5980    3.7200 o         1 IK2     -0.924167
     20 O2P        -0.3800   -0.2810    4.8300 o         1 IK2     -0.924167
     21 O3P        -2.7750    0.6170    4.8840 o         1 IK2     -0.924167
     22 H2A1        5.1340   -0.4580    0.7200 hc        1 IK2      0.019367
     23 H2A2        4.8130    1.1170   -0.1140 hc        1 IK2      0.019367
     24 H2A3        5.1030    1.0800    1.6810 hc        1 IK2      0.019367
     25 HO3         2.3670    0.1260   -2.0280 ho        1 IK2      0.432000
     26 H4A1        0.6590   -1.3030   -1.7210 h1        1 IK2      0.049200
     27 H4A2       -0.8580   -0.8630   -0.8400 h1        1 IK2      0.049200
     28 HNA        -0.7190    1.2800   -1.7480 hn        1 IK2      0.360800
     29 H1'1        1.2040    1.2100   -4.2960 h1        1 IK2      0.012200
     30 H1'2        1.3570   -0.6010   -4.0660 h1        1 IK2      0.012200
     31 H6          0.8660    0.2290    3.4590 h4        1 IK2      0.151100
     32 H5A1       -1.6340    0.1330    0.7590 h1        1 IK2      0.019700
     33 H5A2       -1.2260   -1.2820    1.8690 h1        1 IK2      0.019700
@<TRIPOS>BOND
     1    1    2 ar  
     2    1   15 ar  
     3    2    3 1   
     4    2    4 ar  
     5    3   22 1   
     6    3   23 1   
     7    3   24 1   
     8    4    5 1   
     9    4    6 ar  
    10    5   25 1   
    11    6    7 1   
    12    6   14 ar  
    13    7    8 1   
    14    7   26 1   
    15    7   27 1   
    16    8    9 1   
    17    8   28 1   
    18    9   10 1   
    19   10   11 1   
    20   10   29 1   
    21   10   30 1   
    22   11   12 1   
    23   11   13 1   
    24   14   15 ar  
    25   14   16 1   
    26   15   31 1   
    27   16   17 1   
    28   16   32 1   
    29   16   33 1   
    30   17   18 1   
    31   18   19 1   
    32   18   20 1   
    33   18   21 1   
@<TRIPOS>SUBSTRUCTURE
     1 IK2         1 TEMP              0 ****  ****    0 ROOT
