@<TRIPOS>MOLECULE
IK2
   34    34     1     0     0
SMALL
bcc


@<TRIPOS>ATOM
      1 N1          0.2730   -0.0390    0.2920 nb        1 IK2     -0.669000
      2 C2          1.5480   -0.4240    0.5210 ca        1 IK2      0.322600
      3 C2A         2.4450   -0.7810   -0.6170 c3        1 IK2     -0.118400
      4 C3          2.0830   -0.5090    1.8420 ca        1 IK2      0.061800
      5 O3          3.3790   -0.9230    1.9190 oh        1 IK2     -0.526100
      6 C4          1.2700   -0.1790    2.9470 ca        1 IK2     -0.171300
      7 C4A         1.8330   -0.2300    4.3370 c3        1 IK2      0.132100
      8 N4A         1.9390   -1.5550    4.9580 n7        1 IK2     -0.551700
      9 OX          2.9730   -2.2680    4.4570 os        1 IK2     -0.277100
     10 C1'         4.1160   -2.3730    5.3360 c3        1 IK2      0.020400
     11 C2'         5.1530   -1.2640    5.1270 c         1 IK2      0.896600
     12 O1'         6.2080   -1.3400    5.8220 o         1 IK2     -0.847800
     13 O2'         4.9380   -0.3420    4.2850 o         1 IK2     -0.847800
     14 C5         -0.0540    0.2110    2.6930 ca        1 IK2     -0.157600
     15 C6         -0.4910    0.2660    1.3520 ca        1 IK2      0.358200
     16 C5A        -0.9890    0.5950    3.8020 c3        1 IK2      0.232700
     17 O4P        -2.2540    0.9360    3.3300 os        1 IK2     -0.577200
     18 P          -3.5640    0.2380    4.0620 p5        1 IK2      1.429800
     19 O1P        -4.7560    1.0080    3.6660 o         1 IK2     -0.839000
     20 O2P        -3.5360   -1.2110    3.3060 oh        1 IK2     -0.781400
     21 O3P        -3.1550   -0.1190    5.4390 o         1 IK2     -0.839000
     22 H2A1        3.3830   -0.1750   -0.5460 hc        1 IK2      0.034367
     23 H2A2        2.7260   -1.8600   -0.5360 hc        1 IK2      0.034367
     24 H2A3        1.9680   -0.6020   -1.6100 hc        1 IK2      0.034367
     25 HO3         3.6980   -0.8930    2.8510 ho        1 IK2      0.495000
     26 H4A1        2.8650    0.2370    4.3420 h1        1 IK2      0.093700
     27 H4A2        1.1770    0.3630    5.0350 h1        1 IK2      0.093700
     28 HNA        -3.0540   -1.8600    3.8050 ho        1 IK2      0.423000
     29 H1'1        4.5570   -3.3590    5.0340 h1        1 IK2      0.037200
     30 H1'2        3.8080   -2.4100    6.4100 h1        1 IK2      0.037200
     31 H6         -1.5310    0.5750    1.1330 h4        1 IK2      0.042100
     32 H5A1       -0.5480    1.4990    4.3210 h1        1 IK2      0.040700
     33 H5A2       -1.0680   -0.2480    4.5490 h1        1 IK2      0.040700
     34 H4A3        1.1060   -2.0870    4.7000 hn        1 IK2      0.344800
@<TRIPOS>BOND
     1    1    2 ar  
     2    1   15 ar  
     3    2    3 1   
     4    2    4 ar  
     5    3   22 1   
     6    3   23 1   
     7    3   24 1   
     8    4    5 1   
     9    4    6 ar  
    10    5   25 1   
    11    6    7 1   
    12    6   14 ar  
    13    7    8 1   
    14    7   26 1   
    15    7   27 1   
    16    8    9 1   
    17    8   34 1   
    18    9   10 1   
    19   10   11 1   
    20   10   29 1   
    21   10   30 1   
    22   11   12 1   
    23   11   13 1   
    24   14   15 ar  
    25   14   16 1   
    26   15   31 1   
    27   16   17 1   
    28   16   32 1   
    29   16   33 1   
    30   17   18 1   
    31   18   19 1   
    32   18   20 1   
    33   18   21 1   
    34   20   28 1   
@<TRIPOS>SUBSTRUCTURE
     1 IK2         1 TEMP              0 ****  ****    0 ROOT
