@<TRIPOS>MOLECULE
IK2
   34    34     1     0     0
SMALL
bcc


@<TRIPOS>ATOM
      1 N1          0.2780    0.0540    0.3110 nb        1 IK2     -0.669000
      2 C2          1.5390   -0.3800    0.5230 ca        1 IK2      0.322600
      3 C2A         2.4170   -0.7440   -0.6270 c3        1 IK2     -0.118400
      4 C3          2.0790   -0.5130    1.8390 ca        1 IK2      0.061800
      5 O3          3.3590   -0.9740    1.8990 oh        1 IK2     -0.526100
      6 C4          1.2840   -0.1790    2.9570 ca        1 IK2     -0.171300
      7 C4A         1.8530   -0.2800    4.3410 c3        1 IK2      0.132100
      8 N4A         1.9150   -1.6210    4.9330 n3        1 IK2     -0.551700
      9 OX          2.9210   -2.3590    4.4100 os        1 IK2     -0.277100
     10 C1'         4.0650   -2.5230    5.2790 c3        1 IK2      0.020400
     11 C2'         5.1390   -1.4470    5.0870 c         1 IK2      0.896600
     12 O1'         6.1940   -1.5750    5.7730 o         1 IK2     -0.847800
     13 O2'         4.9520   -0.5000    4.2670 o         1 IK2     -0.847800
     14 C5         -0.0260    0.2630    2.7190 ca        1 IK2     -0.157600
     15 C6         -0.4690    0.3620    1.3820 ca        1 IK2      0.358200
     16 C5A        -0.9410    0.6540    3.8430 c3        1 IK2      0.231700
     17 O4P        -2.1960    1.0510    3.3860 os        1 IK2     -0.577200
     18 P          -3.5260    0.3820    4.1100 p5        1 IK2      1.429800
     19 O1P        -4.6920    1.2040    3.7410 o         1 IK2     -0.839000
     20 O2P        -3.5550   -1.0470    3.3170 oh        1 IK2     -0.781400
     21 O3P        -3.1220   -0.0240    5.4750 o         1 IK2     -0.839000
     22 H2A1        3.3760   -0.1730   -0.5490 hc        1 IK2      0.034367
     23 H2A2        2.6600   -1.8340   -0.5710 hc        1 IK2      0.034367
     24 H2A3        1.9410   -0.5270   -1.6130 hc        1 IK2      0.034367
     25 HO3         3.6850   -0.9760    2.8290 ho        1 IK2      0.495000
     26 H4A1        2.9010    0.1500    4.3500 h1        1 IK2      0.093700
     27 H4A2        1.2220    0.3200    5.0560 h1        1 IK2      0.093700
     28 HNA        -3.0930   -1.7250    3.7960 ho        1 IK2      0.423000
     29 H1'1        4.4690   -3.5180    4.9520 h1        1 IK2      0.037200
     30 H1'2        3.7620   -2.5730    6.3540 h1        1 IK2      0.037200
     31 H6         -1.4980    0.7130    1.1770 h4        1 IK2      0.042100
     32 H5A1       -0.4650    1.5300    4.3790 h1        1 IK2      0.040700
     33 H5A2       -1.0460   -0.2020    4.5710 h1        1 IK2      0.040700
     34 H4A3        1.0630   -2.1180    4.6690 hn        1 IK2      0.344800
@<TRIPOS>BOND
     1    1    2 ar  
     2    1   15 ar  
     3    2    3 1   
     4    2    4 ar  
     5    3   22 1   
     6    3   23 1   
     7    3   24 1   
     8    4    5 1   
     9    4    6 ar  
    10    5   25 1   
    11    6    7 1   
    12    6   14 ar  
    13    7    8 1   
    14    7   26 1   
    15    7   27 1   
    16    8    9 1   
    17    8   34 1   
    18    9   10 1   
    19   10   11 1   
    20   10   29 1   
    21   10   30 1   
    22   11   12 1   
    23   11   13 1   
    24   14   15 ar  
    25   14   16 1   
    26   15   31 1   
    27   16   17 1   
    28   16   32 1   
    29   16   33 1   
    30   17   18 1   
    31   18   19 1   
    32   18   20 1   
    33   18   21 1   
    34   20   28 1   
@<TRIPOS>SUBSTRUCTURE
     1 IK2         1 TEMP              0 ****  ****    0 ROOT
