@<TRIPOS>MOLECULE
IK4
   52    54     1     0     0
SMALL
bcc


@<TRIPOS>ATOM
      1 N31        -2.1860    0.4670   -1.6300 n1        1 IK4     -0.386800
      2 C30        -1.5020    0.7430   -0.7300 cg        1 IK4      0.245800
      3 C27        -0.6650    1.0800    0.3680 ca        1 IK4     -0.033000
      4 C28         0.5570    0.4180    0.5480 ca        1 IK4     -0.093000
      5 C29         1.3770    0.7520    1.6230 ca        1 IK4     -0.123000
      6 C26        -1.0620    2.0750    1.2750 ca        1 IK4     -0.093000
      7 C25        -0.2400    2.4010    2.3490 ca        1 IK4     -0.123000
      8 C24         0.9840    1.7430    2.5280 ca        1 IK4     -0.054300
      9 C23         1.8430    2.1500    3.6790 c3        1 IK4      0.160700
     10 C19         4.3250    0.1160    5.4070 ca        1 IK4     -0.124000
     11 C20         3.5690    1.2720    5.0540 ca        1 IK4      0.096100
     12 C21         3.6110    2.4160    5.8220 ca        1 IK4     -0.160000
     13 C18         5.0970    0.1330    6.5400 ca        1 IK4     -0.117000
     14 C16         5.1490    1.2870    7.3700 ca        1 IK4     -0.018000
     15 C15         4.4090    2.4340    6.9970 ca        1 IK4     -0.041000
     16 C14         4.4540    3.5960    7.8180 ca        1 IK4      0.011000
     17 C17         5.9070    1.3250    8.5720 ca        1 IK4     -0.146000
     18 C12         5.9110    2.4500    9.3540 ca        1 IK4     -0.045000
     19 C13         5.1800    3.6150    8.9870 ca        1 IK4     -0.367500
     20 S11         5.2940    4.9540   10.0300 sy        1 IK4      1.501200
     21 O33         5.1720    4.4520   11.3610 o         1 IK4     -0.686300
     22 O32         6.5380    5.5930    9.7840 o         1 IK4     -0.686300
     23 N           4.1130    5.9480    9.6460 n3        1 IK4     -0.896100
     24 CA          2.6830    5.8570    9.8810 c3        1 IK4      0.095500
     25 C           1.8630    5.7350    8.5410 c         1 IK4      0.901600
     26 O           0.6460    5.4390    8.6380 o         1 IK4     -0.823800
     27 OXT         2.4630    5.9760    7.4520 o         1 IK4     -0.823800
     28 CB          2.2480    4.7680   10.8620 c3        1 IK4     -0.089400
     29 CG          2.4110    5.2160   12.3020 c3        1 IK4     -0.174400
     30 CD          2.2920    4.0670   13.2560 c         1 IK4      0.638100
     31 OE1         1.3680    3.8490   14.0470 o         1 IK4     -0.538000
     32 OE2         3.2920    3.1440   13.3220 oh        1 IK4     -0.607100
     33 O22         2.8360    1.1340    3.8850 os        1 IK4     -0.341900
     34 H28         0.8690   -0.3640   -0.1600 ha        1 IK4      0.141000
     35 H26        -2.0220    2.5940    1.1370 ha        1 IK4      0.141000
     36 H29         2.3370    0.2320    1.7700 ha        1 IK4      0.155500
     37 H25        -0.5530    3.1790    3.0630 ha        1 IK4      0.155500
     38 H231        2.3620    3.1200    3.4420 h1        1 IK4      0.069700
     39 H232        1.2260    2.2740    4.6100 h1        1 IK4      0.069700
     40 H18         5.6820   -0.7520    6.8300 ha        1 IK4      0.130000
     41 H21         3.0350    3.3220    5.5750 ha        1 IK4      0.169000
     42 H17         6.4790    0.4330    8.8650 ha        1 IK4      0.127000
     43 H14         3.8570    4.4760    7.4810 ha        1 IK4      0.213000
     44 H12         6.4810    2.4710   10.2990 ha        1 IK4      0.143000
     45 H           4.2570    6.5910    8.8880 hn        1 IK4      0.468800
     46 HA          2.3720    6.8560   10.3180 h1        1 IK4      0.052700
     47 HB1C        1.1620    4.5540   10.6540 hc        1 IK4      0.074200
     48 HB2C        2.8160    3.8150   10.6910 hc        1 IK4      0.074200
     49 HG1C        3.4220    5.6850   12.4490 hc        1 IK4      0.075700
     50 HG2C        1.6280    5.9790   12.5520 hc        1 IK4      0.075700
     51 H2          4.0080    3.3840   12.7070 ho        1 IK4      0.467000
     52 H19         4.2670   -0.7690    4.7580 ha        1 IK4      0.140000
@<TRIPOS>BOND
     1    1    2 3   
     2    2    3 1   
     3    3    4 ar  
     4    3    6 ar  
     5    4    5 ar  
     6    4   34 1   
     7    5    8 ar  
     8    5   36 1   
     9    6    7 ar  
    10    6   35 1   
    11    7    8 ar  
    12    7   37 1   
    13    8    9 1   
    14    9   33 1   
    15    9   38 1   
    16    9   39 1   
    17   10   11 ar  
    18   10   13 ar  
    19   10   52 1   
    20   11   12 ar  
    21   11   33 1   
    22   12   15 ar  
    23   12   41 1   
    24   13   14 ar  
    25   13   40 1   
    26   14   15 ar  
    27   14   17 ar  
    28   15   16 ar  
    29   16   19 ar  
    30   16   43 1   
    31   17   18 ar  
    32   17   42 1   
    33   18   19 ar  
    34   18   44 1   
    35   19   20 1   
    36   20   21 2   
    37   20   22 2   
    38   20   23 1   
    39   23   24 1   
    40   23   45 1   
    41   24   25 1   
    42   24   28 1   
    43   24   46 1   
    44   25   26 1   
    45   25   27 1   
    46   28   29 1   
    47   28   47 1   
    48   28   48 1   
    49   29   30 1   
    50   29   49 1   
    51   29   50 1   
    52   30   31 2   
    53   30   32 1   
    54   32   51 1   
@<TRIPOS>SUBSTRUCTURE
     1 IK4         1 TEMP              0 ****  ****    0 ROOT
