@<TRIPOS>MOLECULE
IK4
   52    54     1     0     0
SMALL
bcc


@<TRIPOS>ATOM
      1 N31        -1.2740    0.0050   -2.2290 n1        1 IK4     -0.387800
      2 C30        -0.7200   -0.0010   -1.2380 cg        1 IK4      0.235800
      3 C27         0.0000    0.0000    0.0000 ca        1 IK4      0.028000
      4 C28         1.3960    0.0000    0.0000 ca        1 IK4     -0.075500
      5 C29         2.0820    0.0000    1.1970 ca        1 IK4     -0.075500
      6 C26        -0.6920    0.0070    1.2140 ca        1 IK4     -0.075500
      7 C25         0.0070    0.0080    2.4020 ca        1 IK4     -0.075500
      8 C24         1.3900    0.0010    2.3950 ca        1 IK4     -0.091300
      9 C23         2.1480    0.0010    3.6990 c3        1 IK4      0.263700
     10 C19         3.4880    0.4110    6.0040 ca        1 IK4     -0.270000
     11 C20         3.0640    1.5270    5.2740 ca        1 IK4      0.148100
     12 C21         3.3240    2.7930    5.7170 ca        1 IK4     -0.152000
     13 C18         4.1670    0.5580    7.1730 ca        1 IK4      0.014000
     14 C16         4.4510    1.8470    7.6580 ca        1 IK4     -0.058000
     15 C15         4.0230    2.9780    6.9200 ca        1 IK4      0.006000
     16 C14         4.3080    4.2660    7.4060 ca        1 IK4      0.026000
     17 C17         5.1510    2.0340    8.8610 ca        1 IK4     -0.065000
     18 C12         5.4090    3.2950    9.3010 ca        1 IK4     -0.037000
     19 C13         4.9890    4.4080    8.5760 ca        1 IK4     -0.207500
     20 S11         5.3440    6.0240    9.1830 sy        1 IK4      1.000200
     21 O33         6.4720    5.8930   10.0380 o         1 IK4     -0.521300
     22 O32         5.3200    6.8900    8.0550 o         1 IK4     -0.521300
     23 N           4.0760    6.4760   10.1460 ny        1 IK4     -0.547900
     24 CA          3.8030    5.7490   11.3880 c3        1 IK4      0.002500
     25 C           4.4650    6.4590   12.5410 c         1 IK4      0.986600
     26 O           4.3500    5.9680   13.7860 o         1 IK4     -0.815800
     27 OXT         5.0990    7.4680   12.3470 o         1 IK4     -0.815800
     28 CB          2.2930    5.6890   11.6240 c3        1 IK4     -0.043400
     29 CG          1.6360    4.8620   10.5180 c3        1 IK4     -0.156400
     30 CD          0.1480    4.8040   10.7500 c         1 IK4      0.978600
     31 OE1        -0.6390    4.1270    9.8990 o         1 IK4     -0.871800
     32 OE2        -0.3360    5.3670   11.7040 o         1 IK4     -0.871800
     33 O22         2.3880    1.3490    4.1090 os        1 IK4     -0.296900
     34 H28         1.9380    0.0780   -0.9350 ha        1 IK4      0.113500
     35 H26        -1.7730   -0.0650    1.2210 ha        1 IK4      0.113500
     36 H29         3.1660    0.0000    1.1990 ha        1 IK4      0.115500
     37 H25        -0.5280    0.0110    3.3440 ha        1 IK4      0.115500
     38 H231        3.0930   -0.5110    3.5670 h1        1 IK4      0.013200
     39 H232        1.5640   -0.5080    4.4560 h1        1 IK4      0.013200
     40 H18         4.4850   -0.3400    7.6890 ha        1 IK4      0.112000
     41 H21         3.0060    3.6070    5.0770 ha        1 IK4      0.128000
     42 H17         5.4840    1.1780    9.4360 ha        1 IK4      0.116000
     43 H14         3.9880    5.1400    6.8530 ha        1 IK4      0.124000
     44 H12         5.9560    3.4360   10.2260 ha        1 IK4      0.140000
     45 H           3.2480    6.4260    9.5860 hn        1 IK4      0.458800
     46 HA          4.1960    4.7430   11.3110 hx        1 IK4      0.043700
     47 HB1C        1.8860    6.6930   11.6150 hc        1 IK4      0.076700
     48 HB2C        2.0960    5.2290   12.5850 hc        1 IK4      0.076700
     49 HG1C        1.8340    5.3220    9.5570 hc        1 IK4     -0.018800
     50 HG2C        2.0420    3.8580   10.5280 hc        1 IK4     -0.018800
     51 H2          3.3230    6.1780    9.5570 hn        1 IK4      0.458800
     52 H19         2.4610    0.1860    6.2670 ha        1 IK4      0.159000
@<TRIPOS>BOND
     1    1    2 3   
     2    2    3 1   
     3    3    4 ar  
     4    3    6 ar  
     5    4    5 ar  
     6    4   34 1   
     7    5    8 ar  
     8    5   36 1   
     9    6    7 ar  
    10    6   35 1   
    11    7    8 ar  
    12    7   37 1   
    13    8    9 1   
    14    9   33 1   
    15    9   38 1   
    16    9   39 1   
    17   10   11 ar  
    18   10   13 ar  
    19   10   52 1   
    20   11   12 ar  
    21   11   33 1   
    22   12   15 ar  
    23   12   41 1   
    24   13   14 ar  
    25   13   40 1   
    26   14   15 ar  
    27   14   17 ar  
    28   15   16 ar  
    29   16   19 ar  
    30   16   43 1   
    31   17   18 ar  
    32   17   42 1   
    33   18   19 ar  
    34   18   44 1   
    35   19   20 1   
    36   20   21 2   
    37   20   22 2   
    38   20   23 1   
    39   23   24 1   
    40   23   45 1   
    41   23   51 1   
    42   24   25 1   
    43   24   28 1   
    44   24   46 1   
    45   25   26 1   
    46   25   27 1   
    47   28   29 1   
    48   28   47 1   
    49   28   48 1   
    50   29   30 1   
    51   29   49 1   
    52   29   50 1   
    53   30   31 1   
    54   30   32 1   
@<TRIPOS>SUBSTRUCTURE
     1 IK4         1 TEMP              0 ****  ****    0 ROOT
