@<TRIPOS>MOLECULE
IK4
   51    53     1     0     0
SMALL
bcc


@<TRIPOS>ATOM
      1 N31        -7.1990   -2.2750    3.3530 n1        1 IK4     -0.436800
      2 C30        -6.5520   -1.9090    2.4560 cg        1 IK4      0.269800
      3 C27        -5.7730   -1.4610    1.3560 ca        1 IK4     -0.055000
      4 C28        -6.3370   -0.5750    0.4250 ca        1 IK4     -0.108500
      5 C29        -5.5820   -0.1450   -0.6610 ca        1 IK4     -0.113500
      6 C26        -4.4500   -1.8950    1.1970 ca        1 IK4     -0.108500
      7 C25        -3.6950   -1.4600    0.1060 ca        1 IK4     -0.113500
      8 C24        -4.2660   -0.5910   -0.8300 ca        1 IK4     -0.080300
      9 C23        -3.4790   -0.1730   -2.0320 c3        1 IK4      0.144700
     10 C19        -2.0380    3.1750   -2.2330 ca        1 IK4     -0.133000
     11 C20        -2.1930    1.8360   -1.7720 ca        1 IK4      0.088100
     12 C21        -1.1970    1.2150   -1.0470 ca        1 IK4     -0.146000
     13 C18        -0.8600    3.8410   -2.0000 ca        1 IK4     -0.139000
     14 C16         0.2190    3.2000   -1.3350 ca        1 IK4     -0.029000
     15 C15         0.0420    1.8800   -0.8550 ca        1 IK4     -0.041000
     16 C14         1.1380    1.1950   -0.2490 ca        1 IK4      0.026000
     17 C17         1.4890    3.8200   -1.1690 ca        1 IK4     -0.164000
     18 C12         2.5310    3.1210   -0.6220 ca        1 IK4     -0.049000
     19 C13         2.3820    1.7750   -0.1810 ca        1 IK4     -0.341500
     20 S11         3.8370    0.9960    0.3010 sy        1 IK4      1.499200
     21 O33         4.5560    0.7250   -0.8950 o         1 IK4     -0.687300
     22 O32         4.5010    1.9350    1.1510 o         1 IK4     -0.687300
     23 N           3.4110   -0.2890    1.1000 n3        1 IK4     -0.917100
     24 CA          3.4500   -1.6690    0.6460 c3        1 IK4      0.102500
     25 C           4.3340   -2.5450    1.6130 c         1 IK4      0.912600
     26 O           4.3680   -2.2490    2.8400 o         1 IK4     -0.839800
     27 OXT         4.9570   -3.5070    1.0880 o         1 IK4     -0.839800
     28 CB          2.0670   -2.3320    0.5630 c3        1 IK4     -0.082400
     29 CG          1.3820   -2.1840   -0.7790 c3        1 IK4     -0.175400
     30 CD         -0.1230   -1.9780   -0.6730 c         1 IK4      0.890600
     31 OE1        -0.6410   -1.5430    0.4080 o         1 IK4     -0.878300
     32 OE2        -0.8650   -2.1790   -1.6860 o         1 IK4     -0.878300
     33 O22        -3.4050    1.2570   -2.1130 os        1 IK4     -0.352900
     34 H28        -7.3700   -0.2230    0.5560 ha        1 IK4      0.132000
     35 H26        -3.9940   -2.5730    1.9340 ha        1 IK4      0.132000
     36 H29        -6.0100    0.5590   -1.3890 ha        1 IK4      0.189500
     37 H25        -2.6270   -1.7820   -0.0110 ha        1 IK4      0.189500
     38 H231       -2.4640   -0.6730   -2.0490 h1        1 IK4      0.095200
     39 H232       -4.0460   -0.4550   -2.9640 h1        1 IK4      0.095200
     40 H18        -0.7270    4.8760   -2.3460 ha        1 IK4      0.112000
     41 H21        -1.3120    0.1900   -0.6310 ha        1 IK4      0.222000
     42 H17         1.6170    4.8580   -1.5050 ha        1 IK4      0.110000
     43 H14         0.9390    0.1680    0.1350 ha        1 IK4      0.207000
     44 H12         3.5220    3.5930   -0.5070 ha        1 IK4      0.136000
     45 H           3.2690   -0.2690    2.0900 hn        1 IK4      0.474800
     46 HA          3.9380   -1.6920   -0.3720 h1        1 IK4      0.059700
     47 HB1C        2.2160   -3.4260    0.7730 hc        1 IK4      0.061200
     48 HB2C        1.3970   -1.9350    1.3730 hc        1 IK4      0.061200
     49 HG1C        1.7950   -1.3050   -1.3410 hc        1 IK4      0.032200
     50 HG2C        1.5730   -3.0890   -1.4110 hc        1 IK4      0.032200
     51 H19        -2.8700    3.6480   -2.7720 ha        1 IK4      0.123000
@<TRIPOS>BOND
     1    1    2 3   
     2    2    3 1   
     3    3    4 ar  
     4    3    6 ar  
     5    4    5 ar  
     6    4   34 1   
     7    5    8 ar  
     8    5   36 1   
     9    6    7 ar  
    10    6   35 1   
    11    7    8 ar  
    12    7   37 1   
    13    8    9 1   
    14    9   33 1   
    15    9   38 1   
    16    9   39 1   
    17   10   11 ar  
    18   10   13 ar  
    19   10   51 1   
    20   11   12 ar  
    21   11   33 1   
    22   12   15 ar  
    23   12   41 1   
    24   13   14 ar  
    25   13   40 1   
    26   14   15 ar  
    27   14   17 ar  
    28   15   16 ar  
    29   16   19 ar  
    30   16   43 1   
    31   17   18 ar  
    32   17   42 1   
    33   18   19 ar  
    34   18   44 1   
    35   19   20 1   
    36   20   21 2   
    37   20   22 2   
    38   20   23 1   
    39   23   24 1   
    40   23   45 1   
    41   24   25 1   
    42   24   28 1   
    43   24   46 1   
    44   25   26 1   
    45   25   27 1   
    46   28   29 1   
    47   28   47 1   
    48   28   48 1   
    49   29   30 1   
    50   29   49 1   
    51   29   50 1   
    52   30   31 1   
    53   30   32 1   
@<TRIPOS>SUBSTRUCTURE
     1 IK4         1 TEMP              0 ****  ****    0 ROOT
