@<TRIPOS>MOLECULE
IK8
   59    63     1     0     0
SMALL
bcc


@<TRIPOS>ATOM
      1 F           1.9310   -1.3960   -2.9610 f         1 IK8     -0.144000
      2 F1          2.8620   -1.0020   -1.0320 f         1 IK8     -0.144000
      3 F2          4.0990   -1.3950   -2.7780 f         1 IK8     -0.144000
      4 OT1         1.5490    7.4720   -3.1710 os        1 IK8      0.130000
      5 O1          4.2340    4.9040   -2.2140 o         1 IK8     -0.219000
      6 N           2.1040    8.6090   -2.9770 n2        1 IK8     -0.207000
      7 N2          2.2250    2.7980   -2.6730 n3        1 IK8     -0.024000
      8 N3          1.9370    1.5720   -2.3460 n2        1 IK8      0.193000
      9 N4          5.9230    3.4840   -2.9630 ns        1 IK8     -0.237000
     10 C           0.5070    7.2020   -2.3470 c2        1 IK8     -0.091000
     11 C1          0.3180    8.3360   -1.4580 c2        1 IK8     -0.125000
     12 C2          1.4130    9.2910   -1.9010 c2        1 IK8      0.012000
     13 C3         -0.2290    5.9340   -2.4850 c3        1 IK8      0.006000
     14 C4          0.6330    4.7900   -2.5470 c1        1 IK8     -0.019000
     15 C5          1.3700    3.8480   -2.6130 c1        1 IK8     -0.100000
     16 C6         -0.5780    8.5340   -0.4900 c2        1 IK8     -0.066000
     17 C7          3.0010    0.7590   -2.6870 c2        1 IK8     -0.367000
     18 C8          4.0780    1.4480   -3.3160 c1        1 IK8     -0.009000
     19 C9          3.5660    2.8790   -3.3900 c3        1 IK8     -0.139000
     20 C10         2.9740   -0.7300   -2.3720 c3        1 IK8      0.527000
     21 C13         4.5530    3.8660   -2.7880 c2        1 IK8      0.331000
     22 C14         6.9960    4.2460   -2.7330 c2        1 IK8      0.187000
     23 C15         8.4300    3.7750   -3.1420 c3        1 IK8      0.224000
     24 C16         8.8100    4.7810   -4.1230 c2        1 IK8     -0.662000
     25 C17         8.8760    6.2210   -3.6740 c3        1 IK8      0.140000
     26 C18         7.8160    6.5390   -2.6550 c2        1 IK8     -0.035000
     27 C19         6.9520    5.6020   -2.2190 c2        1 IK8     -0.217000
     28 N5          8.7600    6.9680   -4.9200 na        1 IK8     -0.149000
     29 C21         8.5470    8.2450   -5.3970 c2        1 IK8     -0.101000
     30 C22         8.3920    8.1040   -6.8020 c2        1 IK8     -0.174000
     31 N6          8.4800    6.7680   -7.1870 n2        1 IK8     -0.094000
     32 C25         8.6870    6.0900   -6.0390 c2        1 IK8     -0.153000
     33 F3          8.4450    2.4710   -3.6000 f         1 IK8     -0.157000
     34 C11         8.8450    4.6560   -5.5880 c3        1 IK8      0.173000
     35 N7         10.2110    4.1380   -6.1160 nx        1 IK8     -0.019000
     36 C20        10.1420    3.8390   -7.5650 c3        1 IK8     -0.192000
     37 C23        10.6870    2.9540   -5.3700 c3        1 IK8     -0.192000
     38 HN11        8.2240    8.8960   -7.5340 h4        1 IK8      0.200000
     39 HN12        2.3460   10.9960   -1.7420 hn        1 IK8      0.167000
     40 HN4         6.0680    2.5270   -3.2820 hn        1 IK8      0.310000
     41 H3         -0.9290    5.8270   -1.6030 hc        1 IK8      0.150000
     42 H4         -0.8640    5.9730   -3.4220 hc        1 IK8      0.150000
     43 H6         -1.3440    7.7870   -0.2350 ha        1 IK8      0.145000
     44 H8          3.3740    3.1730   -4.4680 h1        1 IK8      0.213000
     45 H16         9.0520    3.8250   -2.1960 h1        1 IK8      0.125000
     46 H18         9.8740    6.4620   -3.1910 h1        1 IK8      0.134000
     47 H19         6.1700    5.8440   -1.4730 ha        1 IK8      0.198000
     48 H21        -0.5910    9.4630    0.1020 ha        1 IK8      0.145000
     49 H22         8.5330    9.1340   -4.7660 h4        1 IK8      0.196000
     50 H111        8.0850    3.9550   -6.0260 hx        1 IK8      0.134000
     51 H112        7.7870    7.5700   -2.2630 ha        1 IK8      0.168000
     52 H201        9.8160    4.7530   -8.1310 hx        1 IK8      0.134333
     53 H202        9.4050    3.0120   -7.7420 hx        1 IK8      0.134333
     54 H203       11.1540    3.5180   -7.9300 hx        1 IK8      0.134333
     55 H231       10.8890    4.8960   -5.9720 hn        1 IK8      0.233000
     56 H232        9.9520    2.1150   -5.4900 hx        1 IK8      0.134333
     57 H233       10.7680    3.2120   -4.2800 hx        1 IK8      0.134333
     58 H71        11.6900    2.6400   -5.7630 hx        1 IK8      0.134333
     59 N1          1.6030   10.4460   -1.3640 n2        1 IK8     -0.218000
@<TRIPOS>BOND
     1    1   20 1   
     2    2   20 1   
     3    3   20 1   
     4    4    6 1   
     5    4   10 1   
     6    5   21 1   
     7    6   12 1   
     8    7    8 1   
     9    7   15 1   
    10    7   19 1   
    11    8   17 1   
    12    9   21 1   
    13    9   22 1   
    14    9   40 1   
    15   10   11 1   
    16   10   13 1   
    17   11   12 1   
    18   11   16 1   
    19   12   59 1   
    20   13   14 1   
    21   13   41 1   
    22   13   42 1   
    23   14   15 1   
    24   16   43 1   
    25   16   48 1   
    26   17   18 1   
    27   17   20 1   
    28   18   19 1   
    29   19   21 1   
    30   19   44 1   
    31   22   23 1   
    32   22   27 1   
    33   23   24 1   
    34   23   33 1   
    35   23   45 1   
    36   24   25 1   
    37   24   34 1   
    38   25   26 1   
    39   25   28 1   
    40   25   46 1   
    41   26   27 1   
    42   26   51 1   
    43   27   47 1   
    44   28   29 1   
    45   28   32 1   
    46   29   30 1   
    47   29   49 1   
    48   30   31 1   
    49   30   38 1   
    50   31   32 1   
    51   32   34 1   
    52   34   35 1   
    53   34   50 1   
    54   35   36 1   
    55   35   37 1   
    56   35   55 1   
    57   36   52 1   
    58   36   53 1   
    59   36   54 1   
    60   37   56 1   
    61   37   57 1   
    62   37   58 1   
    63   39   59 1   
@<TRIPOS>SUBSTRUCTURE
     1 IK8         1 TEMP              0 ****  ****    0 ROOT
