@<TRIPOS>MOLECULE
IK8
   58    62     1     0     0
SMALL
bcc


@<TRIPOS>ATOM
      1 F           6.2480   -2.8360    1.0900 f         1 IK8     -0.226300
      2 F1          6.5140   -2.7110   -1.0630 f         1 IK8     -0.226300
      3 F2          5.1220   -4.1510   -0.2220 f         1 IK8     -0.226300
      4 OT1         2.7430    5.6000    0.2640 os        1 IK8     -0.001600
      5 O1          0.6140    0.4680   -1.1950 o         1 IK8     -0.571100
      6 N           1.6740    5.6670    1.0590 nc        1 IK8     -0.456200
      7 N2          3.4500    0.0940   -0.1970 na        1 IK8      0.221300
      8 N3          4.6420   -0.4900   -0.0770 nc        1 IK8     -0.420800
      9 N4          0.1160   -1.5090   -0.0900 n         1 IK8     -0.459100
     10 C           3.0710    4.2580    0.0240 ca        1 IK8      0.080100
     11 C1          2.1510    3.4330    0.7320 ca        1 IK8     -0.231900
     12 C2          1.2610    4.4160    1.3960 cd        1 IK8      0.559800
     13 C3          4.0990    3.7390   -0.7540 ca        1 IK8     -0.118000
     14 C4          4.1980    2.3520   -0.8180 ca        1 IK8     -0.063000
     15 C5          3.2910    1.5170   -0.1150 ca        1 IK8     -0.031200
     16 C6          2.2570    2.0530    0.6780 ca        1 IK8     -0.029000
     17 C7          4.4350   -1.8390   -0.1730 cd        1 IK8      0.201600
     18 C8          3.0370   -2.1240   -0.3540 cd        1 IK8     -0.203300
     19 C9          2.4200   -0.8590   -0.3670 cc        1 IK8     -0.171900
     20 C10         5.5540   -2.8540   -0.0930 c3        1 IK8      0.634600
     21 C13         0.9870   -0.5520   -0.5910 c         1 IK8      0.708700
     22 C14        -1.2840   -1.4960   -0.1960 ca        1 IK8      0.029600
     23 C15        -2.0500   -2.3720    0.6350 ca        1 IK8      0.086900
     24 C16        -3.4460   -2.4100    0.5500 ca        1 IK8     -0.150000
     25 C17        -4.1250   -1.5810   -0.3650 ca        1 IK8      0.030800
     26 C18        -3.3730   -0.7200   -1.1860 ca        1 IK8     -0.106000
     27 C19        -1.9870   -0.6790   -1.1000 ca        1 IK8     -0.123000
     28 N5         -5.5280   -1.6560   -0.4620 na        1 IK8     -0.129000
     29 C21        -6.2490   -2.8600   -0.4740 cc        1 IK8     -0.251600
     30 C22        -7.6040   -2.5070   -0.5560 cd        1 IK8      0.298200
     31 N6         -7.7390   -1.1220   -0.5800 nd        1 IK8     -0.665000
     32 C25        -6.4830   -0.6130   -0.5210 cc        1 IK8      0.412800
     33 F3         -1.4290   -3.1920    1.5220 f         1 IK8     -0.141900
     34 C11        -6.1560    0.8560   -0.5340 c3        1 IK8      0.141500
     35 N7         -5.2940    1.2550    0.5710 n3        1 IK8     -0.742600
     36 C20        -4.7230    2.5680    0.3630 c3        1 IK8      0.153600
     37 C23        -5.9310    1.1210    1.8630 c3        1 IK8      0.153600
     38 HN11       -0.3720    4.8050    2.5310 hn        1 IK8      0.412300
     39 HN12       -0.1960    3.2100    2.0530 hn        1 IK8      0.412300
     40 HN4         0.5020   -2.2550    0.4490 hn        1 IK8      0.336500
     41 H3          4.8000    4.3910   -1.2940 ha        1 IK8      0.169000
     42 H4          5.0020    1.9060   -1.4260 ha        1 IK8      0.165000
     43 H6          1.5500    1.4080    1.2200 ha        1 IK8      0.153000
     44 H8          2.5870   -3.1050   -0.4720 ha        1 IK8      0.188000
     45 H16        -3.9980   -3.0960    1.2140 ha        1 IK8      0.163000
     46 H18        -3.8770   -0.0610   -1.9110 ha        1 IK8      0.152000
     47 H19        -1.4380    0.0130   -1.7630 ha        1 IK8      0.179000
     48 H21        -5.7550   -3.8290   -0.4400 h4        1 IK8      0.181000
     49 H22        -8.4740   -3.1620   -0.5980 h4        1 IK8      0.046100
     50 H111       -5.6270    1.0870   -1.5040 h1        1 IK8      0.059200
     51 H112       -7.1320    1.4280   -0.5330 h1        1 IK8      0.059200
     52 H201       -5.4940    3.3840    0.2970 h1        1 IK8      0.035700
     53 H202       -4.0350    2.7980    1.2180 h1        1 IK8      0.035700
     54 H203       -4.1260    2.5620   -0.5870 h1        1 IK8      0.035700
     55 H231       -6.3400    0.0820    1.9650 h1        1 IK8      0.035700
     56 H232       -5.1610    1.2890    2.6600 h1        1 IK8      0.035700
     57 H233       -6.7720    1.8520    2.0180 h1        1 IK8      0.035700
     58 N1          0.2540    4.0690    2.2830 nh        1 IK8     -0.858800
@<TRIPOS>BOND
     1    1   20 1   
     2    2   20 1   
     3    3   20 1   
     4    4    6 1   
     5    4   10 1   
     6    5   21 2   
     7    6   12 2   
     8    7    8 1   
     9    7   15 1   
    10    7   19 1   
    11    8   17 2   
    12    9   21 1   
    13    9   22 1   
    14    9   40 1   
    15   10   11 ar  
    16   10   13 ar  
    17   11   12 1   
    18   11   16 ar  
    19   12   58 1   
    20   13   14 ar  
    21   13   41 1   
    22   14   15 ar  
    23   14   42 1   
    24   15   16 ar  
    25   16   43 1   
    26   17   18 1   
    27   17   20 1   
    28   18   19 2   
    29   18   44 1   
    30   19   21 1   
    31   22   23 ar  
    32   22   27 ar  
    33   23   24 ar  
    34   23   33 1   
    35   24   25 ar  
    36   24   45 1   
    37   25   26 ar  
    38   25   28 1   
    39   26   27 ar  
    40   26   46 1   
    41   27   47 1   
    42   28   29 1   
    43   28   32 1   
    44   29   30 2   
    45   29   48 1   
    46   30   31 1   
    47   30   49 1   
    48   31   32 2   
    49   32   34 1   
    50   34   35 1   
    51   34   50 1   
    52   34   51 1   
    53   35   36 1   
    54   35   37 1   
    55   36   52 1   
    56   36   53 1   
    57   36   54 1   
    58   37   55 1   
    59   37   56 1   
    60   37   57 1   
    61   38   58 1   
    62   39   58 1   
@<TRIPOS>SUBSTRUCTURE
     1 IK8         1 TEMP              0 ****  ****    0 ROOT
