@<TRIPOS>MOLECULE
IK8
   61    63     1     0     0
SMALL
bcc


@<TRIPOS>ATOM
      1 F         194.5830 -129.1670   90.7480 f         1 IK8     -0.114667
      2 F1        193.5320 -128.7090   92.6160 f         1 IK8     -0.114667
      3 F2        192.7750 -127.9290   90.7160 f         1 IK8     -0.114667
      4 OT1      -662.6240  509.4870 -351.9130 os        1 IK8     -0.039000
      5 O1        189.1960 -133.3660   91.4090 o         1 IK8     -0.274000
      6 N        -661.6540  508.7740 -352.3620 n2        1 IK8      0.167000
      7 N2        192.0150 -132.4140   91.4010 n3        1 IK8      0.117000
      8 N3        192.8930 -131.5330   91.6730 n2        1 IK8      0.135000
      9 N4        188.6580 -131.1160   91.5250 n         1 IK8     -0.265000
     10 C        -663.4120  510.0770 -353.0100 c2        1 IK8     -0.005000
     11 C1       -662.7620  509.6070 -354.2470 c2        1 IK8     -0.399000
     12 C2       -661.6460  508.7790 -353.7100 c2        1 IK8     -0.190000
     13 C3       -664.4530  510.8430 -352.7070 c2        1 IK8     -0.119000
     14 C4        193.0600 -134.5180   92.3140 c1        1 IK8      0.555000
     15 C5        192.0920 -133.7670   91.7410 c2        1 IK8     -0.479000
     16 C6       -663.1170  509.8800 -355.5010 c1        1 IK8      0.377000
     17 C7        192.4680 -130.2800   91.1200 c2        1 IK8     -0.189000
     18 C8        191.2660 -130.4030   90.4660 c2        1 IK8     -0.065000
     19 C9        190.8530 -131.8560   90.5800 c3        1 IK8     -0.096000
     20 C10       193.3440 -129.0270   91.3020 c3        1 IK8      0.521000
     21 C13       189.4850 -132.1770   91.2180 c2        1 IK8      0.328000
     22 C14       187.4580 -131.2570   92.2040 c2        1 IK8      0.015000
     23 C15       186.3790 -130.1300   92.1700 c3        1 IK8      0.049000
     24 C16       185.0720 -130.7730   91.8230 c1        1 IK8      0.011000
     25 C17       184.6590 -132.0750   92.4420 c3        1 IK8     -0.027000
     26 C18       185.7790 -132.7100   93.2700 c2        1 IK8     -0.117000
     27 C19       186.9650 -132.2850   92.9000 c1        1 IK8     -0.140000
     28 N5        184.0100 -132.9580   91.4990 n3        1 IK8     -0.190000
     29 C21       184.4090 -134.3710   91.2780 c3        1 IK8     -0.192000
     30 C22       183.4360 -134.8630   90.1970 c1        1 IK8      0.153000
     31 N6        182.6370 -133.7930   89.9240 n3        1 IK8     -0.224000
     32 C25       182.9640 -132.6540   90.6920 c2        1 IK8      0.213000
     33 F3        186.7140 -129.1070   91.3070 f         1 IK8     -0.107000
     34 C11       182.2440 -131.3090   90.6330 c3        1 IK8     -0.037000
     35 N7        181.2270 -131.2960   89.6180 n3        1 IK8     -0.307000
     36 C20       179.8710 -131.2680   90.1240 c3        1 IK8     -0.123500
     37 C23       181.4760 -130.3740   88.5310 c3        1 IK8     -0.123500
     38 HN11     -660.0040  507.5670 -353.9690 hn        1 IK8      0.278000
     39 HN12     -661.1950  507.4100 -355.1430 hn        1 IK8      0.278000
     40 HN4       188.9050 -130.1840   91.2590 hn        1 IK8      0.272000
     41 H3       -665.0790  511.3110 -353.4820 ha        1 IK8      0.177000
     42 H4       -664.7370  511.0440 -351.6610 ha        1 IK8      0.177000
     43 H6        191.1550 -134.3570   91.5050 h4        1 IK8      0.268000
     44 H8        190.8800 -132.3650   89.5610 h1        1 IK8      0.240000
     45 H16       186.2580 -129.6860   93.2160 h1        1 IK8      0.187000
     46 H18       183.8690 -131.7510   93.2150 h1        1 IK8      0.187000
     47 H19       185.5240 -133.3060   94.1540 ha        1 IK8      0.205000
     48 H21       185.4750 -134.4440   90.9280 h1        1 IK8      0.189500
     49 H22       184.2940 -134.9740   92.2240 h1        1 IK8      0.189500
     50 H111      181.8870 -133.7810   89.2580 hn        1 IK8      0.329000
     51 H112      183.0520 -130.5290   90.4590 h1        1 IK8      0.154000
     52 H201      181.8240 -131.1430   91.6720 h1        1 IK8      0.154000
     53 H202      179.7240 -132.1120   90.8470 h1        1 IK8      0.097833
     54 H203      179.1680 -131.4070   89.2600 h1        1 IK8      0.097833
     55 H231      181.4140 -129.2990   88.8510 h1        1 IK8      0.097833
     56 H232      182.4930 -130.5690   88.1020 h1        1 IK8      0.097833
     57 H233      180.7070 -130.5560   87.7320 h1        1 IK8      0.097833
     58 H42       190.7080 -129.6400   89.9120 ha        1 IK8      0.237000
     59 H71       179.6190 -130.3000   90.6380 h1        1 IK8      0.097833
     60 H13      -660.1930  508.7650 -355.1310 hn        1 IK8      0.278000
     61 N1       -660.6910  508.0800 -354.5450 n4        1 IK8      0.020000
@<TRIPOS>BOND
     1    1   20 1   
     2    2   20 1   
     3    3   20 1   
     4    4    6 1   
     5    4   10 1   
     6    5   21 1   
     7    6   12 1   
     8    7    8 1   
     9    7   15 1   
    10    7   19 1   
    11    8   17 1   
    12    9   21 1   
    13    9   22 1   
    14    9   40 1   
    15   10   11 1   
    16   10   13 1   
    17   11   12 1   
    18   11   16 1   
    19   12   61 1   
    20   13   41 1   
    21   13   42 1   
    22   14   15 1   
    23   15   43 1   
    24   17   18 1   
    25   17   20 1   
    26   18   19 1   
    27   18   58 1   
    28   19   21 1   
    29   19   44 1   
    30   22   23 1   
    31   22   27 1   
    32   23   24 1   
    33   23   33 1   
    34   23   45 1   
    35   24   25 1   
    36   25   26 1   
    37   25   28 1   
    38   25   46 1   
    39   26   27 1   
    40   26   47 1   
    41   28   29 1   
    42   28   32 1   
    43   29   30 1   
    44   29   48 1   
    45   29   49 1   
    46   30   31 1   
    47   31   32 1   
    48   31   50 1   
    49   32   34 1   
    50   34   35 1   
    51   34   51 1   
    52   34   52 1   
    53   35   36 1   
    54   35   37 1   
    55   36   53 1   
    56   36   54 1   
    57   36   59 1   
    58   37   55 1   
    59   37   56 1   
    60   37   57 1   
    61   38   61 1   
    62   39   61 1   
    63   60   61 1   
@<TRIPOS>SUBSTRUCTURE
     1 IK8         1 TEMP              0 ****  ****    0 ROOT
