@<TRIPOS>MOLECULE
IK8
   58    49     1     0     0
SMALL
bcc


@<TRIPOS>ATOM
      1 F          -6.0440   -5.2890    3.0600 f         1 IK8     -0.155667
      2 F1         -4.2970   -5.2720    4.3760 f         1 IK8     -0.155667
      3 F2         -4.2120   -6.3300    2.4670 f         1 IK8     -0.155667
      4 OT1        -5.8810    2.5280   -1.0690 os        1 IK8     -0.055000
      5 O1         -1.7040   -0.6830    0.4800 o         1 IK8     -0.342000
      6 N          -6.1060    2.0830   -2.3700 n2        1 IK8     -0.077000
      7 N1         -6.1660    0.2520   -3.6930 n3        1 IK8     -0.306000
      8 N2         -4.1430   -2.0890    1.3220 n3        1 IK8     -0.024000
      9 N3         -4.9730   -3.0310    1.8780 n2        1 IK8      0.010000
     10 N4         -0.3000   -2.2660    1.3740 n3        1 IK8     -0.305000
     11 C          -5.5030    1.4470   -0.3100 c1        1 IK8      0.040000
     12 C1         -5.4910    0.3460   -1.1190 c1        1 IK8     -0.041500
     13 C2         -5.8690    0.7520   -2.4030 c1        1 IK8      0.047000
     14 C3         -5.0270    1.3540    1.0130 c1        1 IK8     -0.125000
     15 C4         -4.5470    0.1450    1.4940 c1        1 IK8     -0.066000
     16 C5         -4.5350   -0.9720    0.6740 c1        1 IK8     -0.008000
     17 C6         -5.0040   -0.8810   -0.6310 c1        1 IK8     -0.075000
     18 C7         -4.2030   -3.9960    2.4250 c1        1 IK8     -0.221000
     19 C8         -2.8940   -3.6620    2.2140 c1        1 IK8     -0.143000
     20 C9         -2.8650   -2.4810    1.5320 c1        1 IK8     -0.124000
     21 C10        -4.7030   -5.2590    3.1020 c2        1 IK8      0.515000
     22 C13        -1.6020   -1.7270    1.0810 c1        1 IK8      0.389000
     23 C14         0.8920   -1.5550    0.9490 c2        1 IK8      0.036000
     24 C15         1.3280   -0.4440    1.6600 c2        1 IK8      0.052000
     25 C16         2.5060    0.2050    1.2870 c1        1 IK8     -0.127000
     26 C17         3.2420   -0.2580    0.2060 c1        1 IK8     -0.041500
     27 C18         2.8040   -1.3730   -0.5080 c1        1 IK8     -0.075000
     28 C19         1.6300   -2.0200   -0.1360 c1        1 IK8     -0.119000
     29 N5          4.4570    0.2970   -0.0780 n2        1 IK8     -0.125000
     30 C21         5.6490   -0.2810    0.1120 c1        1 IK8     -0.165000
     31 C22         6.6110    0.5690   -0.3630 c1        1 IK8     -0.165000
     32 N6          5.9990    1.6610   -0.8420 n2        1 IK8     -0.125000
     33 C25         4.6650    1.5020   -0.6700 c1        1 IK8     -0.033000
     34 F3          0.6670   -0.0510    2.7520 f         1 IK8     -0.109000
     35 C11         4.3700    2.9010   -1.1770 c2        1 IK8     -0.001000
     36 N7          5.5290    3.4240   -1.8470 n3        1 IK8     -0.269000
     37 C20         5.1180    4.3760   -2.8470 c3        1 IK8     -0.123000
     38 C23         6.3880    4.0770   -0.8880 c3        1 IK8     -0.123000
     39 HN11       -6.4810    0.8150   -4.3390 hn        1 IK8      0.214500
     40 HN12       -6.0650   -0.6380   -3.8720 hn        1 IK8      0.214500
     41 HN4        -0.2250   -3.0740    1.7950 hn        1 IK8      0.252000
     42 H3         -5.0360    2.1420    1.5910 ha        1 IK8      0.169000
     43 H4         -4.2330    0.0770    2.4140 ha        1 IK8      0.162000
     44 H6         -5.0540   -1.6830   -1.1880 ha        1 IK8      0.167000
     45 H8         -2.1150   -4.1790    2.5030 DU        1 IK8      0.184333
     46 H16         2.8130    0.9880    1.7880 ha        1 IK8      0.162000
     47 H18         3.3210   -1.6990   -1.2680 ha        1 IK8      0.167000
     48 H19         1.3240   -2.8030   -0.6370 ha        1 IK8      0.180000
     49 H21         5.8050   -1.1570    0.5200 DU        1 IK8      0.184333
     50 H22         7.5770    0.4070   -0.3550 DU        1 IK8      0.184333
     51 H111        4.1420    3.4790   -0.4230 h4        1 IK8      0.098500
     52 H112        3.6180    2.8690   -1.8030 h4        1 IK8      0.098500
     53 H201        4.4870    5.0140   -2.4510 h1        1 IK8      0.075333
     54 H202        5.9050    4.8600   -3.1820 h1        1 IK8      0.075333
     55 H203        4.6820    3.9040   -3.5900 h1        1 IK8      0.075333
     56 H231        5.8460    4.6440   -0.2950 h1        1 IK8      0.075333
     57 H232        6.8580    3.3980   -0.3520 h1        1 IK8      0.075333
     58 H233        7.0460    4.6340   -1.3620 h1        1 IK8      0.075333
@<TRIPOS>BOND
     1    1   21 1   
     2    2   21 1   
     3    3   21 1   
     4    4    6 1   
     5    4   11 1   
     6    5   22 1   
     7    6   13 1   
     8    7   13 1   
     9    7   39 1   
    10    7   40 1   
    11    8    9 1   
    12    8   16 1   
    13    8   20 1   
    14    9   18 1   
    15   10   22 1   
    16   10   23 1   
    17   10   41 1   
    18   11   14 1   
    19   12   17 1   
    20   14   42 1   
    21   15   16 1   
    22   15   43 1   
    23   17   44 1   
    24   18   19 1   
    25   19   20 1   
    26   23   24 1   
    27   23   28 1   
    28   24   25 1   
    29   24   34 1   
    30   25   46 1   
    31   26   27 1   
    32   27   47 1   
    33   28   48 1   
    34   29   30 1   
    35   29   33 1   
    36   30   31 1   
    37   31   32 1   
    38   32   33 1   
    39   35   36 1   
    40   35   51 1   
    41   35   52 1   
    42   36   37 1   
    43   36   38 1   
    44   37   53 1   
    45   37   54 1   
    46   37   55 1   
    47   38   56 1   
    48   38   57 1   
    49   38   58 1   
@<TRIPOS>SUBSTRUCTURE
     1 IK8         1 TEMP              0 ****  ****    0 ROOT
