@<TRIPOS>MOLECULE
IK9
   46    50     1     0     0
SMALL
bcc


@<TRIPOS>ATOM
      1 F1         -0.0690    0.0170   -0.1930 f         1 IK9     -0.133900
      2 C2          1.2850    0.0070   -0.1730 ca        1 IK9      0.210900
      3 C4          1.9510   -0.0150    1.0630 ca        1 IK9     -0.278300
      4 C5          3.3540   -0.0340    1.0780 ca        1 IK9      0.499600
      5 C24         4.0860   -0.0240   -0.1500 ca        1 IK9     -0.264300
      6 C25         3.4010    0.0120   -1.4030 ca        1 IK9      0.286600
      7 N26         4.0790    0.0870   -2.5990 nu        1 IK9     -0.741600
      8 C27         3.3910   -0.0690   -3.8540 c3        1 IK9      0.203800
      9 C28         4.3410   -0.0330   -5.0590 c3        1 IK9      0.117400
     10 O29         5.1630   -1.1850   -4.9830 oh        1 IK9     -0.603800
     11 C3          1.9820    0.0140   -1.3850 ca        1 IK9     -0.283000
     12 C23         5.5360   -0.0110   -0.0340 cc        1 IK9      0.138700
     13 N22         6.4740    0.2960   -0.9220 nd        1 IK9     -0.466300
     14 C20         7.7480    0.2420   -0.2070 cd        1 IK9      0.609800
     15 N21         8.9470    0.4620   -0.6310 n2        1 IK9     -0.776100
     16 N19         7.4760   -0.0820    1.2400 na        1 IK9     -0.203500
     17 N18         6.1080   -0.3600    1.2640 na        1 IK9     -0.302200
     18 C7          5.2950   -0.1400    2.4160 cc        1 IK9      0.593800
     19 N6          3.9890   -0.0450    2.3320 nd        1 IK9     -0.704000
     20 C8          6.0100   -0.1180    3.7560 c3        1 IK9     -0.080400
     21 C9          5.0930   -0.0510    4.9260 ca        1 IK9     -0.077300
     22 C17         4.5900   -1.2270    5.4860 ca        1 IK9     -0.111000
     23 C16         3.7430   -1.2200    6.6080 ca        1 IK9     -0.113000
     24 C15         3.4320    0.0180    7.1310 ca        1 IK9      0.062100
     25 C11         3.9390    1.2180    6.5650 ca        1 IK9      0.055100
     26 C10         4.7690    1.2150    5.4640 ca        1 IK9     -0.094000
     27 O14         2.6310    0.3290    8.2240 os        1 IK9     -0.333900
     28 C13         2.6280    1.7710    8.3440 c3        1 IK9      0.321200
     29 O12         3.4660    2.3050    7.2930 os        1 IK9     -0.333900
     30 H4          1.3720   -0.0180    1.9980 ha        1 IK9      0.172000
     31 H3          1.4020    0.0220   -2.3190 ha        1 IK9      0.154000
     32 H26         5.0490   -0.1480   -2.6160 hn        1 IK9      0.462800
     33 H271        2.6550    0.7780   -3.9760 h1        1 IK9      0.053200
     34 H272        2.8210   -1.0430   -3.8790 h1        1 IK9      0.053200
     35 H281        3.7250   -0.0620   -5.9980 h1        1 IK9      0.038700
     36 H282        4.9690    0.8970   -5.0570 h1        1 IK9      0.038700
     37 H29         5.8030   -1.1200   -5.7010 ho        1 IK9      0.409000
     38 H21         9.0160    0.7270   -1.5910 hn        1 IK9      0.418400
     39 H19         7.9680   -0.9340    1.4920 hn        1 IK9      0.239700
     40 H81C        6.6980    0.7730    3.7580 hc        1 IK9      0.081700
     41 H82C        6.6460   -1.0440    3.8310 hc        1 IK9      0.081700
     42 H17         4.8560   -2.1970    5.0380 ha        1 IK9      0.138000
     43 H10         5.1540    2.1440    5.0240 ha        1 IK9      0.157000
     44 H16         3.3520   -2.1500    7.0390 ha        1 IK9      0.156000
     45 H131        3.0740    2.0470    9.3310 h2        1 IK9      0.073200
     46 H132        1.5840    2.1390    8.1910 h2        1 IK9      0.073200
@<TRIPOS>BOND
     1    1    2 1   
     2    2    3 ar  
     3    2   11 ar  
     4    3    4 ar  
     5    3   30 1   
     6    4    5 ar  
     7    4   19 1   
     8    5    6 ar  
     9    5   12 1   
    10    6    7 1   
    11    6   11 ar  
    12    7    8 1   
    13    7   32 1   
    14    8    9 1   
    15    8   33 1   
    16    8   34 1   
    17    9   10 1   
    18    9   35 1   
    19    9   36 1   
    20   10   37 1   
    21   11   31 1   
    22   12   13 2   
    23   12   17 1   
    24   13   14 1   
    25   14   15 2   
    26   14   16 1   
    27   15   38 1   
    28   16   17 1   
    29   16   39 1   
    30   17   18 1   
    31   18   19 2   
    32   18   20 1   
    33   20   21 1   
    34   20   40 1   
    35   20   41 1   
    36   21   22 ar  
    37   21   26 ar  
    38   22   23 ar  
    39   22   42 1   
    40   23   24 ar  
    41   23   44 1   
    42   24   25 ar  
    43   24   27 1   
    44   25   26 ar  
    45   25   29 1   
    46   26   43 1   
    47   27   28 1   
    48   28   29 1   
    49   28   45 1   
    50   28   46 1   
@<TRIPOS>SUBSTRUCTURE
     1 IK9         1 TEMP              0 ****  ****    0 ROOT
