@<TRIPOS>MOLECULE
IK9
   47    51     1     0     0
SMALL
bcc


@<TRIPOS>ATOM
      1 F1         -0.0550    0.0590   -0.1890 f         1 IK9     -0.095900
      2 C2          1.2930    0.0330   -0.1440 ca        1 IK9      0.187900
      3 C4          1.9550   -0.0160    1.0810 ca        1 IK9     -0.183300
      4 C5          3.3730   -0.0430    1.1110 ca        1 IK9      0.509600
      5 C24         4.0970   -0.0260   -0.1180 ca        1 IK9     -0.198300
      6 C25         3.3960    0.0270   -1.3510 ca        1 IK9      0.051600
      7 N26         4.1650    0.0480   -2.6000 n4        1 IK9     -0.628400
      8 C27         3.3560    0.0260   -3.8540 c3        1 IK9      0.099800
      9 C28         4.2500   -0.0330   -5.1010 c3        1 IK9      0.109400
     10 O29         5.0910   -1.1600   -4.9450 oh        1 IK9     -0.625800
     11 C3          2.0070    0.0550   -1.3710 ca        1 IK9     -0.169000
     12 C23         5.5510   -0.0290   -0.0120 cc        1 IK9      0.106700
     13 N22         6.4750    0.1680   -0.9430 nd        1 IK9     -0.504300
     14 C20         7.7660    0.1520   -0.2420 cd        1 IK9      0.607800
     15 N21         8.9600    0.3060   -0.6950 n2        1 IK9     -0.725100
     16 N19         7.5020   -0.0230    1.2350 na        1 IK9     -0.167500
     17 N18         6.1270   -0.2520    1.2940 na        1 IK9     -0.294200
     18 C7          5.3170   -0.1190    2.4470 cc        1 IK9      0.646800
     19 N6          4.0000   -0.0680    2.3550 nd        1 IK9     -0.705000
     20 C8          6.0270   -0.1060    3.7910 c3        1 IK9     -0.080400
     21 C9          5.1020   -0.0560    4.9540 ca        1 IK9     -0.105300
     22 C17         4.6910   -1.2410    5.5670 ca        1 IK9     -0.106000
     23 C16         3.8430   -1.2460    6.6890 ca        1 IK9     -0.113000
     24 C15         3.4360   -0.0120    7.1540 ca        1 IK9      0.079100
     25 C11         3.8530    1.1970    6.5320 ca        1 IK9      0.060100
     26 C10         4.6850    1.2060    5.4340 ca        1 IK9     -0.097000
     27 O14         2.6120    0.2860    8.2290 os        1 IK9     -0.323900
     28 C13         2.5150    1.7300    8.2980 c3        1 IK9      0.320200
     29 O12         3.2960    2.2760    7.2070 os        1 IK9     -0.329900
     30 H4          1.3790   -0.0310    2.0250 ha        1 IK9      0.206000
     31 H3          1.4130    0.0940   -2.2980 ha        1 IK9      0.175000
     32 H26         4.7950   -0.7760   -2.6190 hn        1 IK9      0.481300
     33 H271        2.6980   -0.8910   -3.8280 hx        1 IK9      0.113700
     34 H272        2.7190    0.9530   -3.8980 hx        1 IK9      0.113700
     35 H281        4.8740    0.8960   -5.2000 h1        1 IK9      0.073700
     36 H282        3.5820   -0.1330   -5.9990 h1        1 IK9      0.073700
     37 H29         5.4490   -1.3850   -5.8150 ho        1 IK9      0.452000
     38 H21         9.0460    0.4850   -1.6730 hn        1 IK9      0.433400
     39 H19         7.9820   -0.8540    1.5740 hn        1 IK9      0.255700
     40 H81C        6.7090    0.7920    3.8050 hc        1 IK9      0.094700
     41 H82C        6.6710   -1.0290    3.8530 hc        1 IK9      0.094700
     42 H17         5.0370   -2.2090    5.1730 ha        1 IK9      0.137000
     43 H10         5.0100    2.1410    4.9610 ha        1 IK9      0.156000
     44 H16         3.5290   -2.1820    7.1690 ha        1 IK9      0.166000
     45 H131        1.4460    2.0220    8.1510 h2        1 IK9      0.083200
     46 H132        2.9620    2.0720    9.2640 h2        1 IK9      0.083200
     47 H262        4.7600    0.8920   -2.6030 hn        1 IK9      0.481300
@<TRIPOS>BOND
     1    1    2 1   
     2    2    3 ar  
     3    2   11 ar  
     4    3    4 ar  
     5    3   30 1   
     6    4    5 ar  
     7    4   19 1   
     8    5    6 ar  
     9    5   12 1   
    10    6    7 1   
    11    6   11 ar  
    12    7    8 1   
    13    7   32 1   
    14    7   47 1   
    15    8    9 1   
    16    8   33 1   
    17    8   34 1   
    18    9   10 1   
    19    9   35 1   
    20    9   36 1   
    21   10   37 1   
    22   11   31 1   
    23   12   13 2   
    24   12   17 1   
    25   13   14 1   
    26   14   15 2   
    27   14   16 1   
    28   15   38 1   
    29   16   17 1   
    30   16   39 1   
    31   17   18 1   
    32   18   19 2   
    33   18   20 1   
    34   20   21 1   
    35   20   40 1   
    36   20   41 1   
    37   21   22 ar  
    38   21   26 ar  
    39   22   23 ar  
    40   22   42 1   
    41   23   24 ar  
    42   23   44 1   
    43   24   25 ar  
    44   24   27 1   
    45   25   26 ar  
    46   25   29 1   
    47   26   43 1   
    48   27   28 1   
    49   28   29 1   
    50   28   45 1   
    51   28   46 1   
@<TRIPOS>SUBSTRUCTURE
     1 IK9         1 TEMP              0 ****  ****    0 ROOT
