@<TRIPOS>MOLECULE
IK9
   46    50     1     0     0
SMALL
bcc


@<TRIPOS>ATOM
      1 F1         -0.0690    0.0270   -0.1930 f         1 IK9     -0.133900
      2 C2          1.2860    0.0130   -0.1730 ca        1 IK9      0.210900
      3 C4          1.9510   -0.0090    1.0620 ca        1 IK9     -0.278300
      4 C5          3.3540   -0.0310    1.0780 ca        1 IK9      0.499600
      5 C24         4.0860   -0.0240   -0.1500 ca        1 IK9     -0.264300
      6 C25         3.4010    0.0130   -1.4030 ca        1 IK9      0.286600
      7 N26         4.0800    0.0850   -2.5990 nh        1 IK9     -0.741600
      8 C27         3.3920   -0.0720   -3.8540 c3        1 IK9      0.203800
      9 C28         4.3420   -0.0410   -5.0590 c3        1 IK9      0.117400
     10 O29         5.1610   -1.1950   -4.9800 oh        1 IK9     -0.603800
     11 C3          1.9820    0.0170   -1.3850 ca        1 IK9     -0.283000
     12 C23         5.5360   -0.0140   -0.0340 cc        1 IK9      0.138700
     13 N22         6.4750    0.2910   -0.9210 nd        1 IK9     -0.466300
     14 C20         7.7490    0.2350   -0.2060 cd        1 IK9      0.609800
     15 N21         8.9480    0.4520   -0.6300 n2        1 IK9     -0.776100
     16 N19         7.4760   -0.0870    1.2410 na        1 IK9     -0.203500
     17 N18         6.1070   -0.3630    1.2650 na        1 IK9     -0.302200
     18 C7          5.2950   -0.1400    2.4160 cc        1 IK9      0.593800
     19 N6          3.9890   -0.0420    2.3320 nd        1 IK9     -0.704000
     20 C8          6.0090   -0.1190    3.7560 c3        1 IK9     -0.080400
     21 C9          5.0920   -0.0490    4.9270 ca        1 IK9     -0.077300
     22 C17         4.5900   -1.2240    5.4890 ca        1 IK9     -0.111000
     23 C16         3.7430   -1.2150    6.6110 ca        1 IK9     -0.113000
     24 C15         3.4320    0.0250    7.1310 ca        1 IK9      0.062100
     25 C11         3.9390    1.2230    6.5630 ca        1 IK9      0.055100
     26 C10         4.7690    1.2180    5.4620 ca        1 IK9     -0.094000
     27 O14         2.6310    0.3370    8.2240 os        1 IK9     -0.333900
     28 C13         2.6280    1.7790    8.3410 c3        1 IK9      0.321200
     29 O12         3.4660    2.3120    7.2890 os        1 IK9     -0.333900
     30 H4          1.3720   -0.0100    1.9980 ha        1 IK9      0.172000
     31 H3          1.4030    0.0260   -2.3200 ha        1 IK9      0.154000
     32 H26         5.0490   -0.1530   -2.6160 hn        1 IK9      0.462800
     33 H271        2.8190   -1.0450   -3.8770 h1        1 IK9      0.053200
     34 H272        2.6580    0.7760   -3.9770 h1        1 IK9      0.053200
     35 H281        4.9720    0.8880   -5.0580 h1        1 IK9      0.038700
     36 H282        3.7260   -0.0710   -5.9980 h1        1 IK9      0.038700
     37 H29         5.8020   -1.1330   -5.6980 ho        1 IK9      0.409000
     38 H21         9.0170    0.7170   -1.5910 hn        1 IK9      0.418400
     39 H19         7.9660   -0.9410    1.4930 hn        1 IK9      0.239700
     40 H81C        6.6990    0.7710    3.7580 hc        1 IK9      0.081700
     41 H82C        6.6430   -1.0460    3.8320 hc        1 IK9      0.081700
     42 H17         4.8550   -2.1950    5.0420 ha        1 IK9      0.138000
     43 H10         5.1540    2.1460    5.0200 ha        1 IK9      0.157000
     44 H16         3.3510   -2.1440    7.0440 ha        1 IK9      0.156000
     45 H131        3.0750    2.0580    9.3270 h2        1 IK9      0.073200
     46 H132        1.5840    2.1480    8.1880 h2        1 IK9      0.073200
@<TRIPOS>BOND
     1    1    2 1   
     2    2    3 ar  
     3    2   11 ar  
     4    3    4 ar  
     5    3   30 1   
     6    4    5 ar  
     7    4   19 1   
     8    5    6 ar  
     9    5   12 1   
    10    6    7 1   
    11    6   11 ar  
    12    7    8 1   
    13    7   32 1   
    14    8    9 1   
    15    8   33 1   
    16    8   34 1   
    17    9   10 1   
    18    9   35 1   
    19    9   36 1   
    20   10   37 1   
    21   11   31 1   
    22   12   13 2   
    23   12   17 1   
    24   13   14 1   
    25   14   15 2   
    26   14   16 1   
    27   15   38 1   
    28   16   17 1   
    29   16   39 1   
    30   17   18 1   
    31   18   19 2   
    32   18   20 1   
    33   20   21 1   
    34   20   40 1   
    35   20   41 1   
    36   21   22 ar  
    37   21   26 ar  
    38   22   23 ar  
    39   22   42 1   
    40   23   24 ar  
    41   23   44 1   
    42   24   25 ar  
    43   24   27 1   
    44   25   26 ar  
    45   25   29 1   
    46   26   43 1   
    47   27   28 1   
    48   28   29 1   
    49   28   45 1   
    50   28   46 1   
@<TRIPOS>SUBSTRUCTURE
     1 IK9         1 TEMP              0 ****  ****    0 ROOT
