@<TRIPOS>MOLECULE
IKM
   32    34     1     0     0
SMALL
bcc


@<TRIPOS>ATOM
      1 C1          0.6080    0.1260   -0.0180 c3        1 IKM      0.209000
      2 C2          2.5390   -0.5250    1.3610 c2        1 IKM     -0.133200
      3 C3          2.0200   -0.3420    0.1450 c2        1 IKM     -0.227200
      4 C4          0.2690    0.1310    2.3880 c3        1 IKM      0.187500
      5 C5          1.7820   -0.1880    2.6030 c3        1 IKM      0.143300
      6 O1          1.9130   -1.2670    3.5270 os        1 IKM     -0.408600
      7 N2         -0.0810    0.0360    5.8160 n         1 IKM     -0.508900
      8 C6          0.7610   -1.1530    5.6470 c3        1 IKM     -0.083300
      9 C7          0.6420   -1.5850    4.1410 c3        1 IKM      0.190800
     10 C8         -0.4230   -0.6360    3.5290 c3        1 IKM     -0.182700
     11 C9         -0.8440    0.2820    4.6690 c         1 IKM      0.680500
     12 O2         -1.7070    1.1810    4.5980 o         1 IKM     -0.691500
     13 C10         0.3590   -3.0610    3.9490 c3        1 IKM     -0.183400
     14 C11         0.4670   -2.2610    6.7050 c         1 IKM      0.913600
     15 O3          1.3910   -3.0790    6.9600 o         1 IKM     -0.842300
     16 C12         0.0280   -3.4980    2.5180 c         1 IKM      0.909600
     17 O4         -0.9660   -2.9780    1.9120 o         1 IKM     -0.872300
     18 O5          0.7200   -4.4130    1.9840 o         1 IKM     -0.872300
     19 O6         -0.6390   -2.2290    7.3200 o         1 IKM     -0.842300
     20 N1         -0.2870   -0.1720    1.0790 n3        1 IKM     -0.821200
     21 H1          0.6200    1.2470   -0.1610 h1        1 IKM      0.025200
     22 H2          0.1720   -0.3300   -0.9520 h1        1 IKM      0.025200
     23 H3          3.5390   -0.9510    1.5260 ha        1 IKM      0.121000
     24 H4          2.5760   -0.5590   -0.7750 ha        1 IKM      0.100000
     25 H5          0.1260    1.2410    2.5380 h1        1 IKM      0.046700
     26 H6          2.2730    0.7100    3.0810 h1        1 IKM      0.024700
     27 H7         -0.5640    0.0700    6.6900 hn        1 IKM      0.303500
     28 H8          1.8280   -0.8280    5.8200 h1        1 IKM      0.060700
     29 H9         -1.3130   -1.2300    3.1770 hc        1 IKM      0.157700
     30 H10        -0.5120   -3.3290    4.6030 hc        1 IKM      0.068700
     31 H11         1.2520   -3.6350    4.3110 hc        1 IKM      0.068700
     32 H14        -0.5770   -1.1450    1.0490 hn        1 IKM      0.431800
@<TRIPOS>BOND
     1    1    3 1   
     2    1   20 1   
     3    1   21 1   
     4    1   22 1   
     5    2    3 2   
     6    2    5 1   
     7    2   23 1   
     8    3   24 1   
     9    4    5 1   
    10    4   10 1   
    11    4   20 1   
    12    4   25 1   
    13    5    6 1   
    14    5   26 1   
    15    6    9 1   
    16    7    8 1   
    17    7   11 1   
    18    7   27 1   
    19    8    9 1   
    20    8   14 1   
    21    8   28 1   
    22    9   10 1   
    23    9   13 1   
    24   10   11 1   
    25   10   29 1   
    26   11   12 2   
    27   13   16 1   
    28   13   30 1   
    29   13   31 1   
    30   14   15 1   
    31   14   19 1   
    32   16   17 1   
    33   16   18 1   
    34   20   32 1   
@<TRIPOS>SUBSTRUCTURE
     1 IKM         1 TEMP              0 ****  ****    0 ROOT
