@<TRIPOS>MOLECULE
IKM
   32    34     1     0     0
SMALL
bcc


@<TRIPOS>ATOM
      1 C1          4.0250   -0.7700   -0.3690 c3        1 IKM      0.226000
      2 C2          2.1450   -1.7170    0.9000 c2        1 IKM     -0.126200
      3 C3          3.2710   -1.9230    0.2100 c2        1 IKM     -0.224200
      4 C4          2.0070    0.6270   -0.0330 c3        1 IKM      0.183500
      5 C5          1.7010   -0.3160    1.1690 c3        1 IKM      0.160300
      6 O1          0.3010   -0.2380    1.4120 os        1 IKM     -0.400600
      7 N2         -0.7320    2.4830   -0.3560 n         1 IKM     -0.513900
      8 C6         -1.2230    1.4230    0.5310 c3        1 IKM     -0.076300
      9 C7         -0.4000    0.1280    0.1970 c3        1 IKM      0.186800
     10 C8          0.6790    0.5970   -0.8270 c3        1 IKM     -0.179700
     11 C9          0.2560    2.0030   -1.2240 c         1 IKM      0.682500
     12 O2          0.7600    2.6900   -2.1360 o         1 IKM     -0.692500
     13 C10        -1.2650   -1.0260   -0.2640 c3        1 IKM     -0.192400
     14 C11        -2.7770    1.2810    0.5040 c         1 IKM      0.917600
     15 O3         -3.3260    0.7260    1.4930 o         1 IKM     -0.842300
     16 C12        -0.5030   -2.2320   -0.8280 c         1 IKM      0.905600
     17 O4         -0.1530   -2.2160   -2.0470 o         1 IKM     -0.868800
     18 O5         -0.2800   -3.2310   -0.0760 o         1 IKM     -0.868800
     19 O6         -3.4140    1.8120   -0.4530 o         1 IKM     -0.842300
     20 N1          3.1820    0.3170   -0.8230 n3        1 IKM     -0.814200
     21 H1          4.7870   -0.4210    0.3970 h1        1 IKM     -0.001300
     22 H2          4.6080   -1.1180   -1.2700 h1        1 IKM     -0.001300
     23 H3          1.4550   -2.5200    1.2160 ha        1 IKM      0.198000
     24 H4          3.6480   -2.9240   -0.0300 ha        1 IKM      0.117000
     25 H5          2.1210    1.6700    0.3970 h1        1 IKM      0.019700
     26 H6          2.1890    0.0610    2.1100 h1        1 IKM      0.035700
     27 H7         -1.4560    3.0460   -0.7560 hn        1 IKM      0.307500
     28 H8         -0.9570    1.7280    1.5850 h1        1 IKM      0.055700
     29 H9          0.7120   -0.0910   -1.7150 hc        1 IKM      0.162700
     30 H10        -1.8830   -1.3590    0.6110 hc        1 IKM      0.066700
     31 H11        -1.9560   -0.6390   -1.0580 hc        1 IKM      0.066700
     32 H14         3.7300    1.1430   -0.9590 hn        1 IKM      0.349800
@<TRIPOS>BOND
     1    1    3 1   
     2    1   20 1   
     3    1   21 1   
     4    1   22 1   
     5    2    3 2   
     6    2    5 1   
     7    2   23 1   
     8    3   24 1   
     9    4    5 1   
    10    4   10 1   
    11    4   20 1   
    12    4   25 1   
    13    5    6 1   
    14    5   26 1   
    15    6    9 1   
    16    7    8 1   
    17    7   11 1   
    18    7   27 1   
    19    8    9 1   
    20    8   14 1   
    21    8   28 1   
    22    9   10 1   
    23    9   13 1   
    24   10   11 1   
    25   10   29 1   
    26   11   12 2   
    27   13   16 1   
    28   13   30 1   
    29   13   31 1   
    30   14   15 1   
    31   14   19 1   
    32   16   17 1   
    33   16   18 1   
    34   20   32 1   
@<TRIPOS>SUBSTRUCTURE
     1 IKM         1 TEMP              0 ****  ****    0 ROOT
