@<TRIPOS>MOLECULE
IKM
   32    34     1     0     0
SMALL
bcc


@<TRIPOS>ATOM
      1 C1          0.2120   -0.3430    0.3030 c3        1 IKM      0.137000
      2 C2          2.4270   -0.5800    1.3430 c2        1 IKM     -0.182200
      3 C3          1.6600   -0.7150    0.2580 c2        1 IKM     -0.179200
      4 C4          0.4350    0.4810    2.5750 c3        1 IKM      0.168500
      5 C5          1.9040   -0.0410    2.6390 c3        1 IKM      0.152300
      6 O1          1.9860   -1.0530    3.6380 os        1 IKM     -0.402600
      7 N2         -0.4540   -0.1110    5.7690 ns        1 IKM     -0.512900
      8 C6          0.6030   -1.1150    5.6120 c3        1 IKM     -0.079300
      9 C7          0.6740   -1.4710    4.0810 c3        1 IKM      0.189800
     10 C8         -0.3680   -0.5390    3.4030 c3        1 IKM     -0.179700
     11 C9         -1.1000    0.1390    4.5540 c         1 IKM      0.682500
     12 O2         -2.0990    0.8780    4.4500 o         1 IKM     -0.688500
     13 C10         0.4850   -2.9510    3.8110 c3        1 IKM     -0.186400
     14 C11         0.4510   -2.3150    6.5970 c         1 IKM      0.916600
     15 O3          1.4900   -2.9720    6.8760 o         1 IKM     -0.842300
     16 C12         0.2280   -3.3680    2.3600 c         1 IKM      0.908600
     17 O4         -0.8290   -2.9740    1.7670 o         1 IKM     -0.870800
     18 O5          1.0440   -4.1540    1.7950 o         1 IKM     -0.870800
     19 O6         -0.6760   -2.5130    7.1390 o         1 IKM     -0.842300
     20 N1         -0.0940    0.7270    1.2390 n7        1 IKM     -0.769200
     21 H1         -0.1460   -0.0290   -0.7160 h1        1 IKM      0.091200
     22 H2         -0.3680   -1.2720    0.6270 h1        1 IKM      0.091200
     23 H3          3.4710   -0.9200    1.3740 ha        1 IKM      0.116000
     24 H4          2.0270   -1.1640   -0.6730 ha        1 IKM      0.108000
     25 H5          0.4010    1.4750    3.1130 h1        1 IKM      0.042700
     26 H6          2.5860    0.7860    2.9900 h1        1 IKM      0.020700
     27 H7         -1.0360   -0.2580    6.5690 hn        1 IKM      0.305500
     28 H8          1.5770   -0.6110    5.8830 h1        1 IKM      0.057700
     29 H9         -1.0910   -1.1390    2.7820 hc        1 IKM      0.168700
     30 H10        -0.3910   -3.2960    4.4220 hc        1 IKM      0.069200
     31 H11         1.3990   -3.4830    4.1860 hc        1 IKM      0.069200
     32 H14         0.3280    1.5770    0.9010 hn        1 IKM      0.312800
@<TRIPOS>BOND
     1    1    3 1   
     2    1   20 1   
     3    1   21 1   
     4    1   22 1   
     5    2    3 2   
     6    2    5 1   
     7    2   23 1   
     8    3   24 1   
     9    4    5 1   
    10    4   10 1   
    11    4   20 1   
    12    4   25 1   
    13    5    6 1   
    14    5   26 1   
    15    6    9 1   
    16    7    8 1   
    17    7   11 1   
    18    7   27 1   
    19    8    9 1   
    20    8   14 1   
    21    8   28 1   
    22    9   10 1   
    23    9   13 1   
    24   10   11 1   
    25   10   29 1   
    26   11   12 2   
    27   13   16 1   
    28   13   30 1   
    29   13   31 1   
    30   14   15 1   
    31   14   19 1   
    32   16   17 1   
    33   16   18 1   
    34   20   32 1   
@<TRIPOS>SUBSTRUCTURE
     1 IKM         1 TEMP              0 ****  ****    0 ROOT
