@<TRIPOS>MOLECULE
IKM
   32    34     1     0     0
SMALL
bcc


@<TRIPOS>ATOM
      1 C1          0.7010    0.4430    0.0650 c3        1 IKM      0.226000
      2 C2          2.1050   -1.1400    1.3140 c2        1 IKM     -0.126200
      3 C3          1.5970   -0.7510    0.1410 c2        1 IKM     -0.224200
      4 C4          0.4130    0.2960    2.5210 c3        1 IKM      0.183500
      5 C5          1.8470   -0.3140    2.5310 c3        1 IKM      0.160300
      6 O1          1.9650   -1.0750    3.7280 os        1 IKM     -0.400600
      7 N2         -0.6930   -0.1160    5.6280 n         1 IKM     -0.513900
      8 C6          0.4750   -1.0020    5.6340 c3        1 IKM     -0.076300
      9 C7          0.6590   -1.5280    4.1660 c3        1 IKM      0.186800
     10 C8         -0.3980   -0.7440    3.3290 c3        1 IKM     -0.179700
     11 C9         -1.2810   -0.0570    4.3600 c         1 IKM      0.682500
     12 O2         -2.3420    0.5550    4.1240 o         1 IKM     -0.692500
     13 C10         0.5750   -3.0360    4.0570 c3        1 IKM     -0.192400
     14 C11         0.4080   -2.0870    6.7540 c         1 IKM      0.917600
     15 O3          1.4930   -2.6120    7.1200 o         1 IKM     -0.842300
     16 C12         0.5090   -3.5880    2.6270 c         1 IKM      0.905600
     17 O4         -0.6180   -3.6430    2.0470 o         1 IKM     -0.868800
     18 O5          1.5710   -4.0130    2.0780 o         1 IKM     -0.868800
     19 O6         -0.7100   -2.3170    7.3030 o         1 IKM     -0.842300
     20 N1         -0.1490    0.6170    1.2240 n3        1 IKM     -0.814200
     21 H1          1.3430    1.3590   -0.1280 h1        1 IKM     -0.001300
     22 H2          0.0110    0.3390   -0.8230 h1        1 IKM     -0.001300
     23 H3          2.6390   -2.0950    1.4730 ha        1 IKM      0.198000
     24 H4          1.7400   -1.3140   -0.7880 ha        1 IKM      0.117000
     25 H5          0.4620    1.2440    3.1410 h1        1 IKM      0.019700
     26 H6          2.6270    0.4930    2.6140 h1        1 IKM      0.035700
     27 H7         -1.3040   -0.2440    6.4090 hn        1 IKM      0.307500
     28 H8          1.3730   -0.3620    5.8760 h1        1 IKM      0.055700
     29 H9         -0.9900   -1.4440    2.6790 hc        1 IKM      0.162700
     30 H10        -0.3430   -3.3670    4.6090 hc        1 IKM      0.066700
     31 H11         1.4720   -3.4650    4.5750 hc        1 IKM      0.066700
     32 H14        -0.5300    1.5420    1.2360 hn        1 IKM      0.349800
@<TRIPOS>BOND
     1    1    3 1   
     2    1   20 1   
     3    1   21 1   
     4    1   22 1   
     5    2    3 2   
     6    2    5 1   
     7    2   23 1   
     8    3   24 1   
     9    4    5 1   
    10    4   10 1   
    11    4   20 1   
    12    4   25 1   
    13    5    6 1   
    14    5   26 1   
    15    6    9 1   
    16    7    8 1   
    17    7   11 1   
    18    7   27 1   
    19    8    9 1   
    20    8   14 1   
    21    8   28 1   
    22    9   10 1   
    23    9   13 1   
    24   10   11 1   
    25   10   29 1   
    26   11   12 2   
    27   13   16 1   
    28   13   30 1   
    29   13   31 1   
    30   14   15 1   
    31   14   19 1   
    32   16   17 1   
    33   16   18 1   
    34   20   32 1   
@<TRIPOS>SUBSTRUCTURE
     1 IKM         1 TEMP              0 ****  ****    0 ROOT
