@<TRIPOS>MOLECULE
IKR
   45    46     1     0     0
SMALL
bcc


@<TRIPOS>ATOM
      1 C1          0.1890   -0.4030   -0.1380 ca        1 IKR     -0.010100
      2 C2          1.5830   -0.5130   -0.1500 ca        1 IKR     -0.006300
      3 C3          2.2920   -0.3950    1.0540 ca        1 IKR     -0.208000
      4 C4          1.6090   -0.1680    2.2510 ca        1 IKR      0.148100
      5 C5          0.1990   -0.0510    2.2700 ca        1 IKR     -0.108300
      6 C6         -0.4860   -0.1730    1.0640 ca        1 IKR     -0.070000
      7 C11        -0.5160    0.2060    3.5390 c3        1 IKR     -0.042800
      8 O15         2.2190   -0.0280    3.4810 os        1 IKR     -0.326900
      9 C16         3.6320   -0.2760    3.5090 c3        1 IKR      0.161700
     10 C17         4.0910   -0.1950    4.9280 ca        1 IKR     -0.054300
     11 C20         5.4710   -0.1340    5.1890 ca        1 IKR     -0.159900
     12 C21         5.9340   -0.0690    6.5070 ca        1 IKR     -0.092000
     13 C22         5.0260   -0.0650    7.5650 ca        1 IKR     -0.132000
     14 C23         3.6570   -0.1260    7.3090 ca        1 IKR     -0.115000
     15 C24         3.1910   -0.1910    5.9970 ca        1 IKR     -0.111000
     16 C29         6.4450   -0.1360    4.0800 ce        1 IKR      0.391900
     17 C30         6.9090    1.2320    3.6820 c         1 IKR      0.568800
     18 O31         6.2360    1.7160    2.5970 os        1 IKR     -0.429900
     19 C32         6.5850    3.0360    2.1690 c3        1 IKR      0.123700
     20 O36         7.7670    1.9240    4.2220 o         1 IKR     -0.511000
     21 N37         6.9530   -1.1470    3.4290 n2        1 IKR     -0.385200
     22 O38         6.5530   -2.3490    3.7860 os        1 IKR     -0.174300
     23 C39         7.2220   -3.4220    3.0790 c3        1 IKR      0.128700
     24 C40         2.3380   -0.7530   -1.4030 c3        1 IKR     -0.066800
     25 I1         -0.9190   -0.5640   -1.8230 i         1 IKR     -0.149900
     26 H3          3.3880   -0.4790    1.0370 ha        1 IKR      0.145000
     27 H6         -1.5850   -0.0860    1.0710 ha        1 IKR      0.146000
     28 H11        -0.4160    1.2840    3.8210 hc        1 IKR      0.047367
     29 H11A       -0.0740   -0.4070    4.3650 hc        1 IKR      0.047367
     30 H11B       -1.6030   -0.0390    3.4480 hc        1 IKR      0.047367
     31 H16         3.8420   -1.3020    3.0980 h1        1 IKR      0.065700
     32 H16A        4.1560    0.5010    2.8850 h1        1 IKR      0.065700
     33 H21         7.0160   -0.0140    6.7030 ha        1 IKR      0.148000
     34 H22         5.3940   -0.0130    8.6000 ha        1 IKR      0.138000
     35 H23         2.9400   -0.1220    8.1440 ha        1 IKR      0.136000
     36 H24         2.1090   -0.2350    5.7930 ha        1 IKR      0.153000
     37 H32         7.6630    3.0660    1.8790 h1        1 IKR      0.055367
     38 H32A        6.3860    3.7670    2.9890 h1        1 IKR      0.055367
     39 H32B        5.9170    3.2110    1.2900 h1        1 IKR      0.055367
     40 H39         7.0310   -3.3530    1.9830 h1        1 IKR      0.054700
     41 H39A        8.3160   -3.4120    3.2940 h1        1 IKR      0.054700
     42 H39B        6.7310   -4.3260    3.5200 h1        1 IKR      0.054700
     43 H40         2.1530    0.0740   -2.1350 hc        1 IKR      0.054033
     44 H40A        3.4380   -0.8060   -1.2090 hc        1 IKR      0.054033
     45 H40B        2.0200   -1.7180   -1.8730 hc        1 IKR      0.054033
@<TRIPOS>BOND
     1    1    2 ar  
     2    1    6 ar  
     3    1   25 1   
     4    2    3 ar  
     5    2   24 1   
     6    3    4 ar  
     7    3   26 1   
     8    4    5 ar  
     9    4    8 1   
    10    5    6 ar  
    11    5    7 1   
    12    6   27 1   
    13    7   28 1   
    14    7   29 1   
    15    7   30 1   
    16    8    9 1   
    17    9   10 1   
    18    9   31 1   
    19    9   32 1   
    20   10   11 ar  
    21   10   15 ar  
    22   11   12 ar  
    23   11   16 1   
    24   12   13 ar  
    25   12   33 1   
    26   13   14 ar  
    27   13   34 1   
    28   14   15 ar  
    29   14   35 1   
    30   15   36 1   
    31   16   17 1   
    32   16   21 2   
    33   17   18 1   
    34   17   20 2   
    35   18   19 1   
    36   19   37 1   
    37   19   38 1   
    38   19   39 1   
    39   21   22 1   
    40   22   23 1   
    41   23   40 1   
    42   23   41 1   
    43   23   42 1   
    44   24   43 1   
    45   24   44 1   
    46   24   45 1   
@<TRIPOS>SUBSTRUCTURE
     1 IKR         1 TEMP              0 ****  ****    0 ROOT
