@<TRIPOS>MOLECULE
IKR
   45    46     1     0     0
SMALL
bcc


@<TRIPOS>ATOM
      1 C1          3.0930    0.1120   -0.4510 ca        1 IKR     -0.010100
      2 C2          2.0450   -0.7970   -0.6350 ca        1 IKR     -0.006300
      3 C3          0.7270   -0.3820   -0.4000 ca        1 IKR     -0.208000
      4 C4          0.4670    0.9270    0.0150 ca        1 IKR      0.148100
      5 C5          1.5210    1.8500    0.2060 ca        1 IKR     -0.108300
      6 C6          2.8230    1.4170   -0.0340 ca        1 IKR     -0.070000
      7 C11         1.2400    3.2290    0.6600 c3        1 IKR     -0.042800
      8 O15        -0.7930    1.4240    0.2790 os        1 IKR     -0.326900
      9 C16        -1.8880    0.5510   -0.0350 c3        1 IKR      0.161700
     10 C17        -3.1610    1.2940    0.2040 ca        1 IKR     -0.054300
     11 C20        -4.3690    0.5760    0.2270 ca        1 IKR     -0.159900
     12 C21        -5.5790    1.2440    0.4370 ca        1 IKR     -0.092000
     13 C22        -5.5890    2.6260    0.6240 ca        1 IKR     -0.132000
     14 C23        -4.3930    3.3410    0.6010 ca        1 IKR     -0.115000
     15 C24        -3.1840    2.6790    0.3920 ca        1 IKR     -0.111000
     16 C29        -4.3750   -0.8870    0.0320 ce        1 IKR      0.391900
     17 C30        -4.4000   -1.6660    1.3110 c         1 IKR      0.568800
     18 O31        -3.1590   -2.0950    1.6870 os        1 IKR     -0.429900
     19 C32        -3.0810   -2.8150    2.9200 c3        1 IKR      0.123700
     20 O36        -5.3690   -1.9170    2.0230 o         1 IKR     -0.511000
     21 N37        -4.3780   -1.5720   -1.0790 n2        1 IKR     -0.385200
     22 O38        -4.3660   -0.8870   -2.2030 os        1 IKR     -0.174300
     23 C39        -4.4560   -1.7110   -3.3910 c3        1 IKR      0.128700
     24 C40         2.2870   -2.1930   -1.0720 c3        1 IKR     -0.066800
     25 I1          5.0260   -0.3950   -0.7700 i         1 IKR     -0.149900
     26 H3         -0.0920   -1.1010   -0.5410 ha        1 IKR      0.145000
     27 H6          3.6510    2.1320    0.1100 ha        1 IKR      0.146000
     28 H11         1.0280    3.2320    1.7600 hc        1 IKR      0.047367
     29 H11A        2.1070    3.9050    0.4630 hc        1 IKR      0.047367
     30 H11B        0.3380    3.6340    0.1370 hc        1 IKR      0.047367
     31 H16        -1.8240    0.2410   -1.1150 h1        1 IKR      0.065700
     32 H16A       -1.8380   -0.3590    0.6270 h1        1 IKR      0.065700
     33 H21        -6.5200    0.6740    0.4610 ha        1 IKR      0.148000
     34 H22        -6.5430    3.1480    0.7900 ha        1 IKR      0.138000
     35 H23        -4.4000    4.4310    0.7490 ha        1 IKR      0.136000
     36 H24        -2.2370    3.2430    0.3770 ha        1 IKR      0.153000
     37 H32        -1.9930   -3.0540    3.0140 h1        1 IKR      0.055367
     38 H32A       -3.4340   -2.1700    3.7590 h1        1 IKR      0.055367
     39 H32B       -3.7010   -3.7410    2.8580 h1        1 IKR      0.055367
     40 H39        -3.5900   -2.4100   -3.4540 h1        1 IKR      0.054700
     41 H39A       -5.4210   -2.2700   -3.4100 h1        1 IKR      0.054700
     42 H39B       -4.4170   -0.9440   -4.2040 h1        1 IKR      0.054700
     43 H40         2.9440   -2.7240   -0.3380 hc        1 IKR      0.054033
     44 H40A        1.3290   -2.7620   -1.1570 hc        1 IKR      0.054033
     45 H40B        2.7910   -2.2070   -2.0720 hc        1 IKR      0.054033
@<TRIPOS>BOND
     1    1    2 ar  
     2    1    6 ar  
     3    1   25 1   
     4    2    3 ar  
     5    2   24 1   
     6    3    4 ar  
     7    3   26 1   
     8    4    5 ar  
     9    4    8 1   
    10    5    6 ar  
    11    5    7 1   
    12    6   27 1   
    13    7   28 1   
    14    7   29 1   
    15    7   30 1   
    16    8    9 1   
    17    9   10 1   
    18    9   31 1   
    19    9   32 1   
    20   10   11 ar  
    21   10   15 ar  
    22   11   12 ar  
    23   11   16 1   
    24   12   13 ar  
    25   12   33 1   
    26   13   14 ar  
    27   13   34 1   
    28   14   15 ar  
    29   14   35 1   
    30   15   36 1   
    31   16   17 1   
    32   16   21 2   
    33   17   18 1   
    34   17   20 2   
    35   18   19 1   
    36   19   37 1   
    37   19   38 1   
    38   19   39 1   
    39   21   22 1   
    40   22   23 1   
    41   23   40 1   
    42   23   41 1   
    43   23   42 1   
    44   24   43 1   
    45   24   44 1   
    46   24   45 1   
@<TRIPOS>SUBSTRUCTURE
     1 IKR         1 TEMP              0 ****  ****    0 ROOT
