@<TRIPOS>MOLECULE
IKR
   45    46     1     0     0
SMALL
bcc


@<TRIPOS>ATOM
      1 C1          0.1710   -0.4020   -0.1170 ca        1 IKR     -0.010100
      2 C2          1.5640   -0.5200   -0.1360 ca        1 IKR     -0.006300
      3 C3          2.2800   -0.4000    1.0630 ca        1 IKR     -0.208000
      4 C4          1.6050   -0.1640    2.2630 ca        1 IKR      0.148100
      5 C5          0.1960   -0.0410    2.2890 ca        1 IKR     -0.108300
      6 C6         -0.4960   -0.1650    1.0870 ca        1 IKR     -0.070000
      7 C11        -0.5120    0.2240    3.5610 c3        1 IKR     -0.042800
      8 O15         2.2210   -0.0230    3.4900 os        1 IKR     -0.326900
      9 C16         3.6350   -0.2750    3.5110 c3        1 IKR      0.161700
     10 C17         4.1020   -0.1900    4.9270 ca        1 IKR     -0.054300
     11 C20         5.4830   -0.1320    5.1790 ca        1 IKR     -0.159900
     12 C21         5.9540   -0.0630    6.4940 ca        1 IKR     -0.092000
     13 C22         5.0520   -0.0520    7.5580 ca        1 IKR     -0.132000
     14 C23         3.6810   -0.1110    7.3100 ca        1 IKR     -0.115000
     15 C24         3.2080   -0.1790    6.0010 ca        1 IKR     -0.111000
     16 C29         6.4500   -0.1410    4.0650 ce        1 IKR      0.391900
     17 C30         6.9170    1.2240    3.6600 c         1 IKR      0.568800
     18 O31         6.2390    1.7090    2.5780 os        1 IKR     -0.429900
     19 C32         6.5910    3.0250    2.1440 c3        1 IKR      0.123700
     20 O36         7.7810    1.9150    4.1930 o         1 IKR     -0.511000
     21 N37         6.9510   -1.1550    3.4140 n2        1 IKR     -0.385200
     22 O38         6.5480   -2.3540    3.7760 os        1 IKR     -0.174300
     23 C39         7.2090   -3.4330    3.0690 c3        1 IKR      0.128700
     24 C40         2.3120   -0.7680   -1.3930 c3        1 IKR     -0.066800
     25 I1         -0.9470   -0.5650   -1.7960 i         1 IKR     -0.149900
     26 H3          3.3760   -0.4890    1.0410 ha        1 IKR      0.145000
     27 H6         -1.5950   -0.0720    1.0990 ha        1 IKR      0.146000
     28 H11        -1.6000   -0.0170    3.4770 hc        1 IKR      0.047367
     29 H11A       -0.0680   -0.3880    4.3870 hc        1 IKR      0.047367
     30 H11B       -0.4050    1.3030    3.8380 hc        1 IKR      0.047367
     31 H16         3.8390   -1.3030    3.1030 h1        1 IKR      0.065700
     32 H16A        4.1570    0.4980    2.8800 h1        1 IKR      0.065700
     33 H21         7.0370   -0.0100    6.6840 ha        1 IKR      0.148000
     34 H22         5.4260    0.0030    8.5910 ha        1 IKR      0.138000
     35 H23         2.9690   -0.1020    8.1490 ha        1 IKR      0.136000
     36 H24         2.1240   -0.2220    5.8030 ha        1 IKR      0.153000
     37 H32         7.6680    3.0510    1.8480 h1        1 IKR      0.055367
     38 H32A        6.3990    3.7590    2.9630 h1        1 IKR      0.055367
     39 H32B        5.9190    3.2000    1.2680 h1        1 IKR      0.055367
     40 H39         8.3040   -3.4260    3.2780 h1        1 IKR      0.054700
     41 H39A        7.0120   -3.3650    1.9730 h1        1 IKR      0.054700
     42 H39B        6.7170   -4.3330    3.5140 h1        1 IKR      0.054700
     43 H40         3.4120   -0.8250   -1.2040 hc        1 IKR      0.054033
     44 H40A        1.9870   -1.7330   -1.8560 hc        1 IKR      0.054033
     45 H40B        2.1270    0.0570   -2.1270 hc        1 IKR      0.054033
@<TRIPOS>BOND
     1    1    2 ar  
     2    1    6 ar  
     3    1   25 1   
     4    2    3 ar  
     5    2   24 1   
     6    3    4 ar  
     7    3   26 1   
     8    4    5 ar  
     9    4    8 1   
    10    5    6 ar  
    11    5    7 1   
    12    6   27 1   
    13    7   28 1   
    14    7   29 1   
    15    7   30 1   
    16    8    9 1   
    17    9   10 1   
    18    9   31 1   
    19    9   32 1   
    20   10   11 ar  
    21   10   15 ar  
    22   11   12 ar  
    23   11   16 1   
    24   12   13 ar  
    25   12   33 1   
    26   13   14 ar  
    27   13   34 1   
    28   14   15 ar  
    29   14   35 1   
    30   15   36 1   
    31   16   17 1   
    32   16   21 2   
    33   17   18 1   
    34   17   20 2   
    35   18   19 1   
    36   19   37 1   
    37   19   38 1   
    38   19   39 1   
    39   21   22 1   
    40   22   23 1   
    41   23   40 1   
    42   23   41 1   
    43   23   42 1   
    44   24   43 1   
    45   24   44 1   
    46   24   45 1   
@<TRIPOS>SUBSTRUCTURE
     1 IKR         1 TEMP              0 ****  ****    0 ROOT
