@<TRIPOS>MOLECULE
IKR
   45    46     1     0     0
SMALL
bcc


@<TRIPOS>ATOM
      1 C1          0.1770   -0.3890   -0.1260 ca        1 IKR     -0.010100
      2 C2          1.5710   -0.5060   -0.1430 ca        1 IKR     -0.006300
      3 C3          2.2840   -0.3910    1.0590 ca        1 IKR     -0.208000
      4 C4          1.6060   -0.1620    2.2580 ca        1 IKR      0.148100
      5 C5          0.1970   -0.0400    2.2830 ca        1 IKR     -0.108300
      6 C6         -0.4920   -0.1580    1.0790 ca        1 IKR     -0.070000
      7 C11        -0.5130    0.2190    3.5540 c3        1 IKR     -0.042800
      8 O15         2.2200   -0.0270    3.4870 os        1 IKR     -0.326900
      9 C16         3.6330   -0.2790    3.5100 c3        1 IKR      0.161700
     10 C17         4.0980   -0.2000    4.9270 ca        1 IKR     -0.054300
     11 C20         5.4790   -0.1410    5.1830 ca        1 IKR     -0.159900
     12 C21         5.9460   -0.0780    6.4990 ca        1 IKR     -0.092000
     13 C22         5.0420   -0.0740    7.5610 ca        1 IKR     -0.132000
     14 C23         3.6720   -0.1330    7.3100 ca        1 IKR     -0.115000
     15 C24         3.2010   -0.1960    5.9990 ca        1 IKR     -0.111000
     16 C29         6.4480   -0.1430    4.0710 ce        1 IKR      0.391900
     17 C30         6.9110    1.2250    3.6710 c         1 IKR      0.568800
     18 O31         6.2350    1.7100    2.5890 os        1 IKR     -0.429900
     19 C32         6.5830    3.0290    2.1590 c3        1 IKR      0.123700
     20 O36         7.7710    1.9180    4.2090 o         1 IKR     -0.511000
     21 N37         6.9550   -1.1530    3.4180 n2        1 IKR     -0.385200
     22 O38         6.5560   -2.3550    3.7760 os        1 IKR     -0.174300
     23 C39         7.2220   -3.4290    3.0670 c3        1 IKR      0.128700
     24 C40         2.3210   -0.7470   -1.3990 c3        1 IKR     -0.066800
     25 I1         -0.9370   -0.5440   -1.8070 i         1 IKR     -0.149900
     26 H3          3.3800   -0.4800    1.0380 ha        1 IKR      0.145000
     27 H6         -1.5910   -0.0660    1.0890 ha        1 IKR      0.146000
     28 H11        -0.4060    1.2960    3.8370 hc        1 IKR      0.047367
     29 H11A       -0.0720   -0.3980    4.3780 hc        1 IKR      0.047367
     30 H11B       -1.6010   -0.0210    3.4670 hc        1 IKR      0.047367
     31 H16         3.8390   -1.3050    3.0980 h1        1 IKR      0.065700
     32 H16A        4.1580    0.4970    2.8840 h1        1 IKR      0.065700
     33 H21         7.0290   -0.0240    6.6920 ha        1 IKR      0.148000
     34 H22         5.4140   -0.0230    8.5950 ha        1 IKR      0.138000
     35 H23         2.9580   -0.1290    8.1470 ha        1 IKR      0.136000
     36 H24         2.1180   -0.2390    5.7990 ha        1 IKR      0.153000
     37 H32         7.6600    3.0600    1.8660 h1        1 IKR      0.055367
     38 H32A        6.3860    3.7600    2.9800 h1        1 IKR      0.055367
     39 H32B        5.9120    3.2040    1.2820 h1        1 IKR      0.055367
     40 H39         7.0270   -3.3590    1.9710 h1        1 IKR      0.054700
     41 H39A        8.3180   -3.4180    3.2770 h1        1 IKR      0.054700
     42 H39B        6.7340   -4.3320    3.5090 h1        1 IKR      0.054700
     43 H40         2.1370    0.0810   -2.1290 hc        1 IKR      0.054033
     44 H40A        3.4210   -0.8050   -1.2080 hc        1 IKR      0.054033
     45 H40B        1.9970   -1.7100   -1.8680 hc        1 IKR      0.054033
@<TRIPOS>BOND
     1    1    2 ar  
     2    1    6 ar  
     3    1   25 1   
     4    2    3 ar  
     5    2   24 1   
     6    3    4 ar  
     7    3   26 1   
     8    4    5 ar  
     9    4    8 1   
    10    5    6 ar  
    11    5    7 1   
    12    6   27 1   
    13    7   28 1   
    14    7   29 1   
    15    7   30 1   
    16    8    9 1   
    17    9   10 1   
    18    9   31 1   
    19    9   32 1   
    20   10   11 ar  
    21   10   15 ar  
    22   11   12 ar  
    23   11   16 1   
    24   12   13 ar  
    25   12   33 1   
    26   13   14 ar  
    27   13   34 1   
    28   14   15 ar  
    29   14   35 1   
    30   15   36 1   
    31   16   17 1   
    32   16   21 2   
    33   17   18 1   
    34   17   20 2   
    35   18   19 1   
    36   19   37 1   
    37   19   38 1   
    38   19   39 1   
    39   21   22 1   
    40   22   23 1   
    41   23   40 1   
    42   23   41 1   
    43   23   42 1   
    44   24   43 1   
    45   24   44 1   
    46   24   45 1   
@<TRIPOS>SUBSTRUCTURE
     1 IKR         1 TEMP              0 ****  ****    0 ROOT
