@<TRIPOS>MOLECULE
IKT
   36    35     1     0     0
SMALL
bcc


@<TRIPOS>ATOM
      1 C1          0.1390    0.7930   -0.8130 c         1 IKT      0.629100
      2 O1          1.3500    0.7260   -0.5780 o         1 IKT     -0.525000
      3 O2         -0.3950    2.0050   -0.4960 oh        1 IKT     -0.592100
      4 C2         -0.6740   -0.3160   -1.4130 c3        1 IKT     -0.172400
      5 C3         -2.1410   -0.3490   -1.0060 c3        1 IKT     -0.059700
      6 C4         -2.5320   -1.7650   -0.6000 c3        1 IKT     -0.078400
      7 C5         -3.9570   -1.8690   -0.0990 c3        1 IKT     -0.082400
      8 C6         -4.2480   -3.2530    0.4450 c3        1 IKT     -0.079400
      9 C7         -5.7160   -3.4090    0.7840 c3        1 IKT     -0.067400
     10 C8         -6.0360   -4.7920    1.2960 c3        1 IKT     -0.195400
     11 C9         -7.5570   -5.0300    1.3440 c         1 IKT      0.908600
     12 O3         -8.0270   -5.6230    2.3570 o         1 IKT     -0.851800
     13 O4         -8.2590   -4.6420    0.3650 o         1 IKT     -0.851800
     14 C1'        -3.0750    0.2080   -2.1080 c3        1 IKT      0.154500
     15 C2'        -3.1870   -0.7540   -3.2920 c3        1 IKT     -0.131100
     16 N1'        -2.6970    1.5640   -2.4810 n3        1 IKT     -0.927800
     17 H21        -0.5680   -0.2370   -2.5280 hc        1 IKT      0.078200
     18 H22        -0.1730   -1.2790   -1.1140 hc        1 IKT      0.078200
     19 H3         -2.2830    0.3000   -0.0940 hc        1 IKT      0.058700
     20 H41        -1.8370   -2.1000    0.2170 hc        1 IKT      0.043200
     21 H42        -2.3820   -2.4650   -1.4640 hc        1 IKT      0.043200
     22 H51        -4.6750   -1.6500   -0.9330 hc        1 IKT      0.038700
     23 H52        -4.1350   -1.1050    0.7020 hc        1 IKT      0.038700
     24 H61        -3.6250   -3.4390    1.3590 hc        1 IKT      0.028200
     25 H62        -3.9560   -4.0240   -0.3160 hc        1 IKT      0.028200
     26 H71        -6.0050   -2.6470    1.5540 hc        1 IKT      0.045200
     27 H72        -6.3440   -3.2130   -0.1270 hc        1 IKT      0.045200
     28 H81        -5.6040   -4.9420    2.3160 hc        1 IKT      0.020200
     29 H82        -5.5940   -5.5650    0.6180 hc        1 IKT      0.020200
     30 H1'        -4.1030    0.2820   -1.6350 h1        1 IKT      0.073700
     31 H2'1       -3.7180   -1.6850   -2.9750 hc        1 IKT      0.042700
     32 H2'2       -3.7740   -0.2890   -4.1220 hc        1 IKT      0.042700
     33 H2'3       -2.1810   -1.0340   -3.6840 hc        1 IKT      0.042700
     34 HN11       -1.9060    1.5560   -3.0950 hn        1 IKT      0.348800
     35 HN12       -1.3410    2.0330   -0.7050 ho        1 IKT      0.454000
     36 H1'3       -3.4590    2.0180   -2.9440 hn        1 IKT      0.348800
@<TRIPOS>BOND
     1    1    2 2   
     2    1    3 1   
     3    1    4 1   
     4    3   35 1   
     5    4    5 1   
     6    4   17 1   
     7    4   18 1   
     8    5    6 1   
     9    5   14 1   
    10    5   19 1   
    11    6    7 1   
    12    6   20 1   
    13    6   21 1   
    14    7    8 1   
    15    7   22 1   
    16    7   23 1   
    17    8    9 1   
    18    8   24 1   
    19    8   25 1   
    20    9   10 1   
    21    9   26 1   
    22    9   27 1   
    23   10   11 1   
    24   10   28 1   
    25   10   29 1   
    26   11   12 1   
    27   11   13 1   
    28   14   15 1   
    29   14   16 1   
    30   14   30 1   
    31   15   31 1   
    32   15   32 1   
    33   15   33 1   
    34   16   34 1   
    35   16   36 1   
@<TRIPOS>SUBSTRUCTURE
     1 IKT         1 TEMP              0 ****  ****    0 ROOT
