@<TRIPOS>MOLECULE
IKT
   35    34     1     0     0
SMALL
bcc


@<TRIPOS>ATOM
      1 C1         -0.3820   -0.2980   -4.6390 c         1 IKT      0.897600
      2 O1         -0.4930   -1.5590   -4.5720 o         1 IKT     -0.859800
      3 O2         -0.2320    0.3220   -5.7340 o         1 IKT     -0.859800
      4 C2         -0.4330    0.5360   -3.3510 c3        1 IKT     -0.190400
      5 C3          0.1740   -0.1550   -2.1430 c3        1 IKT     -0.087700
      6 C4         -0.2700    0.5490   -0.8700 c3        1 IKT     -0.070400
      7 C5          0.2060   -0.1140    0.4070 c3        1 IKT     -0.079400
      8 C6         -0.4470    0.5110    1.6240 c3        1 IKT     -0.078400
      9 C7          0.0830   -0.0620    2.9230 c3        1 IKT     -0.064400
     10 C8         -0.6240    0.5290    4.1200 c3        1 IKT     -0.187400
     11 C9          0.0120    0.0960    5.4490 c         1 IKT      0.905600
     12 O3          1.2600    0.2380    5.6080 o         1 IKT     -0.862300
     13 O4         -0.7520   -0.3600    6.3510 o         1 IKT     -0.862300
     14 C1'         1.7120   -0.2870   -2.2480 c3        1 IKT      0.174500
     15 C2'         2.4070    1.0650   -2.0870 c3        1 IKT     -0.089100
     16 N1'         2.1690   -0.9860   -3.4430 n3        1 IKT     -0.914800
     17 H21        -1.5150    0.7490   -3.1480 hc        1 IKT      0.023700
     18 H22         0.0720    1.5170   -3.5350 hc        1 IKT      0.023700
     19 H3         -0.2400   -1.2070   -2.1230 hc        1 IKT      0.066700
     20 H41         0.0760    1.6160   -0.8880 hc        1 IKT      0.024200
     21 H42        -1.3940    0.5760   -0.8610 hc        1 IKT      0.024200
     22 H51        -0.0290   -1.2090    0.3740 hc        1 IKT      0.035200
     23 H52         1.3200   -0.0170    0.4940 hc        1 IKT      0.035200
     24 H61        -0.2720    1.6200    1.6100 hc        1 IKT      0.021700
     25 H62        -1.5560    0.3540    1.5720 hc        1 IKT      0.021700
     26 H71        -0.0490   -1.1750    2.9220 hc        1 IKT      0.040200
     27 H72         1.1830    0.1410    3.0150 hc        1 IKT      0.040200
     28 H81        -0.5780    1.6480    4.0700 hc        1 IKT      0.016200
     29 H82        -1.7030    0.2310    4.1140 hc        1 IKT      0.016200
     30 H1'         2.0360   -0.9340   -1.3750 h1        1 IKT      0.032700
     31 H2'1        3.5120    0.9580   -2.2120 hc        1 IKT      0.026367
     32 H2'2        2.0350    1.7990   -2.8410 hc        1 IKT      0.026367
     33 H2'3        2.2090    1.4670   -1.0640 hc        1 IKT      0.026367
     34 HN11        1.5750   -1.7860   -3.5970 hn        1 IKT      0.361300
     35 HN12        2.0520   -0.3870   -4.2420 hn        1 IKT      0.361300
@<TRIPOS>BOND
     1    1    2 1   
     2    1    3 1   
     3    1    4 1   
     4    4    5 1   
     5    4   17 1   
     6    4   18 1   
     7    5    6 1   
     8    5   14 1   
     9    5   19 1   
    10    6    7 1   
    11    6   20 1   
    12    6   21 1   
    13    7    8 1   
    14    7   22 1   
    15    7   23 1   
    16    8    9 1   
    17    8   24 1   
    18    8   25 1   
    19    9   10 1   
    20    9   26 1   
    21    9   27 1   
    22   10   11 1   
    23   10   28 1   
    24   10   29 1   
    25   11   12 1   
    26   11   13 1   
    27   14   15 1   
    28   14   16 1   
    29   14   30 1   
    30   15   31 1   
    31   15   32 1   
    32   15   33 1   
    33   16   34 1   
    34   16   35 1   
@<TRIPOS>SUBSTRUCTURE
     1 IKT         1 TEMP              0 ****  ****    0 ROOT
