@<TRIPOS>MOLECULE
IKT
   35    33     1     0     0
SMALL
bcc


@<TRIPOS>ATOM
      1 C1          1.7290   -2.5560    1.8670 c1        1 IKT      0.317000
      2 O1          2.9580   -2.3000    1.7620 o         1 IKT     -0.596000
      3 O2          1.1920   -2.6070    3.0040 os        1 IKT     -0.593000
      4 C2          0.8870   -2.7460    0.6230 c3        1 IKT     -0.219000
      5 C3          0.9470   -1.4920   -0.2230 c3        1 IKT     -0.127000
      6 C4         -0.3270   -0.7000   -0.0410 c3        1 IKT     -0.149000
      7 C5          0.0110    0.7610    0.1550 c3        1 IKT     -0.158000
      8 C6         -1.2600    1.5430    0.4020 c3        1 IKT     -0.157000
      9 C7         -0.9150    2.9910    0.6710 c3        1 IKT     -0.143000
     10 C8         -2.1570    3.7290    1.1180 c3        1 IKT     -0.216000
     11 C9         -1.8520    5.2080    1.2280 c2        1 IKT      0.325000
     12 O3         -1.6100    5.7190    2.3540 o         1 IKT     -0.597000
     13 O4         -1.8460    5.9270    0.1960 o         1 IKT     -0.597000
     14 C1'         1.1010   -1.8730   -1.6800 c3        1 IKT     -0.023000
     15 C2'         0.1030   -2.9550   -2.0260 c3        1 IKT     -0.207000
     16 N1'         2.4190   -2.3530   -1.9080 n3        1 IKT     -0.347000
     17 H21         1.2310   -3.5020    0.1090 hc        1 IKT      0.063000
     18 H22        -0.0400   -2.9210    0.8810 hc        1 IKT      0.063000
     19 H3          1.7090   -0.9490    0.0530 hc        1 IKT      0.106000
     20 H41        -0.8080   -1.0320    0.7440 hc        1 IKT      0.063500
     21 H42        -0.8900   -0.8010   -0.8350 hc        1 IKT      0.063500
     22 H51         0.6080    0.8570    0.9240 hc        1 IKT      0.074500
     23 H52         0.4540    1.1030   -0.6460 hc        1 IKT      0.074500
     24 H61        -1.8360    1.4860   -0.3870 hc        1 IKT      0.061000
     25 H62        -1.7270    1.1700    1.1750 hc        1 IKT      0.061000
     26 H71        -0.2360    3.0400    1.3720 hc        1 IKT      0.079500
     27 H72        -0.5690    3.4010   -0.1470 hc        1 IKT      0.079500
     28 H81        -2.8710    3.5920    0.4650 hc        1 IKT      0.055500
     29 H82        -2.4420    3.3890    1.9900 hc        1 IKT      0.055500
     30 H1'         0.9380   -1.0880   -2.2410 h1        1 IKT      0.072000
     31 H2'1       -0.7590   -2.7500   -1.6080 hc        1 IKT      0.065667
     32 H2'2        0.4290   -3.8170   -1.6950 hc        1 IKT      0.065667
     33 H2'3       -0.0070   -2.9990   -3.0000 hc        1 IKT      0.065667
     34 HN11        2.9960   -1.6450   -1.9660 hn        1 IKT      0.156500
     35 HN12        2.4400   -2.8300   -2.6910 hn        1 IKT      0.156500
@<TRIPOS>BOND
     1    1    2 1   
     2    1    4 1   
     3    4    5 1   
     4    4   17 1   
     5    4   18 1   
     6    5    6 1   
     7    5   14 1   
     8    5   19 1   
     9    6    7 1   
    10    6   20 1   
    11    6   21 1   
    12    7    8 1   
    13    7   22 1   
    14    7   23 1   
    15    8    9 1   
    16    8   24 1   
    17    8   25 1   
    18    9   10 1   
    19    9   26 1   
    20    9   27 1   
    21   10   11 1   
    22   10   28 1   
    23   10   29 1   
    24   11   12 1   
    25   11   13 1   
    26   14   15 1   
    27   14   16 1   
    28   14   30 1   
    29   15   31 1   
    30   15   32 1   
    31   15   33 1   
    32   16   34 1   
    33   16   35 1   
@<TRIPOS>SUBSTRUCTURE
     1 IKT         1 TEMP              0 ****  ****    0 ROOT
