@<TRIPOS>MOLECULE
IKT
   36    35     1     0     0
SMALL
bcc


@<TRIPOS>ATOM
      1 C1         -0.1290    1.0100   -1.4310 c         1 IKT      0.879600
      2 O1          0.1190    1.2420   -2.6550 o         1 IKT     -0.849800
      3 O2         -0.2480    1.9500   -0.5850 o         1 IKT     -0.849800
      4 C2         -0.5400   -0.4030   -1.0240 c3        1 IKT     -0.200400
      5 C3         -2.0350   -0.4400   -0.7350 c3        1 IKT     -0.061700
      6 C4         -2.4780   -1.8630   -0.4250 c3        1 IKT     -0.082400
      7 C5         -3.9420   -1.9720   -0.0580 c3        1 IKT     -0.085400
      8 C6         -4.2950   -3.3510    0.4590 c3        1 IKT     -0.078400
      9 C7         -5.7890   -3.4690    0.6810 c3        1 IKT     -0.068400
     10 C8         -6.2070   -4.8620    1.0780 c3        1 IKT     -0.196400
     11 C9         -7.7360   -5.0270    0.9900 c         1 IKT      0.908600
     12 O3         -8.3060   -5.7110    1.8860 o         1 IKT     -0.851300
     13 O4         -8.3450   -4.4860    0.0200 o         1 IKT     -0.851300
     14 C1'        -2.8890    0.1610   -1.8770 c3        1 IKT      0.144500
     15 C2'        -2.6540   -0.5410   -3.2070 c3        1 IKT     -0.133100
     16 N1'        -2.6420    1.6430   -2.0240 n4        1 IKT     -0.872600
     17 H21         0.0150   -0.6990   -0.0990 hc        1 IKT      0.058700
     18 H22        -0.2790   -1.1250   -1.8380 hc        1 IKT      0.058700
     19 H3         -2.2180    0.1850    0.1880 hc        1 IKT      0.065700
     20 H41        -1.8550   -2.2310    0.4350 hc        1 IKT      0.051700
     21 H42        -2.2550   -2.5330   -1.2960 hc        1 IKT      0.051700
     22 H51        -4.1970   -1.2060    0.7200 hc        1 IKT      0.032200
     23 H52        -4.5780   -1.7610   -0.9600 hc        1 IKT      0.032200
     24 H61        -3.9620   -4.1250   -0.2810 hc        1 IKT      0.031200
     25 H62        -3.7480   -3.5510    1.4160 hc        1 IKT      0.031200
     26 H71        -6.1060   -2.7430    1.4740 hc        1 IKT      0.044200
     27 H72        -6.3400   -3.1910   -0.2590 hc        1 IKT      0.044200
     28 H81        -5.7460   -5.6150    0.3890 hc        1 IKT      0.021200
     29 H82        -5.8670   -5.0950    2.1170 hc        1 IKT      0.021200
     30 H1'        -3.9780    0.0620   -1.5850 hx        1 IKT      0.083700
     31 H2'1       -1.5830   -0.4350   -3.5250 hc        1 IKT      0.072367
     32 H2'2       -3.3190   -0.1290   -4.0030 hc        1 IKT      0.072367
     33 H2'3       -2.8880   -1.6270   -3.0820 hc        1 IKT      0.072367
     34 HN11       -2.2830    2.0300   -1.1300 hn        1 IKT      0.467133
     35 HN12       -3.4870    2.1200   -2.3150 hn        1 IKT      0.467133
     36 H1'3       -1.8820    1.7930   -2.7210 hn        1 IKT      0.467133
@<TRIPOS>BOND
     1    1    2 1   
     2    1    3 1   
     3    1    4 1   
     4    4    5 1   
     5    4   17 1   
     6    4   18 1   
     7    5    6 1   
     8    5   14 1   
     9    5   19 1   
    10    6    7 1   
    11    6   20 1   
    12    6   21 1   
    13    7    8 1   
    14    7   22 1   
    15    7   23 1   
    16    8    9 1   
    17    8   24 1   
    18    8   25 1   
    19    9   10 1   
    20    9   26 1   
    21    9   27 1   
    22   10   11 1   
    23   10   28 1   
    24   10   29 1   
    25   11   12 1   
    26   11   13 1   
    27   14   15 1   
    28   14   16 1   
    29   14   30 1   
    30   15   31 1   
    31   15   32 1   
    32   15   33 1   
    33   16   34 1   
    34   16   35 1   
    35   16   36 1   
@<TRIPOS>SUBSTRUCTURE
     1 IKT         1 TEMP              0 ****  ****    0 ROOT
