@<TRIPOS>MOLECULE
IKT
   36    35     1     0     0
SMALL
bcc


@<TRIPOS>ATOM
      1 C1         -0.0520    1.0090   -0.9730 c         1 IKT      0.636100
      2 O1          0.2110    1.4870    0.1330 o         1 IKT     -0.517000
      3 O2          0.3350    1.8100   -2.0100 oh        1 IKT     -0.593100
      4 C2         -0.6710   -0.3290   -1.2490 c3        1 IKT     -0.159400
      5 C3         -2.1510   -0.3630   -0.8830 c3        1 IKT     -0.055700
      6 C4         -2.5510   -1.7860   -0.5220 c3        1 IKT     -0.077400
      7 C5         -3.9860   -1.9020   -0.0550 c3        1 IKT     -0.081400
      8 C6         -4.2880   -3.3000    0.4460 c3        1 IKT     -0.079400
      9 C7         -5.7600   -3.4620    0.7650 c3        1 IKT     -0.067400
     10 C8         -6.0860   -4.8560    1.2420 c3        1 IKT     -0.195400
     11 C9         -7.6070   -5.0910    1.2830 c         1 IKT      0.908600
     12 O3         -8.0790   -5.7080    2.2800 o         1 IKT     -0.851800
     13 O4         -8.3080   -4.6770    0.3130 o         1 IKT     -0.851800
     14 C1'        -3.0460    0.2310   -1.9960 c3        1 IKT      0.162500
     15 C2'        -3.1570   -0.6960   -3.2060 c3        1 IKT     -0.092100
     16 N1'        -2.5830    1.5560   -2.3910 n8        1 IKT     -0.939800
     17 H21        -0.5330   -0.6060   -2.3260 hc        1 IKT      0.070700
     18 H22        -0.1150   -1.0820   -0.6260 hc        1 IKT      0.070700
     19 H3         -2.2940    0.2730    0.0400 hc        1 IKT      0.063700
     20 H41        -2.3810   -2.4630   -1.4000 hc        1 IKT      0.041700
     21 H42        -1.8750   -2.1430    0.3020 hc        1 IKT      0.041700
     22 H51        -4.6860   -1.6590   -0.8970 hc        1 IKT      0.039200
     23 H52        -4.1800   -1.1600    0.7630 hc        1 IKT      0.039200
     24 H61        -3.9900   -4.0490   -0.3340 hc        1 IKT      0.027700
     25 H62        -3.6760   -3.5140    1.3610 hc        1 IKT      0.027700
     26 H71        -6.0570   -2.7180    1.5500 hc        1 IKT      0.045200
     27 H72        -6.3780   -3.2440   -0.1480 hc        1 IKT      0.045200
     28 H81        -5.6450   -5.6120    0.5440 hc        1 IKT      0.019700
     29 H82        -5.6550   -5.0330    2.2580 hc        1 IKT      0.019700
     30 H1'        -4.0880    0.2950   -1.5430 h1        1 IKT      0.032700
     31 H2'1       -3.7500   -0.2120   -4.0210 hc        1 IKT      0.041033
     32 H2'2       -3.6820   -1.6350   -2.9070 hc        1 IKT      0.041033
     33 H2'3       -2.1520   -0.9590   -3.6120 hc        1 IKT      0.041033
     34 HN11       -0.0460    1.4840   -2.8380 ho        1 IKT      0.439000
     35 HN12       -3.2400    1.9750   -3.0180 hn        1 IKT      0.354800
     36 H1'3       -2.4700    2.1410   -1.5860 hn        1 IKT      0.354800
@<TRIPOS>BOND
     1    1    2 2   
     2    1    3 1   
     3    1    4 1   
     4    3   34 1   
     5    4    5 1   
     6    4   17 1   
     7    4   18 1   
     8    5    6 1   
     9    5   14 1   
    10    5   19 1   
    11    6    7 1   
    12    6   20 1   
    13    6   21 1   
    14    7    8 1   
    15    7   22 1   
    16    7   23 1   
    17    8    9 1   
    18    8   24 1   
    19    8   25 1   
    20    9   10 1   
    21    9   26 1   
    22    9   27 1   
    23   10   11 1   
    24   10   28 1   
    25   10   29 1   
    26   11   12 1   
    27   11   13 1   
    28   14   15 1   
    29   14   16 1   
    30   14   30 1   
    31   15   31 1   
    32   15   32 1   
    33   15   33 1   
    34   16   35 1   
    35   16   36 1   
@<TRIPOS>SUBSTRUCTURE
     1 IKT         1 TEMP              0 ****  ****    0 ROOT
