@<TRIPOS>MOLECULE
IKX
   30    31     1     0     0
SMALL
bcc


@<TRIPOS>ATOM
      1 O1          0.3470    1.3290    0.2410 o         1 IKX     -0.835300
      2 C1          1.0710    0.3080    0.0780 c         1 IKX      0.823600
      3 O2          1.1060   -0.6760    0.8650 o         1 IKX     -0.835300
      4 C2          1.9050    0.2320   -1.2160 ca        1 IKX      0.395800
      5 N1          3.2080    0.5880   -1.2280 nb        1 IKX     -0.637000
      6 C3          1.2140   -0.2230   -2.3640 ca        1 IKX     -0.278300
      7 C4          1.9080   -0.3080   -3.5830 ca        1 IKX     -0.071200
      8 C5          3.2590    0.0790   -3.6050 ca        1 IKX     -0.278300
      9 C6          3.8680    0.5080   -2.4050 ca        1 IKX      0.395800
     10 C7          5.3550    0.8950   -2.5180 c         1 IKX      0.823600
     11 O4          5.6360    2.1070   -2.7220 o         1 IKX     -0.835300
     12 O3          6.2040   -0.0370   -2.4770 o         1 IKX     -0.835300
     13 N2          1.2340   -0.8470   -4.7450 na        1 IKX     -0.035500
     14 C8          2.0080   -0.9010   -5.9600 cc        1 IKX     -0.092300
     15 C9          1.2510   -0.4550   -7.0120 cd        1 IKX     -0.244600
     16 C10         1.5940   -0.3920   -8.4420 c3        1 IKX      0.009900
     17 N4         -0.0400    0.0250   -6.5010 na        1 IKX     -0.209400
     18 C11         0.7540   -1.3760   -9.2460 c3        1 IKX      0.125400
     19 N3         -0.0140   -0.2370   -5.1000 na        1 IKX     -0.171700
     20 O5          1.1770   -1.2850  -10.6010 oh        1 IKX     -0.609800
     21 H3          0.1580   -0.5040   -2.2720 ha        1 IKX      0.131000
     22 H5          3.8650    0.0620   -4.5180 ha        1 IKX      0.131000
     23 H8          3.0260   -1.2970   -5.9410 h4        1 IKX      0.184000
     24 HB         -0.0780    0.6800   -4.6480 hn        1 IKX      0.207700
     25 H101        2.6810   -0.6350   -8.5800 hc        1 IKX      0.061200
     26 H102        1.4260    0.6440   -8.8400 hc        1 IKX      0.061200
     27 H4         -0.7620   -0.5860   -6.8710 hn        1 IKX      0.191700
     28 H111       -0.3360   -1.1190   -9.1760 h1        1 IKX      0.021700
     29 H112        0.9060   -2.4230   -8.8700 h1        1 IKX      0.021700
     30 HC          0.6710   -1.9460  -11.0860 ho        1 IKX      0.385000
@<TRIPOS>BOND
     1    1    2 1   
     2    2    3 1   
     3    2    4 1   
     4    4    5 ar  
     5    4    6 ar  
     6    5    9 ar  
     7    6    7 ar  
     8    6   21 1   
     9    7    8 ar  
    10    7   13 1   
    11    8    9 ar  
    12    8   22 1   
    13    9   10 1   
    14   10   11 1   
    15   10   12 1   
    16   13   14 1   
    17   13   19 1   
    18   14   15 2   
    19   14   23 1   
    20   15   16 1   
    21   15   17 1   
    22   16   18 1   
    23   16   25 1   
    24   16   26 1   
    25   17   19 1   
    26   17   27 1   
    27   18   20 1   
    28   18   28 1   
    29   18   29 1   
    30   19   24 1   
    31   20   30 1   
@<TRIPOS>SUBSTRUCTURE
     1 IKX         1 TEMP              0 ****  ****    0 ROOT
