@<TRIPOS>MOLECULE
IKX
   30    31     1     0     0
SMALL
bcc


@<TRIPOS>ATOM
      1 O1         -3.6460   -2.6640    1.2790 o         1 IKX     -0.835550
      2 C1         -3.6200   -1.9210    0.2600 c         1 IKX      0.823600
      3 O2         -4.4250   -2.0040   -0.7070 o         1 IKX     -0.835550
      4 C2         -2.4720   -0.8970    0.1600 ca        1 IKX      0.393800
      5 N1         -2.6480    0.3860    0.5440 nb        1 IKX     -0.636000
      6 C3         -1.2470   -1.3950   -0.3430 ca        1 IKX     -0.275300
      7 C4         -0.1530   -0.5210   -0.4480 ca        1 IKX     -0.081200
      8 C5         -0.3260    0.8100   -0.0340 ca        1 IKX     -0.275300
      9 C6         -1.5900    1.2210    0.4450 ca        1 IKX      0.393800
     10 C7         -1.6890    2.6990    0.8660 c         1 IKX      0.823600
     11 O4         -1.3970    2.9900    2.0580 o         1 IKX     -0.835550
     12 O3         -1.9800    3.5440   -0.0240 o         1 IKX     -0.835550
     13 N2          1.0890   -1.0080   -1.0170 na        1 IKX     -0.027500
     14 C8          2.1230   -0.0070   -1.1620 cc        1 IKX     -0.100300
     15 C9          3.3070   -0.4850   -0.6660 cd        1 IKX     -0.236600
     16 C10         4.6300    0.1610   -0.6390 c3        1 IKX      0.011900
     17 N4          3.0790   -1.8100   -0.0790 na        1 IKX     -0.214400
     18 C11         4.9410    0.6720    0.7620 c3        1 IKX      0.126400
     19 N3          1.7060   -2.1050   -0.3300 na        1 IKX     -0.175700
     20 O5          6.2370    1.2620    0.7170 oh        1 IKX     -0.623800
     21 H3         -1.1810   -2.4490   -0.6420 ha        1 IKX      0.131000
     22 H5          0.4850    1.5480   -0.0620 ha        1 IKX      0.131000
     23 H8          1.8900    0.9450   -1.6440 h4        1 IKX      0.182000
     24 HB          1.2750   -2.2080    0.5940 hn        1 IKX      0.206700
     25 H101        5.4340   -0.5550   -0.9560 hc        1 IKX      0.046200
     26 H102        4.6440    1.0230   -1.3580 hc        1 IKX      0.046200
     27 H4          3.6000   -2.4860   -0.6290 hn        1 IKX      0.196700
     28 H111        4.1780    1.4310    1.0780 h1        1 IKX      0.040700
     29 H112        4.9460   -0.1740    1.4990 h1        1 IKX      0.040700
     30 HC          6.3380    1.7490    1.5410 ho        1 IKX      0.391000
@<TRIPOS>BOND
     1    1    2 1   
     2    2    3 1   
     3    2    4 1   
     4    4    5 ar  
     5    4    6 ar  
     6    5    9 ar  
     7    6    7 ar  
     8    6   21 1   
     9    7    8 ar  
    10    7   13 1   
    11    8    9 ar  
    12    8   22 1   
    13    9   10 1   
    14   10   11 1   
    15   10   12 1   
    16   13   14 1   
    17   13   19 1   
    18   14   15 2   
    19   14   23 1   
    20   15   16 1   
    21   15   17 1   
    22   16   18 1   
    23   16   25 1   
    24   16   26 1   
    25   17   19 1   
    26   17   27 1   
    27   18   20 1   
    28   18   28 1   
    29   18   29 1   
    30   19   24 1   
    31   20   30 1   
@<TRIPOS>SUBSTRUCTURE
     1 IKX         1 TEMP              0 ****  ****    0 ROOT
