@<TRIPOS>MOLECULE
IKX
   30    31     1     0     0
SMALL
bcc


@<TRIPOS>ATOM
      1 O1          1.1120    1.6270    0.5100 o         1 IKX     -0.836550
      2 C1          1.3000    0.4460    0.1090 c         1 IKX      0.822600
      3 O2          0.8780   -0.5840    0.7020 o         1 IKX     -0.836550
      4 C2          2.0180    0.2590   -1.2410 ca        1 IKX      0.397800
      5 N1          3.3590    0.1010   -1.3050 nb        1 IKX     -0.640000
      6 C3          1.1850    0.2820   -2.3840 ca        1 IKX     -0.279300
      7 C4          1.7750    0.1460   -3.6520 ca        1 IKX     -0.012200
      8 C5          3.1640   -0.0510   -3.7240 ca        1 IKX     -0.279300
      9 C6          3.9160   -0.0520   -2.5270 ca        1 IKX      0.397800
     10 C7          5.4360   -0.2270   -2.7010 c         1 IKX      0.822600
     11 O4          6.0900    0.7780   -3.0970 o         1 IKX     -0.836550
     12 O3          5.9330   -1.3700   -2.5160 o         1 IKX     -0.836550
     13 N2          0.9630    0.3160   -4.8280 na        1 IKX     -0.105500
     14 C8          1.6070    0.4580   -6.0950 cc        1 IKX     -0.057300
     15 C9          0.8400   -0.1380   -7.0650 cd        1 IKX     -0.271600
     16 C10         1.0320   -0.1630   -8.5230 c3        1 IKX      0.017900
     17 N4         -0.2900   -0.8280   -6.4180 na        1 IKX     -0.160400
     18 C11         1.4640   -1.5500   -8.9790 c3        1 IKX      0.128400
     19 N3         -0.0940   -0.6430   -5.0270 na        1 IKX     -0.123700
     20 O5          1.5900   -1.5080  -10.3970 oh        1 IKX     -0.623800
     21 H3          0.1050    0.4150   -2.2530 ha        1 IKX      0.125500
     22 H5          3.6890   -0.1930   -4.6760 ha        1 IKX      0.125500
     23 H8          2.5380    1.0240   -6.1750 h4        1 IKX      0.188000
     24 HB         -0.9170   -0.1980   -4.6140 hn        1 IKX      0.176700
     25 H101        0.0860    0.1200   -9.0580 hc        1 IKX      0.044200
     26 H102        1.8190    0.5830   -8.8130 hc        1 IKX      0.044200
     27 H4         -1.1370   -0.3570   -6.7360 hn        1 IKX      0.140700
     28 H111        0.6950   -2.3170   -8.6970 h1        1 IKX      0.039700
     29 H112        2.4460   -1.8260   -8.5120 h1        1 IKX      0.039700
     30 HC          2.0010   -2.3400  -10.6540 ho        1 IKX      0.389000
@<TRIPOS>BOND
     1    1    2 1   
     2    2    3 1   
     3    2    4 1   
     4    4    5 ar  
     5    4    6 ar  
     6    5    9 ar  
     7    6    7 ar  
     8    6   21 1   
     9    7    8 ar  
    10    7   13 1   
    11    8    9 ar  
    12    8   22 1   
    13    9   10 1   
    14   10   11 1   
    15   10   12 1   
    16   13   14 1   
    17   13   19 1   
    18   14   15 2   
    19   14   23 1   
    20   15   16 1   
    21   15   17 1   
    22   16   18 1   
    23   16   25 1   
    24   16   26 1   
    25   17   19 1   
    26   17   27 1   
    27   18   20 1   
    28   18   28 1   
    29   18   29 1   
    30   19   24 1   
    31   20   30 1   
@<TRIPOS>SUBSTRUCTURE
     1 IKX         1 TEMP              0 ****  ****    0 ROOT
