@<TRIPOS>MOLECULE
IKX
   30    27     1     0     0
SMALL
bcc


@<TRIPOS>ATOM
      1 O1          3.6310    1.2660    4.0260 o         1 IKX     -0.570000
      2 C1          3.1700    1.8150    2.9900 c1        1 IKX      0.382000
      3 O2          3.9020    2.5610    2.2990 os        1 IKX     -0.569000
      4 C2          1.7330    1.5890    2.5920 c2        1 IKX     -0.022000
      5 N1          0.7410    2.2970    3.1950 n2        1 IKX     -0.108000
      6 C3          1.4240    0.6680    1.6020 c1        1 IKX     -0.234000
      7 C4          0.1220    0.4720    1.2320 c1        1 IKX     -0.040000
      8 C5         -0.8720    1.1820    1.8380 c1        1 IKX     -0.174000
      9 C6         -0.5610    2.1020    2.8270 c1        1 IKX     -0.030000
     10 C7         -1.6660    2.8340    3.5490 c2        1 IKX      0.383000
     11 O4         -2.2030    2.3210    4.5530 o         1 IKX     -0.569500
     12 O3         -2.0090    3.9960    3.1710 o         1 IKX     -0.569500
     13 N2         -0.1870   -0.4150    0.1790 n3        1 IKX     -0.103000
     14 C8          0.2760   -0.3290   -1.0980 c2        1 IKX     -0.071000
     15 C9          0.2540   -1.4840   -1.7550 c1        1 IKX     -0.211000
     16 C10         0.1360   -1.4980   -3.2820 c2        1 IKX     -0.076000
     17 N4         -0.2280   -2.5150   -1.0290 n3        1 IKX     -0.183000
     18 C11        -1.3060   -1.5400   -3.6700 c3        1 IKX     -0.025000
     19 N3         -0.5720   -1.9030    0.3300 n3        1 IKX     -0.124000
     20 O5         -1.4190   -1.4560   -5.1080 oh        1 IKX     -0.337000
     21 H3          2.1390    0.1580    1.1670 ha        1 IKX      0.127000
     22 H5         -1.8080    1.0420    1.5740 ha        1 IKX      0.136000
     23 H8          0.2030    0.5160   -1.5900 h4        1 IKX      0.181000
     24 HB         -0.0560   -2.2870    0.9760 hn        1 IKX      0.159000
     25 H101        0.5490   -0.6910   -3.6490 ha        1 IKX      0.100500
     26 H102        0.5900   -2.2860   -3.6350 ha        1 IKX      0.100500
     27 H4         -0.3260   -3.3870   -1.2920 hn        1 IKX      0.141000
     28 H111       -1.7810   -0.7770   -3.2580 h1        1 IKX      0.061500
     29 H112       -1.7050   -2.3810   -3.3580 h1        1 IKX      0.061500
     30 HC         -2.1690   -1.8700   -5.3750 ho        1 IKX      0.184000
@<TRIPOS>BOND
     1    1    2 1   
     2    2    4 1   
     3    4    5 1   
     4    4    6 1   
     5    5    9 1   
     6    6   21 1   
     7    7    8 1   
     8    7   13 1   
     9    8   22 1   
    10    9   10 1   
    11   10   11 1   
    12   10   12 1   
    13   13   14 1   
    14   13   19 1   
    15   14   15 1   
    16   14   23 1   
    17   15   17 1   
    18   16   18 1   
    19   16   25 1   
    20   16   26 1   
    21   17   19 1   
    22   17   27 1   
    23   18   20 1   
    24   18   28 1   
    25   18   29 1   
    26   19   24 1   
    27   20   30 1   
@<TRIPOS>SUBSTRUCTURE
     1 IKX         1 TEMP              0 ****  ****    0 ROOT
