@<TRIPOS>MOLECULE
IKX
   30    31     1     0     0
SMALL
bcc


@<TRIPOS>ATOM
      1 O1          1.1360    1.5750    0.5320 o         1 IKX     -0.836550
      2 C1          1.3120    0.3960    0.1170 c         1 IKX      0.822600
      3 O2          0.8800   -0.6350    0.6990 o         1 IKX     -0.836550
      4 C2          2.0260    0.2160   -1.2360 ca        1 IKX      0.397800
      5 N1          3.3650    0.0460   -1.3030 nb        1 IKX     -0.640000
      6 C3          1.1920    0.2600   -2.3780 ca        1 IKX     -0.279300
      7 C4          1.7790    0.1320   -3.6470 ca        1 IKX     -0.012200
      8 C5          3.1660   -0.0780   -3.7230 ca        1 IKX     -0.279300
      9 C6          3.9190   -0.1000   -2.5280 ca        1 IKX      0.397800
     10 C7          5.4370   -0.2880   -2.7060 c         1 IKX      0.822600
     11 O4          6.1000    0.7160   -3.0920 o         1 IKX     -0.836550
     12 O3          5.9240   -1.4370   -2.5320 o         1 IKX     -0.836550
     13 N2          0.9680    0.3220   -4.8210 na        1 IKX     -0.105500
     14 C8          1.6110    0.4730   -6.0870 cc        1 IKX     -0.057300
     15 C9          0.8380   -0.1060   -7.0620 cd        1 IKX     -0.271600
     16 C10         1.0290   -0.1170   -8.5210 c3        1 IKX      0.017900
     17 N4         -0.2970   -0.7930   -6.4230 na        1 IKX     -0.160400
     18 C11         1.4510   -1.5020   -8.9920 c3        1 IKX      0.128400
     19 N3         -0.0980   -0.6250   -5.0290 na        1 IKX     -0.123700
     20 O5          1.5760   -1.4450  -10.4100 oh        1 IKX     -0.623800
     21 H3          0.1140    0.4020   -2.2440 ha        1 IKX      0.125500
     22 H5          3.6890   -0.2150   -4.6780 ha        1 IKX      0.125500
     23 H8          2.5470    1.0310   -6.1610 h4        1 IKX      0.188000
     24 HB         -0.9170   -0.1780   -4.6110 hn        1 IKX      0.176700
     25 H101        1.8210    0.6260   -8.8030 hc        1 IKX      0.044200
     26 H102        0.0850    0.1790   -9.0520 hc        1 IKX      0.044200
     27 H4         -1.1400   -0.3120   -6.7340 hn        1 IKX      0.140700
     28 H111        0.6760   -2.2660   -8.7170 h1        1 IKX      0.039700
     29 H112        2.4310   -1.7900   -8.5290 h1        1 IKX      0.039700
     30 HC          1.9810   -2.2770  -10.6760 ho        1 IKX      0.389000
@<TRIPOS>BOND
     1    1    2 1   
     2    2    3 1   
     3    2    4 1   
     4    4    5 ar  
     5    4    6 ar  
     6    5    9 ar  
     7    6    7 ar  
     8    6   21 1   
     9    7    8 ar  
    10    7   13 1   
    11    8    9 ar  
    12    8   22 1   
    13    9   10 1   
    14   10   11 1   
    15   10   12 1   
    16   13   14 1   
    17   13   19 1   
    18   14   15 2   
    19   14   23 1   
    20   15   16 1   
    21   15   17 1   
    22   16   18 1   
    23   16   25 1   
    24   16   26 1   
    25   17   19 1   
    26   17   27 1   
    27   18   20 1   
    28   18   28 1   
    29   18   29 1   
    30   19   24 1   
    31   20   30 1   
@<TRIPOS>SUBSTRUCTURE
     1 IKX         1 TEMP              0 ****  ****    0 ROOT
