@<TRIPOS>MOLECULE
IKY
   26    27     1     0     0
SMALL
bcc


@<TRIPOS>ATOM
      1 FAC        -3.5520   -1.7040   -0.7500 f         1 IKY     -0.231300
      2 CAS        -2.3450   -1.2130   -0.3090 c3        1 IKY      0.689200
      3 FAD        -2.0960   -1.9370    0.8310 f         1 IKY     -0.231300
      4 FAE        -1.4470   -1.6900   -1.2310 f         1 IKY     -0.231300
      5 CAR        -2.3170    0.3040   -0.1130 ca        1 IKY     -0.132300
      6 CAI        -3.5320    0.9920   -0.1660 ca        1 IKY     -0.092000
      7 CAG        -3.5690    2.3760   -0.0040 ca        1 IKY     -0.114000
      8 CAF        -2.3860    3.0820    0.2110 ca        1 IKY     -0.108000
      9 CAH        -1.1700    2.4050    0.2710 ca        1 IKY     -0.094000
     10 CAP        -1.1250    1.0100    0.1150 ca        1 IKY     -0.081500
     11 CAQ         0.1790    0.3680    0.1910 cc        1 IKY      0.533900
     12 NAK         1.3930    0.8310   -0.1160 nd        1 IKY     -0.635000
     13 OAM         0.2340   -0.9590    0.6870 os        1 IKY     -0.359800
     14 CAJ         1.5730   -1.3050    0.6700 cc        1 IKY      0.264300
     15 CAO         2.2900   -0.2130    0.1800 cd        1 IKY      0.158500
     16 CAN         3.7500   -0.1580   -0.0120 c         1 IKY      0.537600
     17 OAA         4.4600   -1.1640    0.1640 o         1 IKY     -0.566100
     18 NAL         4.3410    1.1170   -0.2550 n         1 IKY     -0.334400
     19 OAB         5.5520    1.0630   -0.8140 oh        1 IKY     -0.435100
     20 HAI        -4.4680    0.4350   -0.3420 ha        1 IKY      0.160000
     21 HAG        -4.5320    2.9070   -0.0490 ha        1 IKY      0.148000
     22 HAF        -2.4090    4.1760    0.3350 ha        1 IKY      0.148000
     23 HAH        -0.2370    2.9670    0.4430 ha        1 IKY      0.163000
     24 HAJ         1.8190   -2.3070    1.0140 h4        1 IKY      0.091100
     25 HAL         3.7660    1.7310   -0.8240 hn        1 IKY      0.317500
     26 HAB         6.1570    0.7470   -0.1140 ho        1 IKY      0.435000
@<TRIPOS>BOND
     1    1    2 1   
     2    2    3 1   
     3    2    4 1   
     4    2    5 1   
     5    5    6 ar  
     6    5   10 ar  
     7    6    7 ar  
     8    6   20 1   
     9    7    8 ar  
    10    7   21 1   
    11    8    9 ar  
    12    8   22 1   
    13    9   10 ar  
    14    9   23 1   
    15   10   11 1   
    16   11   12 2   
    17   11   13 1   
    18   12   15 1   
    19   13   14 1   
    20   14   15 2   
    21   14   24 1   
    22   15   16 1   
    23   16   17 2   
    24   16   18 1   
    25   18   19 1   
    26   18   25 1   
    27   19   26 1   
@<TRIPOS>SUBSTRUCTURE
     1 IKY         1 TEMP              0 ****  ****    0 ROOT
