@<TRIPOS>MOLECULE
IKY
   27    28     1     0     0
SMALL
bcc


@<TRIPOS>ATOM
      1 FAC         1.9040    1.9410    2.0160 f         1 IKY     -0.232967
      2 CAS         2.8720    1.5400    1.1290 c3        1 IKY      0.690200
      3 FAD         4.0040    2.1820    1.5730 f         1 IKY     -0.232967
      4 FAE         3.0810    0.2210    1.4550 f         1 IKY     -0.232967
      5 CAR         2.5280    1.7950   -0.3400 ca        1 IKY     -0.116300
      6 CAI         1.4190    2.6000   -0.6120 ca        1 IKY     -0.086000
      7 CAG         1.0320    2.8570   -1.9290 ca        1 IKY     -0.083000
      8 CAF         1.7500    2.3030   -2.9870 ca        1 IKY     -0.098000
      9 CAH         2.8610    1.5010   -2.7290 ca        1 IKY     -0.083000
     10 CAP         3.2620    1.2480   -1.4080 ca        1 IKY     -0.131500
     11 CAQ         4.4450    0.4260   -1.2090 cc        1 IKY      0.625900
     12 NAK         5.4020    0.4320   -0.2880 nd        1 IKY     -0.680000
     13 OAM         4.6800   -0.5910   -2.1880 os        1 IKY     -0.343800
     14 CAJ         5.8370   -1.2280   -1.8130 cc        1 IKY      0.352300
     15 CAO         6.2910   -0.6140   -0.6380 cd        1 IKY      0.082500
     16 CAN         7.4620   -0.9630    0.1320 c         1 IKY      0.523600
     17 OAA         8.3340   -1.7790   -0.0850 o         1 IKY     -0.361100
     18 NAL         7.5660   -0.1370    1.4470 n4        1 IKY     -0.455300
     19 OAB         8.6700   -0.5460    2.1100 oh        1 IKY     -0.344300
     20 HAI         0.8390    3.0340    0.2220 ha        1 IKY      0.175000
     21 HAG         0.1550    3.4950   -2.1250 ha        1 IKY      0.168000
     22 HAF         1.4440    2.4960   -4.0280 ha        1 IKY      0.166000
     23 HAH         3.4280    1.0610   -3.5660 ha        1 IKY      0.160000
     24 HAJ         6.1760   -2.0470   -2.4520 h4        1 IKY      0.113100
     25 HAL         6.7080   -0.2990    2.0050 hn        1 IKY      0.477300
     26 HAB         8.7360   -0.0480    2.9570 ho        1 IKY      0.468000
     27 HAL2        7.6290    0.8680    1.2000 hn        1 IKY      0.477300
@<TRIPOS>BOND
     1    1    2 1   
     2    2    3 1   
     3    2    4 1   
     4    2    5 1   
     5    5    6 ar  
     6    5   10 ar  
     7    6    7 ar  
     8    6   20 1   
     9    7    8 ar  
    10    7   21 1   
    11    8    9 ar  
    12    8   22 1   
    13    9   10 ar  
    14    9   23 1   
    15   10   11 1   
    16   11   12 2   
    17   11   13 1   
    18   12   15 1   
    19   13   14 1   
    20   14   15 2   
    21   14   24 1   
    22   15   16 1   
    23   16   17 2   
    24   16   18 1   
    25   18   19 1   
    26   18   25 1   
    27   18   27 1   
    28   19   26 1   
@<TRIPOS>SUBSTRUCTURE
     1 IKY         1 TEMP              0 ****  ****    0 ROOT
