@<TRIPOS>MOLECULE
IL0
   24    23     1     0     0
SMALL
bcc


@<TRIPOS>ATOM
      1 N          -1.6700   -0.6390    0.5990 n3        1 IL0     -0.898800
      2 CA         -0.2930   -0.8870    0.3420 c3        1 IL0      0.151500
      3 C           0.4340   -1.1010    1.6500 c3        1 IL0      0.283900
      4 O          -0.0610   -0.2000    2.6140 oh        1 IL0     -0.635300
      5 CB          0.3070    0.2980   -0.3790 c3        1 IL0     -0.054700
      6 CG1        -0.6880    0.8300   -1.3890 c3        1 IL0     -0.079400
      7 CG2         1.5700   -0.1320   -1.0940 c3        1 IL0     -0.099100
      8 CD1        -0.6460    2.3420   -1.3890 c3        1 IL0     -0.092100
      9 OXT         0.2260   -2.4220    2.0920 oh        1 IL0     -0.635300
     10 H          -2.1800   -1.0660   -0.0310 hn        1 IL0      0.354800
     11 H2         -1.8860   -0.9540    1.4320 hn        1 IL0      0.354800
     12 HA         -0.2040   -1.6860   -0.2140 h1        1 IL0      0.076700
     13 HB          0.5210    0.9980    0.2660 hc        1 IL0      0.051700
     14 HG12       -1.5870    0.5290   -1.1500 hc        1 IL0      0.051700
     15 HG13       -0.4580    0.4970   -2.2790 hc        1 IL0      0.051700
     16 HG21        1.7720    0.5050   -1.8110 hc        1 IL0      0.039033
     17 HG22        1.4400   -1.0250   -1.4770 hc        1 IL0      0.039033
     18 HG23        2.3140   -0.1550   -0.4570 hc        1 IL0      0.039033
     19 HD11       -0.7740    2.6730   -0.4750 hc        1 IL0      0.031700
     20 HD12       -1.3600    2.6890   -1.9650 hc        1 IL0      0.031700
     21 HD13        0.2230    2.6450   -1.7270 hc        1 IL0      0.031700
     22 HXT         1.0090   -2.8380    2.1620 ho        1 IL0      0.414000
     23 H14         1.3920   -0.9470    1.5200 h2        1 IL0      0.077700
     24 H15         0.5990    0.0430    3.1580 ho        1 IL0      0.414000
@<TRIPOS>BOND
     1    1    2 1   
     2    1   10 1   
     3    1   11 1   
     4    2    3 1   
     5    2    5 1   
     6    2   12 1   
     7    3    4 1   
     8    3    9 1   
     9    3   23 1   
    10    4   24 1   
    11    5    6 1   
    12    5    7 1   
    13    5   13 1   
    14    6    8 1   
    15    6   14 1   
    16    6   15 1   
    17    7   16 1   
    18    7   17 1   
    19    7   18 1   
    20    8   19 1   
    21    8   20 1   
    22    8   21 1   
    23    9   22 1   
@<TRIPOS>SUBSTRUCTURE
     1 IL0         1 TEMP              0 ****  ****    0 ROOT
