@<TRIPOS>MOLECULE
IL0
   24    23     1     0     0
SMALL
bcc


@<TRIPOS>ATOM
      1 N           0.4490    1.8620   -0.2930 n3        1 IL0     -0.912800
      2 CA          0.3700    0.4930    0.1660 c3        1 IL0      0.141500
      3 C           1.5590   -0.3600   -0.3750 c3        1 IL0      0.338900
      4 O           2.6410    0.3300   -0.9420 oh        1 IL0     -0.633800
      5 CB         -0.9450   -0.2630   -0.1580 c3        1 IL0     -0.098700
      6 CG1        -2.1640    0.6080    0.1070 c3        1 IL0     -0.079400
      7 CG2        -1.0060   -1.5370    0.6600 c3        1 IL0     -0.093100
      8 CD1        -3.4610   -0.1470   -0.0460 c3        1 IL0     -0.092100
      9 OXT         2.1090   -1.0310    0.7430 oh        1 IL0     -0.633800
     10 H           0.4110    1.9100   -1.2910 hn        1 IL0      0.357300
     11 H2         -0.2950    2.4050    0.0990 hn        1 IL0      0.357300
     12 HA          0.4720    0.5240    1.2940 h1        1 IL0      0.085700
     13 HB         -0.9420   -0.5330   -1.2510 hc        1 IL0      0.046700
     14 HG12       -2.0990    1.0350    1.1430 hc        1 IL0      0.036700
     15 HG13       -2.1750    1.4690   -0.6140 hc        1 IL0      0.036700
     16 HG21       -0.0290   -2.0790    0.6250 hc        1 IL0      0.041700
     17 HG22       -1.2370   -1.3060    1.7280 hc        1 IL0      0.041700
     18 HG23       -1.8010   -2.2140    0.2620 hc        1 IL0      0.041700
     19 HD11       -3.4930   -0.6850   -1.0240 hc        1 IL0      0.035700
     20 HD12       -3.5840   -0.8970    0.7720 hc        1 IL0      0.035700
     21 HD13       -4.3240    0.5620   -0.0030 hc        1 IL0      0.035700
     22 HXT         2.9060   -1.4850    0.4430 ho        1 IL0      0.423000
     23 H14         1.2240   -1.0860   -1.1700 h2        1 IL0      0.065700
     24 H15         2.8740    1.0710   -0.3670 ho        1 IL0      0.423000
@<TRIPOS>BOND
     1    1    2 1   
     2    1   10 1   
     3    1   11 1   
     4    2    3 1   
     5    2    5 1   
     6    2   12 1   
     7    3    4 1   
     8    3    9 1   
     9    3   23 1   
    10    4   24 1   
    11    5    6 1   
    12    5    7 1   
    13    5   13 1   
    14    6    8 1   
    15    6   14 1   
    16    6   15 1   
    17    7   16 1   
    18    7   17 1   
    19    7   18 1   
    20    8   19 1   
    21    8   20 1   
    22    8   21 1   
    23    9   22 1   
@<TRIPOS>SUBSTRUCTURE
     1 IL0         1 TEMP              0 ****  ****    0 ROOT
