@<TRIPOS>MOLECULE
IL2
   57    55     1     0     0
SMALL
bcc


@<TRIPOS>ATOM
      1 C1          0.8650   -1.2750   -1.9920 c3        1 IL2     -0.096000
      2 O1          1.5820   -1.5580    1.4330 oh        1 IL2     -0.337000
      3 C2          2.4720   -1.2210   -1.9530 c3        1 IL2     -0.105000
      4 O2         -2.1370   -0.2420    0.8280 oh        1 IL2     -0.327000
      5 C3          0.3870   -1.5870   -0.5340 c3        1 IL2     -0.113000
      6 O3          4.3710    6.8070   -3.9370 o         1 IL2     -0.586000
      7 C4          2.7910   -1.1990   -0.6920 c3        1 IL2     -0.186000
      8 O4          3.5200    7.4690   -2.0440 o         1 IL2     -0.586000
      9 C5          1.5990   -1.9560    0.0970 c3        1 IL2      0.034000
     10 C6          0.3680    0.0920   -2.4320 c3        1 IL2     -0.114000
     11 C7          2.8380   -0.0890   -2.5680 c3        1 IL2     -0.114000
     12 C8          1.5550    0.8910   -2.3290 c2        1 IL2     -0.170000
     13 C9         -0.7500   -2.6850   -0.4450 c2        1 IL2     -0.135000
     14 C10         1.6060    2.2460   -2.0740 c1        1 IL2     -0.121000
     15 C11        -1.7510   -2.5800    0.5230 c1        1 IL2     -0.162000
     16 C12         2.9860    2.9730   -1.9930 c2        1 IL2     -0.140000
     17 C13        -1.7520   -1.4020    1.5000 c2        1 IL2      0.051000
     18 C14         2.8240    4.4160   -2.4150 c3        1 IL2     -0.143000
     19 C15        -2.7230   -1.6810    2.6180 c3        1 IL2     -0.123000
     20 C16         4.1460    5.1600   -2.2110 c3        1 IL2     -0.225000
     21 C17        -4.1210   -1.9130    2.0360 c3        1 IL2     -0.055000
     22 C18        -2.2810   -2.9120    3.3730 c3        1 IL2     -0.215000
     23 C19         4.0240    6.5600   -2.7540 c2        1 IL2      0.328000
     24 C20        -5.1730   -1.7070    3.1330 c1        1 IL2     -0.152000
     25 C21        -6.0000   -1.5460    3.9940 c1        1 IL2     -0.187000
     26 C22        -7.0540   -1.3420    5.0900 c2        1 IL2     -0.101000
     27 H1          0.5590   -1.9690   -2.6110 hc        1 IL2      0.087000
     28 HO1         2.1260   -2.0800    1.9040 ho        1 IL2      0.207000
     29 H2          2.8580   -2.0010   -2.3970 hc        1 IL2      0.088000
     30 HO2        -2.1360    0.4480    1.4000 ho        1 IL2      0.197000
     31 H3         -0.0350   -0.8220   -0.1090 hc        1 IL2      0.116000
     32 H4          2.8640   -0.2720   -0.3810 hc        1 IL2      0.090500
     33 H4A         3.6410   -1.6700   -0.5510 hc        1 IL2      0.090500
     34 H5          1.7240   -2.9330    0.0380 h1        1 IL2      0.113000
     35 H6         -0.1250    0.1660   -3.2740 hc        1 IL2      0.087000
     36 H6A        -0.3090    0.4010   -1.7900 hc        1 IL2      0.087000
     37 H7          3.6690    0.3890   -2.3660 hc        1 IL2      0.089000
     38 H7A         2.9800   -0.3250   -3.5080 hc        1 IL2      0.089000
     39 H9         -0.7510   -3.4410   -1.0700 ha        1 IL2      0.120000
     40 H10         0.7760    2.7510   -1.9430 ha        1 IL2      0.127000
     41 H11        -2.4560   -3.2650    0.5770 ha        1 IL2      0.125000
     42 H12         3.3170    2.9380   -1.0820 ha        1 IL2      0.078500
     43 H12A        3.6240    2.5300   -2.5890 ha        1 IL2      0.078500
     44 H13        -0.8510   -1.2820    1.8700 h4        1 IL2      0.101000
     45 H14         2.5720    4.4540   -3.3590 hc        1 IL2      0.086500
     46 H14A        2.1280    4.8370   -1.8750 hc        1 IL2      0.086500
     47 H15        -2.7460   -0.9160    3.2270 hc        1 IL2      0.090000
     48 H16         4.8700    4.6830   -2.6880 hc        1 IL2      0.058500
     49 H16A        4.3560    5.1980   -1.2530 hc        1 IL2      0.058500
     50 H17        -4.2810   -1.2790    1.3070 hc        1 IL2      0.107000
     51 H17A       -4.1830   -2.8230    1.6940 hc        1 IL2      0.107000
     52 H18        -2.6530   -2.8920    4.2770 hc        1 IL2      0.082667
     53 H18A       -2.5970   -3.7050    2.9110 hc        1 IL2      0.082667
     54 H18B       -1.2930   -2.9320    3.4230 hc        1 IL2      0.082667
     55 H22        -7.8670   -1.8590    4.8670 ha        1 IL2      0.088000
     56 H22A       -6.6970   -1.6490    5.9460 ha        1 IL2      0.088000
     57 H22B       -7.2780   -0.3980    5.1530 ha        1 IL2      0.088000
@<TRIPOS>BOND
     1    1    3 1   
     2    1    5 1   
     3    1   10 1   
     4    1   27 1   
     5    2    9 1   
     6    2   28 1   
     7    3    7 1   
     8    3   11 1   
     9    3   29 1   
    10    4   17 1   
    11    4   30 1   
    12    5    9 1   
    13    5   13 1   
    14    5   31 1   
    15    6   23 1   
    16    7    9 1   
    17    7   32 1   
    18    7   33 1   
    19    8   23 1   
    20    9   34 1   
    21   10   12 1   
    22   10   35 1   
    23   10   36 1   
    24   11   12 1   
    25   11   37 1   
    26   11   38 1   
    27   12   14 1   
    28   13   15 1   
    29   13   39 1   
    30   14   40 1   
    31   15   41 1   
    32   16   18 1   
    33   16   42 1   
    34   16   43 1   
    35   17   19 1   
    36   17   44 1   
    37   18   20 1   
    38   18   45 1   
    39   18   46 1   
    40   19   21 1   
    41   19   22 1   
    42   19   47 1   
    43   20   23 1   
    44   20   48 1   
    45   20   49 1   
    46   21   24 1   
    47   21   50 1   
    48   21   51 1   
    49   22   52 1   
    50   22   53 1   
    51   22   54 1   
    52   24   25 1   
    53   26   55 1   
    54   26   56 1   
    55   26   57 1   
@<TRIPOS>SUBSTRUCTURE
     1 IL2         1 TEMP              0 ****  ****    0 ROOT
