@<TRIPOS>MOLECULE
IL2
   57    52     1     0     0
SMALL
bcc


@<TRIPOS>ATOM
      1 C1         -1.5550   -0.1480   -1.4020 c3        1 IL2     -0.127000
      2 O1         -0.2910   -0.6560    3.0130 oh        1 IL2     -0.262000
      3 C2          2.1610   -0.4610    0.2920 c2        1 IL2      0.025000
      4 O2         -2.6800   -4.9090   -2.2730 oh        1 IL2     -0.221000
      5 C3         -1.9250   -1.1990   -0.3780 c3        1 IL2     -0.228000
      6 C4          1.5610   -0.3460    1.5760 c2        1 IL2     -0.487000
      7 C5          0.2710   -0.7530    1.8050 c1        1 IL2     -0.202000
      8 C6         -1.1210    1.1260   -0.6960 c3        1 IL2     -0.090000
      9 C7          3.4310   -0.1380   -0.0130 c2        1 IL2     -0.426000
     10 C8         -0.8440    2.1950   -1.6100 c1        1 IL2     -0.111000
     11 C9         -2.0890   -2.5710   -0.9880 c3        1 IL2     -0.155000
     12 C10        -0.6080    3.0980   -2.3600 c1        1 IL2     -0.304000
     13 C11        -3.3670   -2.7060   -1.7860 c3        1 IL2     -0.244000
     14 C12         3.4160    3.3540   -0.5340 c3        1 IL2     -0.212000
     15 C13        -3.6320   -4.0060   -2.4430 c1        1 IL2     -0.055000
     16 C14         2.9220    3.8100   -1.8470 c2        1 IL2     -0.132000
     17 C15        -1.9870   -4.4100    3.0470 c2        1 IL2     -0.212000
     18 C16         3.6200    4.5660   -2.6930 c2        1 IL2     -0.272000
     19 C17        -2.3930   -5.8430    3.0380 c3        1 IL2     -0.024000
     20 C18        -1.1230   -3.8860    2.1810 c2        1 IL2     -0.188000
     21 C19        -0.0680    6.8980   -2.0380 c1        1 IL2      0.419000
     22 C20        -2.4130   -6.4300    4.3460 c1        1 IL2     -0.128000
     23 C21        -2.4290   -6.9280    5.4360 c1        1 IL2     -0.209000
     24 C22        -2.4440   -7.5150    6.7340 c3        1 IL2     -0.093000
     25 H1         -2.4210    0.0640   -2.0810 hc        1 IL2      0.060500
     26 HO1         0.3090   -0.2780    3.6870 ho        1 IL2      0.104000
     27 H2         -0.7110   -0.5200   -2.0400 hc        1 IL2      0.060500
     28 H3         -2.8740   -0.9000    0.1380 hc        1 IL2      0.136000
     29 H4          1.5000   -0.8520   -0.5070 ha        1 IL2      0.088000
     30 H4A        -1.1050   -1.2300    0.4300 hc        1 IL2      0.136000
     31 H5          2.1860    0.0690    2.3860 ha        1 IL2      0.056000
     32 H6         -0.2040    0.8930   -0.0690 hc        1 IL2      0.130500
     33 H6A        -1.9270    1.4510    0.0190 hc        1 IL2      0.130500
     34 H7          3.8350   -0.2510   -1.0230 ha        1 IL2      0.076500
     35 H7A         4.1360    0.2410    0.7330 ha        1 IL2      0.076500
     36 H9         -1.2120   -2.8040   -1.6470 hc        1 IL2      0.080500
     37 H10         2.7560    3.7460    0.2800 hc        1 IL2      0.094333
     38 H11        -2.0870   -3.3340   -0.1630 hc        1 IL2      0.080500
     39 H12        -0.3990    3.8960   -3.0250 ha        1 IL2      0.212000
     40 H12A        3.3910    2.2310   -0.4790 hc        1 IL2      0.094333
     41 H13        -3.3910   -1.9320   -2.6050 hc        1 IL2      0.120000
     42 H14         4.4610    3.6970   -0.3380 hc        1 IL2      0.094333
     43 H14A        1.9010    3.4660   -2.0990 ha        1 IL2      0.132000
     44 H15        -4.2560   -2.5020   -1.1270 hc        1 IL2      0.120000
     45 H16         3.2210    4.8760   -3.6670 ha        1 IL2      0.097500
     46 H16A        4.6360    4.9160   -2.4770 ha        1 IL2      0.097500
     47 H17        -3.4270   -5.9220    2.5900 hc        1 IL2      0.092500
     48 H17A       -1.7020   -6.4430    2.3790 hc        1 IL2      0.092500
     49 H18        -0.6220   -4.4890    1.4100 ha        1 IL2      0.146000
     50 H18A       -2.4700   -3.7920    3.8200 ha        1 IL2      0.125000
     51 H18B       -0.8520   -2.8110    2.1760 ha        1 IL2      0.146000
     52 H22        -3.4900   -7.7830    7.0350 hc        1 IL2      0.082667
     53 H22A       -1.8210   -8.4470    6.7530 hc        1 IL2      0.082667
     54 H22B       -2.0310   -6.8000    7.4920 hc        1 IL2      0.082667
     55 O3          0.0430    7.4740   -1.0030 o         1 IL2     -0.209000
     56 O4         -0.1850    6.3460   -3.0840 o         1 IL2     -0.209000
     57 HO2        -2.9630   -5.7110   -2.7460 ho        1 IL2      0.231000
@<TRIPOS>BOND
     1    1    5 1   
     2    1    8 1   
     3    1   25 1   
     4    1   27 1   
     5    2    7 1   
     6    2   26 1   
     7    3    6 1   
     8    3    9 1   
     9    3   29 1   
    10    4   15 1   
    11    4   57 1   
    12    5   11 1   
    13    5   28 1   
    14    5   30 1   
    15    6    7 1   
    16    6   31 1   
    17    8   10 1   
    18    8   32 1   
    19    8   33 1   
    20    9   34 1   
    21    9   35 1   
    22   10   12 1   
    23   11   13 1   
    24   11   36 1   
    25   11   38 1   
    26   12   39 1   
    27   13   15 1   
    28   13   41 1   
    29   13   44 1   
    30   14   16 1   
    31   14   37 1   
    32   14   40 1   
    33   14   42 1   
    34   16   18 1   
    35   16   43 1   
    36   17   19 1   
    37   17   20 1   
    38   17   50 1   
    39   18   45 1   
    40   18   46 1   
    41   19   22 1   
    42   19   47 1   
    43   19   48 1   
    44   20   49 1   
    45   20   51 1   
    46   21   55 1   
    47   21   56 1   
    48   22   23 1   
    49   23   24 1   
    50   24   52 1   
    51   24   53 1   
    52   24   54 1   
@<TRIPOS>SUBSTRUCTURE
     1 IL2         1 TEMP              0 ****  ****    0 ROOT
