@<TRIPOS>MOLECULE
IL2
   57    58     1     0     0
SMALL
bcc


@<TRIPOS>ATOM
      1 C1         -0.4280   -0.2020    1.2980 c3        1 IL2     -0.055700
      2 O1          1.2240   -3.3240    0.5970 oh        1 IL2     -0.600800
      3 C2         -1.3630   -1.2020    2.0160 c3        1 IL2     -0.057700
      4 O2          4.6000    0.6860    2.0170 oh        1 IL2     -0.599800
      5 C3          0.8140   -0.9760    0.8340 c3        1 IL2     -0.034500
      6 C4         -0.7360   -2.5810    1.8810 c3        1 IL2     -0.111400
      7 C5          0.7350   -2.3580    1.5160 c3        1 IL2      0.144100
      8 C6         -1.2280    0.4270    0.1570 c3        1 IL2     -0.028200
      9 C7         -2.7420   -1.0800    1.3720 c3        1 IL2     -0.029200
     10 C8         -2.6250   -0.0900    0.2630 c2        1 IL2     -0.172400
     11 C9          2.0680   -0.2670    1.2000 c2        1 IL2     -0.135200
     12 C10        -3.6310    0.2870   -0.5340 c2        1 IL2     -0.128200
     13 C11         2.9560    0.1700    0.3030 c2        1 IL2     -0.217200
     14 C12        -5.0100   -0.2430   -0.4250 c3        1 IL2     -0.056200
     15 C13         4.2070    0.9020    0.6690 c3        1 IL2      0.173300
     16 C14        -6.0000    0.5300   -1.2750 c3        1 IL2     -0.064400
     17 C15         5.3470    0.5620   -0.3070 c3        1 IL2     -0.086700
     18 C16        -7.3990   -0.0170   -1.1370 c3        1 IL2     -0.196400
     19 C17         6.5500    1.4520   -0.0000 c3        1 IL2      0.002700
     20 C18         5.7180   -0.9020   -0.2420 c3        1 IL2     -0.096100
     21 C19        -8.3600    0.6400   -2.1450 c         1 IL2      0.908600
     22 C20         7.6050    1.3140   -0.9580 c1        1 IL2     -0.128100
     23 C21         8.4970    1.2180   -1.7520 c1        1 IL2     -0.154100
     24 C22         9.5560    1.1040   -2.6990 c3        1 IL2     -0.011000
     25 H1         -0.1200    0.6020    2.0180 hc        1 IL2      0.051700
     26 HO1         0.9220   -4.1840    0.9100 ho        1 IL2      0.397000
     27 H2         -1.4330   -0.9330    3.1030 hc        1 IL2      0.045700
     28 H3          0.7740   -1.1420   -0.2800 hc        1 IL2      0.081700
     29 H4         -0.8250   -3.1600    2.8330 hc        1 IL2      0.049200
     30 H4A        -1.2360   -3.1720    1.0710 hc        1 IL2      0.049200
     31 H5          1.3780   -2.3860    2.4390 h1        1 IL2      0.030700
     32 H6         -1.2140    1.5450    0.2430 hc        1 IL2      0.046700
     33 H6A        -0.7940    0.1670   -0.8430 hc        1 IL2      0.046700
     34 H7         -3.1040   -2.0650    0.9790 hc        1 IL2      0.050700
     35 H7A        -3.4970   -0.7290    2.1240 hc        1 IL2      0.050700
     36 H9          2.2310   -0.1120    2.2800 ha        1 IL2      0.126000
     37 H10        -3.4620    1.0290   -1.3330 ha        1 IL2      0.126000
     38 H11         2.8010    0.0320   -0.7790 ha        1 IL2      0.134000
     39 H12        -5.0110   -1.3230   -0.7390 hc        1 IL2      0.038700
     40 H12A       -5.3400   -0.2210    0.6500 hc        1 IL2      0.038700
     41 H13         4.0080    2.0150    0.6300 h1        1 IL2      0.078700
     42 H14        -5.9880    1.6100   -0.9750 hc        1 IL2      0.047200
     43 H14A       -5.7010    0.4840   -2.3570 hc        1 IL2      0.047200
     44 H15         4.9810    0.7970   -1.3460 hc        1 IL2      0.061700
     45 H16        -7.4010   -1.1190   -1.3330 hc        1 IL2      0.019200
     46 H16A       -7.7820    0.1470   -0.0990 hc        1 IL2      0.019200
     47 H17         6.2140    2.5270    0.0250 hc        1 IL2      0.065200
     48 H17A        6.9320    1.2000    1.0300 hc        1 IL2      0.065200
     49 H18         4.8160   -1.5370   -0.4240 hc        1 IL2      0.040367
     50 H18A        6.4870   -1.1370   -1.0160 hc        1 IL2      0.040367
     51 H18B        6.1400   -1.1600    0.7600 hc        1 IL2      0.040367
     52 H22         9.7930    2.1040   -3.1470 hc        1 IL2      0.050033
     53 H22A       10.4830    0.7100   -2.2070 hc        1 IL2      0.050033
     54 H22B        9.2700    0.4040   -3.5260 hc        1 IL2      0.050033
     55 O3         -9.5090    0.9660   -1.7320 o         1 IL2     -0.851300
     56 O4         -7.9660    0.8030   -3.3360 o         1 IL2     -0.851300
     57 HO2         4.6880   -0.2680    2.1380 ho        1 IL2      0.401000
@<TRIPOS>BOND
     1    1    3 1   
     2    1    5 1   
     3    1    8 1   
     4    1   25 1   
     5    2    7 1   
     6    2   26 1   
     7    3    6 1   
     8    3    9 1   
     9    3   27 1   
    10    4   15 1   
    11    4   57 1   
    12    5    7 1   
    13    5   11 1   
    14    5   28 1   
    15    6    7 1   
    16    6   29 1   
    17    6   30 1   
    18    7   31 1   
    19    8   10 1   
    20    8   32 1   
    21    8   33 1   
    22    9   10 1   
    23    9   34 1   
    24    9   35 1   
    25   10   12 2   
    26   11   13 2   
    27   11   36 1   
    28   12   14 1   
    29   12   37 1   
    30   13   15 1   
    31   13   38 1   
    32   14   16 1   
    33   14   39 1   
    34   14   40 1   
    35   15   17 1   
    36   15   41 1   
    37   16   18 1   
    38   16   42 1   
    39   16   43 1   
    40   17   19 1   
    41   17   20 1   
    42   17   44 1   
    43   18   21 1   
    44   18   45 1   
    45   18   46 1   
    46   19   22 1   
    47   19   47 1   
    48   19   48 1   
    49   20   49 1   
    50   20   50 1   
    51   20   51 1   
    52   21   55 1   
    53   21   56 1   
    54   22   23 3   
    55   23   24 1   
    56   24   52 1   
    57   24   53 1   
    58   24   54 1   
@<TRIPOS>SUBSTRUCTURE
     1 IL2         1 TEMP              0 ****  ****    0 ROOT
