@<TRIPOS>MOLECULE
IL2
   57    52     1     0     0
SMALL
bcc


@<TRIPOS>ATOM
      1 C1         -2.0640   -0.4170   -0.4760 c2        1 IL2     -0.082000
      2 O1         -0.0120    1.3090    2.2960 oh        1 IL2     -0.192000
      3 C2          3.1730    2.5640    1.3680 c3        1 IL2     -0.122000
      4 O2         -5.2750   -4.1670    0.6400 oh        1 IL2     -0.367000
      5 C3         -1.9590   -1.7580   -0.4880 c2        1 IL2     -0.257000
      6 C4          1.6670    2.6920    1.2610 c3        1 IL2     -0.279000
      7 C5          0.9990    2.0930    2.4480 c1        1 IL2     -0.019000
      8 C6         -1.0210    0.5080   -0.5040 c1        1 IL2     -0.040000
      9 C7          3.8660    3.3290    0.2690 c3        1 IL2     -0.237000
     10 C8         -0.3260    1.1610   -1.4280 c1        1 IL2     -0.276000
     11 C9         -3.1070   -2.6710   -0.2840 c3        1 IL2     -0.156000
     12 C10         0.3850    1.8130   -2.1820 c1        1 IL2      0.029000
     13 C11        -4.3690   -2.0210    0.0080 c1        1 IL2     -0.050000
     14 C12         4.9840    5.1200   -2.8850 cx        1 IL2     -0.213000
     15 C13        -5.5180   -2.7690    0.5010 c3        1 IL2     -0.089000
     16 C14         5.3410    4.3200   -4.1030 cx        1 IL2     -0.213000
     17 C15        -2.7270   -6.8470    2.7790 c1        1 IL2     -0.123500
     18 C16         3.9310    4.8100   -3.9150 cx        1 IL2     -0.191000
     19 C17        -2.7760   -7.9760    3.1850 c1        1 IL2     -0.063500
     20 C18        -2.6720   -5.5080    2.2980 c3        1 IL2     -0.119000
     21 C19         2.8470    3.8220   -3.5660 c2        1 IL2      0.341000
     22 C20        -2.8290   -9.2480    3.6410 c1        1 IL2     -0.063500
     23 C21        -2.8750  -10.3770    4.0460 c1        1 IL2     -0.123500
     24 C22        -2.9270  -11.7160    4.5260 c3        1 IL2     -0.119000
     25 H1         -3.0610    0.0550   -0.3090 ha        1 IL2      0.179000
     26 HO1        -0.2990    1.1100    1.3630 ho        1 IL2      0.211000
     27 H2          3.4560    1.4810    1.3080 hc        1 IL2      0.070000
     28 H3         -0.9930   -2.2590   -0.6410 ha        1 IL2      0.121000
     29 H4          3.5070    2.9410    2.3700 hc        1 IL2      0.070000
     30 H4A         1.3200    2.2540    0.2810 hc        1 IL2      0.105000
     31 H5          1.3870    3.7820    1.2500 hc        1 IL2      0.105000
     32 H6         -2.4260    0.6460    1.9590 ha        1 IL2      0.000750
     33 H6A        -2.4450    0.8410    2.6080 ha        1 IL2      0.000750
     34 H7          4.9710    3.1870    0.3400 hc        1 IL2      0.087000
     35 H7A         3.5290    2.9810   -0.7450 hc        1 IL2      0.087000
     36 H9         -3.2750   -3.2730   -1.2320 hc        1 IL2      0.116000
     37 H10         3.6460    4.4200    0.3510 hc        1 IL2      0.087000
     38 H11        -2.8450   -3.4330    0.5120 hc        1 IL2      0.116000
     39 H12         1.0510    2.4120   -2.8070 ha        1 IL2      0.330000
     40 H12A        5.3570    6.1540   -2.7910 hc        1 IL2      0.096500
     41 H13        -6.3740   -2.5990   -0.2140 h1        1 IL2      0.114500
     42 H14         4.9200    4.6000   -1.9110 hc        1 IL2      0.096500
     43 H14A        5.9710    4.7790   -4.8830 hc        1 IL2      0.096500
     44 H15        -5.7950   -2.3250    1.5030 h1        1 IL2      0.114500
     45 H16         5.5270    3.2370   -3.9860 hc        1 IL2      0.096500
     46 H16A        3.5610    5.6290   -4.5600 hc        1 IL2      0.107000
     47 H17        -5.5850   -3.8960    3.2790 ha        1 IL2      0.000750
     48 H17A       -4.9730   -4.1490    3.1350 ha        1 IL2      0.000750
     49 H18        -1.7580   -5.3540    1.6660 hc        1 IL2      0.102000
     50 H18A       -2.6370   -4.7830    3.1530 hc        1 IL2      0.102000
     51 H18B       -3.5790   -5.2730    1.6740 hc        1 IL2      0.102000
     52 H22        -2.0120  -12.2820    4.2110 hc        1 IL2      0.102000
     53 H22A       -2.9840  -11.7300    5.6460 hc        1 IL2      0.102000
     54 H22B       -3.8280  -12.2450    4.1190 hc        1 IL2      0.102000
     55 O3          1.6500    4.0740   -3.9020 o         1 IL2     -0.594000
     56 O4          3.1310    2.7570   -2.9320 o         1 IL2     -0.594000
     57 HO2        -6.0690   -4.5650    1.0140 ho        1 IL2      0.195000
@<TRIPOS>BOND
     1    1    5 1   
     2    1    8 1   
     3    1   25 1   
     4    2    7 1   
     5    2   26 1   
     6    3    6 1   
     7    3    9 1   
     8    3   27 1   
     9    3   29 1   
    10    4   15 1   
    11    4   57 1   
    12    5   11 1   
    13    5   28 1   
    14    6    7 1   
    15    6   30 1   
    16    6   31 1   
    17    8   10 1   
    18    9   34 1   
    19    9   35 1   
    20    9   37 1   
    21   10   12 1   
    22   11   13 1   
    23   11   36 1   
    24   11   38 1   
    25   12   39 1   
    26   13   15 1   
    27   14   16 1   
    28   14   18 1   
    29   14   40 1   
    30   14   42 1   
    31   15   41 1   
    32   15   44 1   
    33   16   18 1   
    34   16   43 1   
    35   16   45 1   
    36   17   19 1   
    37   17   20 1   
    38   18   21 1   
    39   18   46 1   
    40   19   22 1   
    41   20   49 1   
    42   20   50 1   
    43   20   51 1   
    44   21   55 1   
    45   21   56 1   
    46   22   23 1   
    47   23   24 1   
    48   24   52 1   
    49   24   53 1   
    50   24   54 1   
    51   32   33 1   
    52   47   48 1   
@<TRIPOS>SUBSTRUCTURE
     1 IL2         1 TEMP              0 ****  ****    0 ROOT
