@<TRIPOS>MOLECULE
IL3
   33    33     1     0     0
SMALL
bcc


@<TRIPOS>ATOM
      1 C11         0.2170    0.7830    1.1030 c3        1 IL3     -0.053000
      2 C10         1.4760    0.2970    0.6430 c1        1 IL3      0.003900
      3 C9          2.5390   -0.1100    0.2660 c1        1 IL3     -0.275100
      4 C8          3.8340   -0.6200   -0.0540 c3        1 IL3      0.227500
      5 O3          3.8540   -1.3890   -1.2890 os        1 IL3     -0.261900
      6 C5          3.7050   -0.7670   -2.4650 ca        1 IL3      0.285100
      7 C6          3.8410   -1.6110   -3.6150 ca        1 IL3     -0.186500
      8 C7          3.7470   -1.0670   -4.8700 ca        1 IL3     -0.033000
      9 C4          3.4450    0.6200   -2.6360 ca        1 IL3     -0.186500
     10 C3          3.3470    1.1450   -3.9040 ca        1 IL3     -0.033000
     11 C2          3.5140    0.3240   -5.0490 ca        1 IL3     -0.254300
     12 C1          3.5300    0.9020   -6.3770 c3        1 IL3      0.209100
     13 N2          2.0750    0.8280   -6.9980 n4        1 IL3     -0.797900
     14 S1          2.0620    1.4960   -8.6210 s6        1 IL3      1.280800
     15 O1          2.7970    0.6760   -9.4530 o         1 IL3     -0.463800
     16 O2          2.1360    2.8730   -8.5390 o         1 IL3     -0.463800
     17 N1          0.3210    1.2080   -9.1890 n4        1 IL3     -0.819500
     18 H1         -0.0250    1.7730    0.6380 hc        1 IL3      0.081367
     19 H2          0.2410    0.9130    2.2190 hc        1 IL3      0.081367
     20 H3         -0.6010    0.0570    0.8530 hc        1 IL3      0.081367
     21 H4          4.6050    0.1960   -0.1240 h1        1 IL3      0.109200
     22 H5          4.1610   -1.4110    0.6880 h1        1 IL3      0.109200
     23 H6          4.0410   -2.6860   -3.4580 ha        1 IL3      0.196500
     24 H7          3.8880   -1.7130   -5.7530 ha        1 IL3      0.152500
     25 H8          3.3260    1.2650   -1.7470 ha        1 IL3      0.196500
     26 H9          3.1680    2.2270   -4.0310 ha        1 IL3      0.152500
     27 H10         3.7920    1.9990   -6.3740 hx        1 IL3      0.122200
     28 H11         4.1790    0.3230   -7.0960 hx        1 IL3      0.122200
     29 H12         1.8170   -0.1640   -6.9330 hn        1 IL3      0.476300
     30 H13        -0.3130    0.7460   -8.5370 hn        1 IL3      0.489133
     31 H14         0.3160    0.6380  -10.0480 hn        1 IL3      0.489133
     32 H22         1.4770    1.3230   -6.3250 hn        1 IL3      0.476300
     33 H131       -0.1260    2.1030   -9.4390 hn        1 IL3      0.489133
@<TRIPOS>BOND
     1    1    2 1   
     2    1   18 1   
     3    1   19 1   
     4    1   20 1   
     5    2    3 3   
     6    3    4 1   
     7    4    5 1   
     8    4   21 1   
     9    4   22 1   
    10    5    6 1   
    11    6    7 ar  
    12    6    9 ar  
    13    7    8 ar  
    14    7   23 1   
    15    8   11 ar  
    16    8   24 1   
    17    9   10 ar  
    18    9   25 1   
    19   10   11 ar  
    20   10   26 1   
    21   11   12 1   
    22   12   13 1   
    23   12   27 1   
    24   12   28 1   
    25   13   14 1   
    26   13   29 1   
    27   13   32 1   
    28   14   15 2   
    29   14   16 2   
    30   14   17 1   
    31   17   30 1   
    32   17   31 1   
    33   17   33 1   
@<TRIPOS>SUBSTRUCTURE
     1 IL3         1 TEMP              0 ****  ****    0 ROOT
