@<TRIPOS>MOLECULE
IL3
   31    31     1     0     0
SMALL
bcc


@<TRIPOS>ATOM
      1 C11         0.9840    2.3120    0.2450 c3        1 IL3     -0.026000
      2 C10         1.9960    1.3610   -0.0780 c1        1 IL3     -0.090100
      3 C9          2.8480    0.5630   -0.3470 c1        1 IL3     -0.194100
      4 C8          3.8850   -0.3660   -0.7020 c3        1 IL3      0.217500
      5 O3          3.4460   -1.7280   -0.7300 os        1 IL3     -0.320900
      6 C5          3.2530   -2.3580    0.4830 ca        1 IL3      0.130100
      7 C6          2.9820   -3.7370    0.3890 ca        1 IL3     -0.175500
      8 C7          2.7670   -4.4680    1.5510 ca        1 IL3     -0.089000
      9 C4          3.3080   -1.7270    1.7310 ca        1 IL3     -0.175500
     10 C3          3.0960   -2.4800    2.8840 ca        1 IL3     -0.089000
     11 C2          2.8250   -3.8470    2.8050 ca        1 IL3     -0.154300
     12 C1          2.6270   -4.6580    4.0550 c3        1 IL3      0.270100
     13 N2          1.5470   -4.2240    4.8890 n3        1 IL3     -0.914100
     14 S1          0.1220   -4.9960    5.0360 s6        1 IL3      1.584800
     15 O1         -0.4360   -4.6210    6.2890 o         1 IL3     -0.654800
     16 O2          0.3200   -6.3820    4.7940 o         1 IL3     -0.654800
     17 N1         -0.8270   -4.4100    3.8750 n3        1 IL3     -1.027700
     18 H1          1.2990    2.9430    1.1160 hc        1 IL3      0.060033
     19 H2          0.0290    1.7890    0.5120 hc        1 IL3      0.060033
     20 H3          0.7860    2.9860   -0.6290 hc        1 IL3      0.060033
     21 H4          4.7680   -0.2580   -0.0130 h1        1 IL3      0.074700
     22 H5          4.2110   -0.2000   -1.7710 h1        1 IL3      0.074700
     23 H6          2.9420   -4.2150   -0.6000 ha        1 IL3      0.149000
     24 H7          2.5570   -5.5460    1.4800 ha        1 IL3      0.134500
     25 H8          3.5040   -0.6480    1.8080 ha        1 IL3      0.149000
     26 H9          3.1460   -1.9860    3.8670 ha        1 IL3      0.134500
     27 H10         2.4520   -5.7420    3.7800 h1        1 IL3      0.066200
     28 H11         3.5890   -4.6150    4.6490 h1        1 IL3      0.066200
     29 H12         1.7180   -3.3630    5.3500 hn        1 IL3      0.443800
     30 H13        -0.8720   -4.7820    2.9610 hn        1 IL3      0.446300
     31 H14        -1.4470   -3.6520    4.0090 hn        1 IL3      0.446300
@<TRIPOS>BOND
     1    1    2 1   
     2    1   18 1   
     3    1   19 1   
     4    1   20 1   
     5    2    3 3   
     6    3    4 1   
     7    4    5 1   
     8    4   21 1   
     9    4   22 1   
    10    5    6 1   
    11    6    7 ar  
    12    6    9 ar  
    13    7    8 ar  
    14    7   23 1   
    15    8   11 ar  
    16    8   24 1   
    17    9   10 ar  
    18    9   25 1   
    19   10   11 ar  
    20   10   26 1   
    21   11   12 1   
    22   12   13 1   
    23   12   27 1   
    24   12   28 1   
    25   13   14 1   
    26   13   29 1   
    27   14   15 2   
    28   14   16 2   
    29   14   17 1   
    30   17   30 1   
    31   17   31 1   
@<TRIPOS>SUBSTRUCTURE
     1 IL3         1 TEMP              0 ****  ****    0 ROOT
