@<TRIPOS>MOLECULE
IL3
   33    33     1     0     0
SMALL
bcc


@<TRIPOS>ATOM
      1 C11        -0.0250   -0.5000    0.6830 c3        1 IL3     -0.055000
      2 C10         1.3250   -0.3880    0.2420 c1        1 IL3     -0.001100
      3 C9          2.4640   -0.3080   -0.1270 c1        1 IL3     -0.277100
      4 C8          3.8450   -0.3480   -0.4900 c3        1 IL3      0.225500
      5 O3          4.4520    0.9710   -0.5790 os        1 IL3     -0.269900
      6 C5          4.1350    1.7800   -1.6010 ca        1 IL3      0.263100
      7 C6          3.1280    1.5290   -2.5670 ca        1 IL3     -0.199000
      8 C7          2.9340    2.4210   -3.6020 ca        1 IL3     -0.059500
      9 C4          4.9060    2.9790   -1.6830 ca        1 IL3     -0.199000
     10 C3          4.6970    3.8570   -2.7210 ca        1 IL3     -0.059500
     11 C2          3.6920    3.6110   -3.6920 ca        1 IL3     -0.388300
     12 C1          3.6850    4.3960   -4.9380 c3        1 IL3      0.189100
     13 N2          2.4860    5.3350   -4.9890 ny        1 IL3     -0.766900
     14 S1          2.4690    6.5400   -3.6690 s6        1 IL3      1.376800
     15 O1          1.3410    7.2980   -3.8690 o         1 IL3     -0.456300
     16 O2          3.7520    6.9810   -3.4640 o         1 IL3     -0.456300
     17 N1          2.0630    5.5410   -2.2080 nz        1 IL3     -0.836500
     18 H1         -0.7420   -0.2780   -0.1490 hc        1 IL3      0.082367
     19 H2         -0.2250    0.2060    1.5320 hc        1 IL3      0.082367
     20 H3         -0.2220   -1.5460    1.0470 hc        1 IL3      0.082367
     21 H4          4.0110   -0.8900   -1.4620 h1        1 IL3      0.111700
     22 H5          4.4730   -0.8100    0.3310 h1        1 IL3      0.111700
     23 H6          2.5270    0.6040   -2.5010 ha        1 IL3      0.201000
     24 H7          2.1960    2.1820   -4.3870 ha        1 IL3      0.159500
     25 H8          5.6970    3.1510   -0.9300 ha        1 IL3      0.201000
     26 H9          5.3490    4.7430   -2.8210 ha        1 IL3      0.159500
     27 H10         3.6120    3.7220   -5.8460 hx        1 IL3      0.143700
     28 H11         4.6130    5.0370   -5.0430 hx        1 IL3      0.143700
     29 H12         1.6400    4.7510   -5.0180 hn        1 IL3      0.490300
     30 H13         2.5930    5.8720   -1.3850 hn        1 IL3      0.503467
     31 H14         2.2970    4.5340   -2.2940 hn        1 IL3      0.503467
     32 H22         2.5140    5.8040   -5.9100 hn        1 IL3      0.490300
     33 H131        1.0690    5.6070   -1.9470 hn        1 IL3      0.503467
@<TRIPOS>BOND
     1    1    2 1   
     2    1   18 1   
     3    1   19 1   
     4    1   20 1   
     5    2    3 3   
     6    3    4 1   
     7    4    5 1   
     8    4   21 1   
     9    4   22 1   
    10    5    6 1   
    11    6    7 ar  
    12    6    9 ar  
    13    7    8 ar  
    14    7   23 1   
    15    8   11 ar  
    16    8   24 1   
    17    9   10 ar  
    18    9   25 1   
    19   10   11 ar  
    20   10   26 1   
    21   11   12 1   
    22   12   13 1   
    23   12   27 1   
    24   12   28 1   
    25   13   14 1   
    26   13   29 1   
    27   13   32 1   
    28   14   15 2   
    29   14   16 2   
    30   14   17 1   
    31   17   30 1   
    32   17   31 1   
    33   17   33 1   
@<TRIPOS>SUBSTRUCTURE
     1 IL3         1 TEMP              0 ****  ****    0 ROOT
