@<TRIPOS>MOLECULE
IL5
   23    24     1     0     0
SMALL
bcc


@<TRIPOS>ATOM
      1 C2          0.0140   -0.0450    0.0070 ca        1 IL5      0.122000
      2 C3          1.3890    0.0170   -0.0320 ca        1 IL5     -0.316500
      3 S2          2.5520    0.1280    1.2750 sy        1 IL5      1.517900
      4 O3          2.4900   -1.0210    2.0410 o         1 IL5     -0.601300
      5 O4          2.3620    1.3490    1.9040 o         1 IL5     -0.601300
      6 N2          3.8440    0.1400    0.2470 ns        1 IL5     -0.674300
      7 C7          3.5480    0.0710   -1.1210 c         1 IL5      0.708100
      8 O5          4.3620    0.0720   -2.0420 o         1 IL5     -0.494500
      9 C4          2.0480   -0.0020   -1.2810 ca        1 IL5      0.023400
     10 C5          1.3510   -0.0810   -2.4770 ca        1 IL5     -0.099000
     11 C6         -0.0430   -0.1320   -2.4220 ca        1 IL5      0.053000
     12 C1         -0.7390   -0.1040   -1.1940 ca        1 IL5     -0.548500
     13 S1         -2.3430   -0.2350   -1.1500 sy        1 IL5      1.487200
     14 O1         -2.9260   -0.5660   -2.3520 o         1 IL5     -0.555300
     15 O2         -2.8610   -0.6230    0.0640 o         1 IL5     -0.555300
     16 N1         -2.7560    1.6360   -1.0890 nz        1 IL5     -0.791500
     17 H1         -0.5170   -0.0650    0.9800 ha        1 IL5      0.180000
     18 H2          4.8050    0.1820    0.5000 hn        1 IL5      0.381500
     19 H3          1.8870   -0.1100   -3.4430 ha        1 IL5      0.204000
     20 H4         -0.6150   -0.2120   -3.3680 ha        1 IL5      0.181000
     21 H5         -3.2950    1.8520   -0.2500 hn        1 IL5      0.460800
     22 H6         -3.3230    1.9010   -1.8950 hn        1 IL5      0.460800
     23 H13        -1.9290    2.2260   -1.0850 hn        1 IL5      0.460800
@<TRIPOS>BOND
     1    1    2 ar  
     2    1   12 ar  
     3    1   17 1   
     4    2    3 1   
     5    2    9 ar  
     6    3    4 2   
     7    3    5 2   
     8    3    6 1   
     9    6    7 1   
    10    6   18 1   
    11    7    8 2   
    12    7    9 1   
    13    9   10 ar  
    14   10   11 ar  
    15   10   19 1   
    16   11   12 ar  
    17   11   20 1   
    18   12   13 1   
    19   13   14 2   
    20   13   15 2   
    21   13   16 1   
    22   16   21 1   
    23   16   22 1   
    24   16   23 1   
@<TRIPOS>SUBSTRUCTURE
     1 IL5         1 TEMP              0 ****  ****    0 ROOT
