@<TRIPOS>MOLECULE
IL5
   23    24     1     0     0
SMALL
bcc


@<TRIPOS>ATOM
      1 C2          0.0110   -0.0540    0.0020 ca        1 IL5      0.122000
      2 C3          1.3860    0.0090   -0.0310 ca        1 IL5     -0.316500
      3 S2          2.5440    0.1070    1.2820 sy        1 IL5      1.517900
      4 O3          2.4800   -1.0500    2.0350 o         1 IL5     -0.601300
      5 O4          2.3510    1.3210    1.9230 o         1 IL5     -0.601300
      6 N2          3.8400    0.1310    0.2590 n         1 IL5     -0.674300
      7 C7          3.5500    0.0760   -1.1110 c         1 IL5      0.708100
      8 O5          4.3670    0.0880   -2.0290 o         1 IL5     -0.494500
      9 C4          2.0500    0.0040   -1.2780 ca        1 IL5      0.023400
     10 C5          1.3580   -0.0620   -2.4770 ca        1 IL5     -0.099000
     11 C6         -0.0360   -0.1150   -2.4280 ca        1 IL5      0.053000
     12 C1         -0.7380   -0.1000   -1.2020 ca        1 IL5     -0.548500
     13 S1         -2.3410   -0.2330   -1.1660 sy        1 IL5      1.487200
     14 O1         -2.9190   -0.5520   -2.3740 o         1 IL5     -0.555300
     15 O2         -2.8640   -0.6340    0.0420 o         1 IL5     -0.555300
     16 N1         -2.7560    1.6370   -1.0870 n4        1 IL5     -0.791500
     17 H1         -0.5240   -0.0840    0.9730 ha        1 IL5      0.180000
     18 H2          4.8000    0.1710    0.5160 hn        1 IL5      0.381500
     19 H3          1.8980   -0.0800   -3.4420 ha        1 IL5      0.204000
     20 H4         -0.6050   -0.1850   -3.3770 ha        1 IL5      0.181000
     21 H5         -1.9290    2.2270   -1.0740 hn        1 IL5      0.460800
     22 H6         -3.2970    1.8430   -0.2470 hn        1 IL5      0.460800
     23 H13        -3.3210    1.9100   -1.8910 hn        1 IL5      0.460800
@<TRIPOS>BOND
     1    1    2 ar  
     2    1   12 ar  
     3    1   17 1   
     4    2    3 1   
     5    2    9 ar  
     6    3    4 2   
     7    3    5 2   
     8    3    6 1   
     9    6    7 1   
    10    6   18 1   
    11    7    8 2   
    12    7    9 1   
    13    9   10 ar  
    14   10   11 ar  
    15   10   19 1   
    16   11   12 ar  
    17   11   20 1   
    18   12   13 1   
    19   13   14 2   
    20   13   15 2   
    21   13   16 1   
    22   16   21 1   
    23   16   22 1   
    24   16   23 1   
@<TRIPOS>SUBSTRUCTURE
     1 IL5         1 TEMP              0 ****  ****    0 ROOT
