@<TRIPOS>MOLECULE
ILA
   57    59     1     0     0
SMALL
bcc


@<TRIPOS>ATOM
      1 N          -2.1400    2.0660    2.3790 n3        1 ILA     -0.912800
      2 CA         -1.6950    1.1930    3.4450 c3        1 ILA      0.107500
      3 CB         -2.5700   -0.0430    3.7590 c3        1 ILA     -0.097700
      4 CG2        -2.0990   -0.6690    5.0550 c3        1 ILA     -0.094100
      5 CG1        -4.0390    0.3450    3.8330 c3        1 ILA     -0.077400
      6 CD         -4.9190   -0.8020    4.2620 c3        1 ILA     -0.092100
      7 C          -0.2660    0.7190    3.1010 c         1 ILA      0.702100
      8 O          -0.0230   -0.4270    2.6800 o         1 ILA     -0.611100
      9 SA          2.4010    1.3320    3.0300 s6        1 ILA      1.578500
     10 O1A         3.0160    2.6040    2.9070 o         1 ILA     -0.637800
     11 O2A         2.8600    0.5220    4.0870 o         1 ILA     -0.637800
     12 N3A         0.7700    1.6310    3.2430 n         1 ILA     -0.667300
     13 N5'         2.4920    0.5210    1.6420 n3        1 ILA     -0.912100
     14 C5'         2.7320    1.1230    0.3640 c3        1 ILA      0.211800
     15 C4'         3.2560    0.1300   -0.6860 c3        1 ILA      0.084100
     16 O4'         2.3150   -0.9400   -0.8600 os        1 ILA     -0.408600
     17 C1'         1.5990   -0.8030   -2.0890 c3        1 ILA      0.225800
     18 N9          0.2130   -0.4710   -1.8420 na        1 ILA     -0.294000
     19 C4         -0.7360   -0.2250   -2.8480 ca        1 ILA      0.447800
     20 N3         -0.6000   -0.1550   -4.2070 nb        1 ILA     -0.758000
     21 C2         -1.7740    0.0970   -4.8320 ca        1 ILA      0.689900
     22 N1         -3.0180    0.2820   -4.3170 nb        1 ILA     -0.790000
     23 C6         -3.1590    0.2240   -2.9490 ca        1 ILA      0.756200
     24 N6         -4.3740    0.4570   -2.3550 nh        1 ILA     -0.949500
     25 C5         -2.0000   -0.0450   -2.1460 ca        1 ILA     -0.223200
     26 N7         -1.8050   -0.1920   -0.7640 nc        1 ILA     -0.563100
     27 C8         -0.4970   -0.4520   -0.6170 cd        1 ILA      0.431700
     28 C2'         2.3520    0.2560   -2.9620 c3        1 ILA      0.083100
     29 O2'         2.9620   -0.4020   -4.0490 oh        1 ILA     -0.592800
     30 C3'         3.4590    0.8270   -2.0480 c3        1 ILA      0.131100
     31 O3'         4.7610    0.6320   -2.5390 oh        1 ILA     -0.570800
     32 HN1        -2.2680    1.5540    1.5260 hn        1 ILA      0.367800
     33 HN2        -3.0040    2.5040    2.6320 hn        1 ILA      0.367800
     34 HA1        -1.6450    1.8150    4.3900 h1        1 ILA      0.074700
     35 HB         -2.4340   -0.7930    2.9280 hc        1 ILA      0.080700
     36 HG21       -2.3320   -0.0070    5.9240 hc        1 ILA      0.042700
     37 HG22       -2.6050   -1.6520    5.2130 hc        1 ILA      0.042700
     38 HG23       -0.9970   -0.8480    5.0220 hc        1 ILA      0.042700
     39 HG11       -4.3850    0.6940    2.8230 hc        1 ILA      0.034700
     40 HG12       -4.1630    1.2010    4.5480 hc        1 ILA      0.034700
     41 HD1        -5.9950   -0.5270    4.1350 hc        1 ILA      0.037700
     42 HD2        -4.7100   -1.7110    3.6490 hc        1 ILA      0.037700
     43 HD3        -4.7490   -1.0540    5.3370 hc        1 ILA      0.037700
     44 HNA         0.4770    2.5620    3.4490 hn        1 ILA      0.348500
     45 HN5         2.2540   -0.4470    1.5910 hn        1 ILA      0.472800
     46 H51         1.7750    1.5750   -0.0310 h1        1 ILA      0.059700
     47 H52         3.4950    1.9480    0.4800 h1        1 ILA      0.059700
     48 H4          4.2020   -0.3680   -0.3380 h1        1 ILA      0.104700
     49 H1          1.6420   -1.8250   -2.5790 h2        1 ILA      0.105700
     50 H2         -1.7200    0.1590   -5.9410 h5        1 ILA      0.053100
     51 H61        -5.1910    0.5260   -2.9120 hn        1 ILA      0.443300
     52 H62        -4.4690    0.2430   -1.3930 hn        1 ILA      0.443300
     53 H8          0.0160   -0.6450    0.3400 h5        1 ILA      0.101800
     54 H2'         1.6770    1.0790   -3.3190 h1        1 ILA      0.086700
     55 HO2         2.2850   -0.5030   -4.7320 ho        1 ILA      0.437000
     56 H3          3.3580    1.9440   -1.9540 h1        1 ILA      0.097700
     57 HO3         4.8240   -0.2690   -2.8870 ho        1 ILA      0.426000
@<TRIPOS>BOND
     1    1    2 1   
     2    1   32 1   
     3    1   33 1   
     4    2    3 1   
     5    2    7 1   
     6    2   34 1   
     7    3    4 1   
     8    3    5 1   
     9    3   35 1   
    10    4   36 1   
    11    4   37 1   
    12    4   38 1   
    13    5    6 1   
    14    5   39 1   
    15    5   40 1   
    16    6   41 1   
    17    6   42 1   
    18    6   43 1   
    19    7    8 2   
    20    7   12 1   
    21    9   10 2   
    22    9   11 2   
    23    9   12 1   
    24    9   13 1   
    25   12   44 1   
    26   13   14 1   
    27   13   45 1   
    28   14   15 1   
    29   14   46 1   
    30   14   47 1   
    31   15   16 1   
    32   15   30 1   
    33   15   48 1   
    34   16   17 1   
    35   17   18 1   
    36   17   28 1   
    37   17   49 1   
    38   18   19 1   
    39   18   27 1   
    40   19   20 ar  
    41   19   25 ar  
    42   20   21 ar  
    43   21   22 ar  
    44   21   50 1   
    45   22   23 ar  
    46   23   24 1   
    47   23   25 ar  
    48   24   51 1   
    49   24   52 1   
    50   25   26 1   
    51   26   27 2   
    52   27   53 1   
    53   28   29 1   
    54   28   30 1   
    55   28   54 1   
    56   29   55 1   
    57   30   31 1   
    58   30   56 1   
    59   31   57 1   
@<TRIPOS>SUBSTRUCTURE
     1 ILA         1 TEMP              0 ****  ****    0 ROOT
