@<TRIPOS>MOLECULE
ILA
   57    59     1     0     0
SMALL
bcc


@<TRIPOS>ATOM
      1 N          -0.6260   -0.1030   -0.0630 n3        1 ILA     -0.899800
      2 CA          0.8020    0.0910    0.0130 c3        1 ILA      0.126500
      3 CB          1.3860   -0.2290    1.4110 c3        1 ILA     -0.057700
      4 CG2         2.8990   -0.1770    1.3650 c3        1 ILA     -0.106100
      5 CG1         0.8440    0.7550    2.4400 c3        1 ILA     -0.078400
      6 CD          1.0140    0.2510    3.8510 c3        1 ILA     -0.093100
      7 C           1.5640   -0.7820   -1.0150 c         1 ILA      0.647100
      8 O           1.3100   -1.9970   -1.1430 o         1 ILA     -0.618100
      9 SA          3.5080   -0.9840   -2.9400 s6        1 ILA      1.577500
     10 O1A         4.0000    0.0280   -3.8030 o         1 ILA     -0.638800
     11 O2A         4.4790   -1.7190   -2.2330 o         1 ILA     -0.638800
     12 N3A         2.5190   -0.2010   -1.8400 n         1 ILA     -0.671300
     13 N5'         2.5320   -1.9840   -3.7390 n3        1 ILA     -0.912100
     14 C5'         1.9560   -1.7080   -5.0210 c3        1 ILA      0.210800
     15 C4'         1.4920   -2.9720   -5.7630 c3        1 ILA      0.118100
     16 O4'         0.5510   -3.7030   -4.9620 os        1 ILA     -0.406600
     17 C1'        -0.7890   -3.4890   -5.4130 c3        1 ILA      0.228800
     18 N9         -1.5460   -2.7790   -4.4060 na        1 ILA     -0.294000
     19 C4         -2.8440   -2.2710   -4.5730 ca        1 ILA      0.449800
     20 N3         -3.6720   -2.2730   -5.6610 nb        1 ILA     -0.766000
     21 C2         -4.8660   -1.6860   -5.4040 ca        1 ILA      0.692900
     22 N1         -5.3340   -1.1150   -4.2640 nb        1 ILA     -0.792000
     23 C6         -4.5010   -1.1000   -3.1680 ca        1 ILA      0.762200
     24 N6         -4.8870   -0.5030   -1.9970 nh        1 ILA     -0.952500
     25 C5         -3.1990   -1.6950   -3.2820 ca        1 ILA     -0.227200
     26 N7         -2.1410   -1.8640   -2.3760 nc        1 ILA     -0.569100
     27 C8         -1.1870   -2.5110   -3.0620 cd        1 ILA      0.428700
     28 C2'        -0.7160   -2.7420   -6.7870 c3        1 ILA      0.084100
     29 O2'        -1.3080   -3.5260   -7.7960 oh        1 ILA     -0.595800
     30 C3'         0.7930   -2.5990   -7.0860 c3        1 ILA      0.131100
     31 O3'         1.2800   -3.4790   -8.0750 oh        1 ILA     -0.585800
     32 HN1        -0.8770   -1.0480    0.1530 hn        1 ILA      0.372800
     33 HN2        -0.9700    0.1360   -0.9720 hn        1 ILA      0.372800
     34 HA1         1.0000    1.1840   -0.2030 h1        1 ILA      0.068700
     35 HB          1.0700   -1.2710    1.6980 hc        1 ILA      0.068700
     36 HG21        3.3160   -0.2530    2.3980 hc        1 ILA      0.043367
     37 HG22        3.3090   -1.0270    0.7660 hc        1 ILA      0.043367
     38 HG23        3.2510    0.7830    0.9150 hc        1 ILA      0.043367
     39 HG11       -0.2470    0.9420    2.2560 hc        1 ILA      0.050200
     40 HG12        1.3730    1.7380    2.3240 hc        1 ILA      0.050200
     41 HD1         0.4910   -0.7270    3.9870 hc        1 ILA      0.034700
     42 HD2         0.5810    0.9850    4.5730 hc        1 ILA      0.034700
     43 HD3         2.0920    0.1080    4.1040 hc        1 ILA      0.034700
     44 HNA         2.6320    0.7810   -1.7210 hn        1 ILA      0.338500
     45 HN5         2.1910   -2.8220   -3.3170 hn        1 ILA      0.474800
     46 H51         2.7190   -1.1800   -5.6660 h1        1 ILA      0.056700
     47 H52         1.0630   -1.0250   -4.8990 h1        1 ILA      0.056700
     48 H4          2.3420   -3.6880   -5.9360 h1        1 ILA      0.117700
     49 H1         -1.2380   -4.5210   -5.5430 h2        1 ILA      0.108700
     50 H2         -5.5800   -1.6670   -6.2560 h5        1 ILA      0.053100
     51 H61        -5.8120   -0.1670   -1.8880 hn        1 ILA      0.448800
     52 H62        -4.3120   -0.6090   -1.1990 hn        1 ILA      0.448800
     53 H8         -0.2100   -2.8260   -2.6610 h5        1 ILA      0.104800
     54 H2'        -1.1960   -1.7270   -6.7410 h1        1 ILA      0.077700
     55 HO2        -2.2670   -3.4370   -7.6980 ho        1 ILA      0.442000
     56 H3          1.0260   -1.5440   -7.3960 h1        1 ILA      0.063700
     57 HO3         0.5980   -3.5800   -8.7530 ho        1 ILA      0.435000
@<TRIPOS>BOND
     1    1    2 1   
     2    1   32 1   
     3    1   33 1   
     4    2    3 1   
     5    2    7 1   
     6    2   34 1   
     7    3    4 1   
     8    3    5 1   
     9    3   35 1   
    10    4   36 1   
    11    4   37 1   
    12    4   38 1   
    13    5    6 1   
    14    5   39 1   
    15    5   40 1   
    16    6   41 1   
    17    6   42 1   
    18    6   43 1   
    19    7    8 2   
    20    7   12 1   
    21    9   10 2   
    22    9   11 2   
    23    9   12 1   
    24    9   13 1   
    25   12   44 1   
    26   13   14 1   
    27   13   45 1   
    28   14   15 1   
    29   14   46 1   
    30   14   47 1   
    31   15   16 1   
    32   15   30 1   
    33   15   48 1   
    34   16   17 1   
    35   17   18 1   
    36   17   28 1   
    37   17   49 1   
    38   18   19 1   
    39   18   27 1   
    40   19   20 ar  
    41   19   25 ar  
    42   20   21 ar  
    43   21   22 ar  
    44   21   50 1   
    45   22   23 ar  
    46   23   24 1   
    47   23   25 ar  
    48   24   51 1   
    49   24   52 1   
    50   25   26 1   
    51   26   27 2   
    52   27   53 1   
    53   28   29 1   
    54   28   30 1   
    55   28   54 1   
    56   29   55 1   
    57   30   31 1   
    58   30   56 1   
    59   31   57 1   
@<TRIPOS>SUBSTRUCTURE
     1 ILA         1 TEMP              0 ****  ****    0 ROOT
