@<TRIPOS>MOLECULE
ILA
   57    52     1     0     0
SMALL
bcc


@<TRIPOS>ATOM
      1 N           1.6010   -4.2830    4.2070 n3        1 ILA     -0.327000
      2 CA          1.9390   -2.9850    4.3010 c3        1 ILA     -0.023000
      3 CB          3.3990   -2.8810    4.6090 c3        1 ILA     -0.098000
      4 CG2         3.8450   -1.3790    4.5520 c3        1 ILA     -0.223000
      5 CG1         3.6670   -3.4380    5.9800 c3        1 ILA     -0.158000
      6 CD          5.1030   -4.0040    6.0270 c3        1 ILA     -0.212000
      7 C           1.6350   -2.2650    2.9280 c2        1 ILA      0.283000
      8 O           2.0800   -2.7320    1.8820 o         1 ILA     -0.359000
      9 SA          0.8630   -0.0210    1.6620 ss        1 ILA      2.805000
     10 O1A         1.9550    0.9160    1.9130 o         1 ILA     -0.922000
     11 O2A         1.3020   -0.6450    0.4220 o         1 ILA     -0.922000
     12 N3A         0.7360   -1.1360    2.8860 n2        1 ILA     -0.855000
     13 N5'        -0.5730    0.7720    1.4550 n2        1 ILA     -0.885000
     14 C5'        -0.7420    1.6680    0.3490 c3        1 ILA     -0.026000
     15 C4'        -1.8010    1.1060   -0.6150 c3        1 ILA     -0.040000
     16 O4'        -2.4080    2.0770   -1.2350 os        1 ILA     -0.271000
     17 C1'        -2.7390    1.5290   -2.7010 c3        1 ILA      0.163000
     18 N9         -2.8930    2.5820   -3.5810 n3        1 ILA     -0.209000
     19 C4         -2.7330    2.6890   -4.9350 c1        1 ILA      0.070000
     20 N3         -2.1260    1.8920   -5.8410 n1        1 ILA     -0.206000
     21 C2         -2.1580    2.2180   -7.1710 c1        1 ILA      0.023000
     22 N1         -2.7970    3.3400   -7.5800 n1        1 ILA     -0.269000
     23 C6         -3.3990    4.1320   -6.6860 c1        1 ILA      0.238000
     24 N6         -3.9010    5.2150   -7.5310 n2        1 ILA     -0.355000
     25 C5         -3.3690    3.8060   -5.3420 c1        1 ILA     -0.242000
     26 N7         -3.9240    4.3950   -4.2520 n1        1 ILA     -0.121000
     27 C8         -3.6260    3.6320   -3.1630 c1        1 ILA     -0.045000
     28 C2'        -1.6960    0.7730   -3.0620 c3        1 ILA      0.017000
     29 O2'        -2.1570   -0.3750   -3.9100 oh        1 ILA     -0.315000
     30 C3'        -1.1080    0.2610   -1.7480 c3        1 ILA     -0.018000
     31 O3'        -1.3910   -1.0270   -1.5960 oh        1 ILA     -0.327000
     32 HN1         0.7270   -4.3670    4.2670 hn        1 ILA      0.162500
     33 HN2         1.8900   -4.6190    3.3920 hn        1 ILA      0.162500
     34 HA1         1.4140   -2.5560    5.0270 h1        1 ILA      0.113000
     35 HB          3.9010   -3.3900    3.9520 hc        1 ILA      0.109000
     36 HG21        4.6880   -1.2960    4.9140 hc        1 ILA      0.082333
     37 HG22        3.2250   -0.8380    5.0550 hc        1 ILA      0.082333
     38 HG23        3.8580   -1.0720    3.5960 hc        1 ILA      0.082333
     39 HG11        3.0250   -4.1560    6.1730 hc        1 ILA      0.091500
     40 HG12        3.5680   -2.7000    6.6730 hc        1 ILA      0.091500
     41 HD1         5.4120   -4.2280    5.0740 hc        1 ILA      0.075333
     42 HD2         5.1170   -4.7840    6.5540 hc        1 ILA      0.075333
     43 HD3         5.7040   -3.3370    6.4160 hc        1 ILA      0.075333
     44 HNA         0.0880   -1.0270    3.5570 hn        1 ILA      0.256000
     45 HN5        -1.2300    0.7150    2.1070 hn        1 ILA      0.247000
     46 H51        -1.0390    2.5560    0.6830 h1        1 ILA      0.106500
     47 H52         0.1210    1.7670   -0.1280 h1        1 ILA      0.106500
     48 H4         -2.4130    0.5860   -0.1560 h1        1 ILA      0.147000
     49 H1         -3.5440    0.9930   -2.6810 h2        1 ILA      0.159000
     50 H2         -1.7460    1.6770   -7.7850 ha        1 ILA      0.190000
     51 H61        -3.7580    5.1950   -8.4300 hn        1 ILA      0.241500
     52 H62        -4.3710    5.8620   -7.1770 hn        1 ILA      0.241500
     53 H8         -3.9640    3.7660   -2.2700 DU        1 ILA      0.208000
     54 H2'        -1.0200    1.3220   -3.5530 h1        1 ILA      0.129000
     55 HO2        -1.4310   -0.8130   -4.2510 ho        1 ILA      0.235000
     56 H3         -0.1600    0.3980   -1.7310 h1        1 ILA      0.115000
     57 HO3        -0.6450   -1.4850   -1.5020 ho        1 ILA      0.242000
@<TRIPOS>BOND
     1    1    2 1   
     2    1   32 1   
     3    1   33 1   
     4    2    3 1   
     5    2    7 1   
     6    2   34 1   
     7    3    4 1   
     8    3    5 1   
     9    3   35 1   
    10    4   36 1   
    11    4   37 1   
    12    4   38 1   
    13    5    6 1   
    14    5   39 1   
    15    5   40 1   
    16    6   41 1   
    17    6   42 1   
    18    6   43 1   
    19    7    8 1   
    20    7   12 1   
    21    9   10 1   
    22    9   11 1   
    23   12   44 1   
    24   13   14 1   
    25   13   45 1   
    26   14   15 1   
    27   14   46 1   
    28   14   47 1   
    29   15   16 1   
    30   15   30 1   
    31   15   48 1   
    32   16   17 1   
    33   17   18 1   
    34   17   28 1   
    35   17   49 1   
    36   18   19 1   
    37   18   27 1   
    38   19   25 1   
    39   20   21 1   
    40   21   50 1   
    41   22   23 1   
    42   23   25 1   
    43   24   51 1   
    44   24   52 1   
    45   26   27 1   
    46   28   29 1   
    47   28   30 1   
    48   28   54 1   
    49   29   55 1   
    50   30   31 1   
    51   30   56 1   
    52   31   57 1   
@<TRIPOS>SUBSTRUCTURE
     1 ILA         1 TEMP              0 ****  ****    0 ROOT
