@<TRIPOS>MOLECULE
ILA
   60    62     1     0     0
SMALL
bcc


@<TRIPOS>ATOM
      1 N           0.0000    0.0000    0.0000 nz        1 ILA      0.089400
      2 CA          1.4690    0.0000    0.0000 c3        1 ILA     -0.163500
      3 CB          1.9800    0.0000    1.4430 c3        1 ILA     -0.071700
      4 CG2         3.5100   -0.0010    1.4430 c3        1 ILA     -0.004100
      5 CG1         1.4690    1.2490    2.1650 c3        1 ILA     -0.028400
      6 CD          1.9790    1.2480    3.6080 c3        1 ILA      0.013900
      7 C           1.9720   -1.2290   -0.7110 c         1 ILA      0.471100
      8 O           1.3160   -2.2490   -0.6940 o         1 ILA     -0.439100
      9 SA          3.7000   -2.5460   -2.1460 s6        1 ILA      0.820800
     10 O1A         4.8540   -2.1320   -2.8660 o         1 ILA     -0.414300
     11 O2A         3.6630   -3.5910   -1.1840 o         1 ILA     -0.414300
     12 N3A         3.1490   -1.1950   -1.3640 ny        1 ILA     -0.158700
     13 N5'         2.5760   -2.9500   -3.2920 ny        1 ILA     -0.209900
     14 C5'         2.2390   -2.0000   -4.3540 c3        1 ILA      0.076800
     15 C4'         1.1830   -2.6140   -5.2730 c3        1 ILA      0.137100
     16 O4'        -0.0160   -2.8840   -4.5270 os        1 ILA     -0.459600
     17 C1'        -1.1280   -2.6680   -5.4220 c3        1 ILA      0.174800
     18 N9         -2.3580   -2.4230   -4.6670 na        1 ILA      0.239000
     19 C4         -3.6350   -2.7060   -5.0810 ca        1 ILA      0.260800
     20 N3         -4.1700   -3.2500   -6.1690 nb        1 ILA     -0.550000
     21 C2         -5.4740   -3.4000   -6.2740 ca        1 ILA      0.680900
     22 N1         -6.3080   -3.0320   -5.3190 nb        1 ILA     -0.543000
     23 C6         -5.8650   -2.4840   -4.1920 ca        1 ILA      0.473200
     24 N6         -6.7470   -2.1010   -3.1960 nv        1 ILA     -0.247500
     25 C5         -4.4800   -2.3030   -4.0340 ca        1 ILA     -0.166200
     26 N7         -3.6910   -1.7960   -3.0560 nc        1 ILA     -0.502100
     27 C8         -2.4450   -1.8670   -3.4260 cd        1 ILA      0.223700
     28 C2'        -0.7100   -1.4060   -6.2180 c3        1 ILA      0.138100
     29 O2'        -1.3650   -1.3640   -7.4870 oh        1 ILA     -0.511800
     30 C3'         0.8160   -1.6200   -6.3900 c3        1 ILA      0.144100
     31 O3'         1.1010   -2.1750   -7.6760 oh        1 ILA     -0.517800
     32 HN1        -0.3340    0.9160    0.2250 hn        1 ILA      0.246800
     33 HN2        -0.3340   -0.2630   -0.9060 hn        1 ILA      0.246800
     34 HA1         1.8300    0.8850   -0.5100 hx        1 ILA      0.109700
     35 HB          1.6180   -0.8850    1.9530 hc        1 ILA      0.079700
     36 HG21        3.8710    0.4220    2.3730 hc        1 ILA      0.036033
     37 HG22        3.8700   -1.0170    1.3450 hc        1 ILA      0.036033
     38 HG23        3.8710    0.5930    0.6120 hc        1 ILA      0.036033
     39 HG11        0.3860    1.2490    2.1650 hc        1 ILA      0.018700
     40 HG12        1.8300    2.1340    1.6550 hc        1 ILA      0.018700
     41 HD1         2.9300    1.7650    3.6550 hc        1 ILA      0.036033
     42 HD2         1.2620    1.7520    4.2440 hc        1 ILA      0.036033
     43 HD3         2.1060    0.2260    3.9450 hc        1 ILA      0.036033
     44 HNA         3.8470   -0.9420   -0.6940 hn        1 ILA      0.376800
     45 HN5         2.8940   -3.7890   -3.7360 hn        1 ILA      0.355800
     46 H51         1.8510   -1.0900   -3.9150 hx        1 ILA      0.066700
     47 H52         3.1290   -1.7720   -4.9300 hx        1 ILA      0.066700
     48 H4          1.5570   -3.5330   -5.7090 h1        1 ILA      0.087700
     49 H1         -1.2460   -3.5140   -6.0890 h2        1 ILA      0.106700
     50 H2         -5.8780   -3.8390   -7.1780 h5        1 ILA      0.041100
     51 H61        -7.1590   -1.1890   -3.2180 hn        1 ILA      0.289300
     52 H62        -7.0150   -2.7540   -2.4870 hn        1 ILA      0.289300
     53 H8         -1.8300   -1.3650   -2.6890 h5        1 ILA     -0.000200
     54 H2'        -0.9090   -0.5090   -5.6450 h1        1 ILA      0.010700
     55 HO2        -1.4160   -0.4710   -7.7860 ho        1 ILA      0.418000
     56 H3          1.3450   -0.6850   -6.2500 h1        1 ILA      0.011700
     57 HO3         1.6790   -1.5980   -8.1470 ho        1 ILA      0.423000
     58 HN3        -0.3340   -0.6530    0.6810 hn        1 ILA      0.246800
     59 H3A2        3.0780   -0.4730   -2.0530 hn        1 ILA      0.376800
     60 H5'2        1.7270   -3.1690   -2.8100 hn        1 ILA      0.355800
@<TRIPOS>BOND
     1    1    2 1   
     2    1   32 1   
     3    1   33 1   
     4    1   58 1   
     5    2    3 1   
     6    2    7 1   
     7    2   34 1   
     8    3    4 1   
     9    3    5 1   
    10    3   35 1   
    11    4   36 1   
    12    4   37 1   
    13    4   38 1   
    14    5    6 1   
    15    5   39 1   
    16    5   40 1   
    17    6   41 1   
    18    6   42 1   
    19    6   43 1   
    20    7    8 2   
    21    7   12 1   
    22    9   10 2   
    23    9   11 2   
    24    9   12 1   
    25    9   13 1   
    26   12   44 1   
    27   12   59 1   
    28   13   14 1   
    29   13   45 1   
    30   13   60 1   
    31   14   15 1   
    32   14   46 1   
    33   14   47 1   
    34   15   16 1   
    35   15   30 1   
    36   15   48 1   
    37   16   17 1   
    38   17   18 1   
    39   17   28 1   
    40   17   49 1   
    41   18   19 1   
    42   18   27 1   
    43   19   20 ar  
    44   19   25 ar  
    45   20   21 ar  
    46   21   22 ar  
    47   21   50 1   
    48   22   23 ar  
    49   23   24 1   
    50   23   25 ar  
    51   24   51 1   
    52   24   52 1   
    53   25   26 1   
    54   26   27 2   
    55   27   53 1   
    56   28   29 1   
    57   28   30 1   
    58   28   54 1   
    59   29   55 1   
    60   30   31 1   
    61   30   56 1   
    62   31   57 1   
@<TRIPOS>SUBSTRUCTURE
     1 ILA         1 TEMP              0 ****  ****    0 ROOT
