@<TRIPOS>MOLECULE
ILB
   43    44     1     0     0
SMALL
bcc


@<TRIPOS>ATOM
      1 C1         -0.2830   -0.4730   -0.3030 c1        1 ILB     -0.105000
      2 C2          1.0770   -0.7870   -0.1560 c2        1 ILB     -0.305000
      3 C3          1.6400   -0.8750    1.0980 c2        1 ILB      0.202000
      4 C7         -1.0950   -0.2320    0.8830 c3        1 ILB     -0.204000
      5 C8         -0.6260    0.6020    4.5110 ca        1 ILB     -0.147000
      6 C9         -1.3740    0.8980    5.6590 ca        1 ILB      0.092500
      7 C11        -2.7640    0.5750    5.7410 ca        1 ILB     -0.015000
      8 C13        -3.3470   -0.0350    4.5950 ca        1 ILB      0.092500
      9 C15        -2.5870   -0.3160    3.4490 ca        1 ILB     -0.147000
     10 C16        -4.8510   -0.6800    7.7400 cu        1 ILB     -0.119000
     11 C19        -3.3300   -2.2080    9.3170 c3        1 ILB     -0.165000
     12 C20        -2.7700   -3.4420   12.8830 c1        1 ILB     -0.245500
     13 C21        -3.2020   -4.2400   13.6640 c1        1 ILB     -0.245500
     14 C22        -5.8540   -1.6610    8.1960 cx        1 ILB     -0.109000
     15 C27         3.8640   -1.4640    0.3420 c3        1 ILB      0.542000
     16 C4          0.8870   -0.6310    2.3030 c2        1 ILB     -0.211000
     17 C5         -0.4340   -0.3060    2.2160 c2        1 ILB      0.044000
     18 C6         -1.2260   -0.0070    3.4020 ca        1 ILB     -0.078000
     19 F14        -4.6620   -0.3590    4.5830 f         1 ILB     -0.079500
     20 C17        -4.3980   -1.6070    8.5630 cu        1 ILB     -0.110000
     21 O18        -4.7360    0.4480    6.9820 os        1 ILB     -0.054000
     22 O24        -1.6500   -1.3750   10.8120 o         1 ILB     -0.581000
     23 O25        -1.8550   -0.3320    8.8550 o         1 ILB     -0.581000
     24 O26         2.9560   -1.1960    1.3790 os        1 ILB     -0.251000
     25 F28         4.0410   -0.3970   -0.4750 f         1 ILB     -0.139333
     26 F29         5.0310   -1.7320    0.9800 f         1 ILB     -0.139333
     27 F30         3.5020   -2.5430   -0.3940 f         1 ILB     -0.139333
     28 H1         -1.5770    0.7840    0.7630 hc        1 ILB      0.166500
     29 H2          1.6770   -0.9640   -1.0620 ha        1 ILB      0.151000
     30 H7         -1.9440   -0.9810    0.8410 hc        1 ILB      0.166500
     31 H8          0.4430    0.8620    4.4990 ha        1 ILB      0.146000
     32 H15        -3.0880   -0.7980    2.5960 ha        1 ILB      0.146000
     33 H201       -2.8580   -3.0320    8.7140 hc        1 ILB      0.091500
     34 H202       -3.7330   -2.6640   10.2600 hc        1 ILB      0.091500
     35 H211       -6.6290   -1.3640    8.9280 hc        1 ILB      0.074500
     36 H212       -2.3790   -2.7220   12.1810 ha        1 ILB      0.239500
     37 H221       -6.2330   -2.4340    7.5010 hc        1 ILB      0.074500
     38 H222       -3.5850   -4.9450   14.3530 ha        1 ILB      0.239500
     39 H4          1.4120   -0.7220    3.2670 ha        1 ILB      0.168000
     40 HN12       -2.9520    0.8810    7.7320 hn        1 ILB      0.272000
     41 F10        -0.7550    1.5100    6.6930 f         1 ILB     -0.079500
     42 N12        -3.5170    1.0000    6.8730 nh        1 ILB     -0.097000
     43 C23        -2.2030   -1.2200    9.6870 c2        1 ILB      0.349000
@<TRIPOS>BOND
     1    1    2 1   
     2    1    4 1   
     3    2    3 1   
     4    2   29 1   
     5    3   16 1   
     6    3   24 1   
     7    4   17 1   
     8    4   28 1   
     9    4   30 1   
    10    5    6 1   
    11    5   18 1   
    12    5   31 1   
    13    6    7 1   
    14    6   41 1   
    15    7    8 1   
    16    7   42 1   
    17    8    9 1   
    18    8   19 1   
    19    9   18 1   
    20    9   32 1   
    21   10   14 1   
    22   10   20 1   
    23   10   21 1   
    24   11   20 1   
    25   11   33 1   
    26   11   34 1   
    27   11   43 1   
    28   12   13 1   
    29   12   36 1   
    30   13   38 1   
    31   14   20 1   
    32   14   35 1   
    33   14   37 1   
    34   15   24 1   
    35   15   25 1   
    36   15   26 1   
    37   15   27 1   
    38   16   17 1   
    39   16   39 1   
    40   17   18 1   
    41   21   42 1   
    42   22   43 1   
    43   23   43 1   
    44   40   42 1   
@<TRIPOS>SUBSTRUCTURE
     1 ILB         1 TEMP              0 ****  ****    0 ROOT
