@<TRIPOS>MOLECULE
ILB
   43    36     1     0     0
SMALL
bcc


@<TRIPOS>ATOM
      1 C1          1.6420   -0.0120   -5.5570 c1        1 ILB     -0.121000
      2 C2          3.0010    0.1420   -5.5140 c1        1 ILB     -0.125000
      3 C3          3.6370    0.4150   -4.2890 c1        1 ILB      0.029000
      4 C7          0.8870    0.1020   -4.3860 c1        1 ILB     -0.121000
      5 C8          0.0270    1.5650   -1.7040 c1        1 ILB     -0.150000
      6 C9         -0.8230    1.5780   -0.6070 c1        1 ILB      0.057000
      7 C11        -0.9440    0.4360    0.2040 c1        1 ILB      0.073000
      8 C13        -0.2240   -0.6910   -0.0870 c1        1 ILB      0.083000
      9 C15         0.6340   -0.7070   -1.1940 c1        1 ILB     -0.136000
     10 C16        -1.5200    0.1390    2.5660 c1        1 ILB      0.379000
     11 C19        -2.2390   -0.3260    5.0510 c1        1 ILB     -0.035000
     12 C20        -3.2890   -0.4560    5.9120 c2        1 ILB     -0.144000
     13 C21        -4.5300   -0.7180    4.8190 c3        1 ILB     -0.164000
     14 C22        -3.8470   -0.4960    3.3190 c3        1 ILB     -0.107000
     15 C27         5.8270   -0.4690   -4.3410 c3        1 ILB      0.532000
     16 C4          2.8920    0.5270   -3.1370 c1        1 ILB     -0.136000
     17 C5          1.5110    0.3700   -3.1850 c1        1 ILB     -0.028500
     18 C6          0.7560    0.4280   -2.0010 c1        1 ILB     -0.028500
     19 F10        -1.4920    2.6520   -0.3200 f         1 ILB     -0.091000
     20 N12        -1.9060    0.4000    1.2080 n2        1 ILB     -0.327000
     21 F14        -0.2690   -1.7360    0.7330 f         1 ILB     -0.079000
     22 C17        -2.6200   -0.0550    3.6630 c2        1 ILB     -0.218000
     23 O18        -0.3500   -0.0470    2.8380 o         1 ILB     -0.390000
     24 C23        -0.9210    0.1040    5.5510 c2        1 ILB      0.356000
     25 O24        -0.0430   -0.7610    5.8420 o         1 ILB     -0.548000
     26 O25        -0.6440    1.3110    5.6050 o         1 ILB     -0.548000
     27 O26         5.0490    0.6700   -4.2550 os        1 ILB     -0.253000
     28 F28         5.1720   -1.3940   -4.9770 f         1 ILB     -0.149000
     29 F29         6.1190   -0.8910   -3.1360 f         1 ILB     -0.149000
     30 F30         6.9580   -0.1880   -5.0020 f         1 ILB     -0.149000
     31 H1          1.1900   -0.2050   -6.4250 ha        1 ILB      0.139500
     32 H2          3.5190    0.1470   -6.3470 ha        1 ILB      0.145000
     33 H7         -0.0890    0.0520   -4.4270 ha        1 ILB      0.139500
     34 H8          0.1110    2.3670   -2.2710 ha        1 ILB      0.142000
     35 H15         1.1320   -1.4870   -1.3950 ha        1 ILB      0.152500
     36 H201       -3.4370    0.2000    6.6240 ha        1 ILB      0.104000
     37 H202       -3.1390   -1.3000    6.4570 ha        1 ILB      0.104000
     38 H211       -5.2500   -0.0750    4.9610 hc        1 ILB      0.067000
     39 H212       -4.8670   -1.6280    4.9040 hc        1 ILB      0.067000
     40 H221       -4.4660    0.0270    2.7350 hc        1 ILB      0.083000
     41 H222       -3.7330   -1.2890    2.8150 hc        1 ILB      0.083000
     42 H4          3.3430    0.7200   -2.2660 ha        1 ILB      0.152500
     43 HN12       -2.7680    0.5800    1.0140 hn        1 ILB      0.310000
@<TRIPOS>BOND
     1    1    4 1   
     2    1   31 1   
     3    2    3 1   
     4    2   32 1   
     5    3   27 1   
     6    4   33 1   
     7    5    6 1   
     8    5   34 1   
     9    6   19 1   
    10    7    8 1   
    11    7   20 1   
    12    8   21 1   
    13    9   18 1   
    14    9   35 1   
    15   10   22 1   
    16   10   23 1   
    17   11   22 1   
    18   11   24 1   
    19   12   13 1   
    20   12   36 1   
    21   12   37 1   
    22   13   14 1   
    23   13   38 1   
    24   13   39 1   
    25   14   22 1   
    26   14   40 1   
    27   14   41 1   
    28   15   27 1   
    29   15   28 1   
    30   15   29 1   
    31   15   30 1   
    32   16   17 1   
    33   16   42 1   
    34   20   43 1   
    35   24   25 1   
    36   24   26 1   
@<TRIPOS>SUBSTRUCTURE
     1 ILB         1 TEMP              0 ****  ****    0 ROOT
