@<TRIPOS>MOLECULE
ILB
   44    44     1     0     0
SMALL
bcc


@<TRIPOS>ATOM
      1 C1         -0.0550    0.5600   -0.3390 c1        1 ILB     -0.086000
      2 C2          1.3510    0.5400   -0.3250 c2        1 ILB     -0.299000
      3 C3          2.0340    0.1920    0.8180 c2        1 ILB      0.195000
      4 C7         -0.7890    0.2130    0.8750 c3        1 ILB     -0.208000
      5 C8          0.0720   -0.8510    4.4420 c1        1 ILB     -0.066000
      6 C9         -0.6050   -1.3060    5.6750 c3        1 ILB      0.046000
      7 C11        -2.1110   -1.0290    5.7930 c2        1 ILB      0.042000
      8 C13        -2.7910   -0.7590    4.6100 c2        1 ILB     -0.032000
      9 C15        -2.0850   -0.4900    3.3890 c2        1 ILB      0.031000
     10 C16        -3.9410   -0.7180    7.4600 c2        1 ILB      0.326000
     11 C19        -4.1130   -2.2730    9.4220 c2        1 ILB     -0.218000
     12 C20        -5.4950   -3.7680   12.3510 c1        1 ILB     -0.222000
     13 C21        -4.9830   -2.9450   13.0530 c1        1 ILB     -0.222000
     14 C22        -5.0980   -0.0070    9.5520 c3        1 ILB     -0.197000
     15 C27         4.2560    0.4420   -0.1140 c3        1 ILB      0.543000
     16 C4          1.3560   -0.1630    2.0450 c2        1 ILB     -0.161000
     17 C5         -0.0050   -0.1560    2.0860 c2        1 ILB      0.012000
     18 C6         -0.7080   -0.5080    3.3160 c2        1 ILB     -0.186000
     19 C17        -4.3500   -1.0830    8.8570 c2        1 ILB     -0.057000
     20 O18        -4.6700   -0.0350    6.7310 o         1 ILB     -0.268000
     21 O24        -2.0520   -3.5250    9.0710 oh        1 ILB     -0.298000
     22 O25        -3.8130   -4.2240    7.9970 o         1 ILB     -0.263000
     23 O26         3.4050    0.1300    0.9630 os        1 ILB     -0.251000
     24 F28         4.1050    1.7230   -0.5260 f         1 ILB     -0.135000
     25 F29         5.5020    0.2760    0.3910 f         1 ILB     -0.135000
     26 F30         4.0800   -0.3990   -1.1610 f         1 ILB     -0.135000
     27 H1         -1.4520    1.0990    1.1080 hc        1 ILB      0.157500
     28 H2          1.8850    0.8080   -1.2500 ha        1 ILB      0.159000
     29 H7         -1.4790   -0.6390    0.5950 hc        1 ILB      0.157500
     30 H8         -0.5240   -2.4490    5.5630 h1        1 ILB      0.171000
     31 H15        -2.7130   -0.2490    2.5110 ha        1 ILB      0.162000
     32 H201       -4.4920   -2.5130   10.4360 ha        1 ILB      0.181000
     33 H202       -5.9540   -4.5030   11.7380 ha        1 ILB      0.224000
     34 H211       -4.4180    0.8570    9.7620 hc        1 ILB      0.109667
     35 H212       -5.5300   -0.3690   10.5170 hc        1 ILB      0.109667
     36 H221       -5.9300    0.3560    8.8940 hc        1 ILB      0.109667
     37 H222       -4.5350   -2.2220   13.6870 ha        1 ILB      0.224000
     38 H4          1.9650   -0.4320    2.9270 ha        1 ILB      0.192000
     39 HN12       -2.0670   -1.5340    7.7480 hn        1 ILB      0.250000
     40 F10         0.0790   -0.9440    6.8250 f         1 ILB     -0.131000
     41 N12        -2.6810   -1.1740    7.0430 n         1 ILB     -0.302000
     42 H122       -1.8070   -2.9510    9.8100 ho        1 ILB      0.231000
     43 F14        -4.1440   -0.6900    4.5520 f         1 ILB     -0.074000
     44 C23        -3.3860   -3.3830    8.7830 c2        1 ILB      0.317000
@<TRIPOS>BOND
     1    1    2 1   
     2    1    4 1   
     3    2    3 1   
     4    2   28 1   
     5    3   16 1   
     6    3   23 1   
     7    4   17 1   
     8    4   27 1   
     9    4   29 1   
    10    5    6 1   
    11    5   18 1   
    12    6    7 1   
    13    6   30 1   
    14    6   40 1   
    15    7    8 1   
    16    7   41 1   
    17    8    9 1   
    18    8   43 1   
    19    9   18 1   
    20    9   31 1   
    21   10   19 1   
    22   10   20 1   
    23   10   41 1   
    24   11   19 1   
    25   11   32 1   
    26   11   44 1   
    27   12   13 1   
    28   12   33 1   
    29   13   37 1   
    30   14   19 1   
    31   14   34 1   
    32   14   35 1   
    33   14   36 1   
    34   15   23 1   
    35   15   24 1   
    36   15   25 1   
    37   15   26 1   
    38   16   17 1   
    39   16   38 1   
    40   17   18 1   
    41   21   42 1   
    42   21   44 1   
    43   22   44 1   
    44   39   41 1   
@<TRIPOS>SUBSTRUCTURE
     1 ILB         1 TEMP              0 ****  ****    0 ROOT
