@<TRIPOS>MOLECULE
ILB
   43    43     1     0     0
SMALL
bcc


@<TRIPOS>ATOM
      1 C1         -0.3520   -1.2650   -0.2260 c1        1 ILB     -0.191000
      2 C2          0.7410   -0.5560   -0.6820 c2        1 ILB     -0.346000
      3 C3          1.4880    0.2140    0.2140 c2        1 ILB      0.218000
      4 C7         -0.7230   -1.2090    1.1870 c3        1 ILB     -0.181000
      5 C8          0.4770    0.4620    4.4280 ca        1 ILB     -0.047000
      6 C9          0.1250    0.5200    5.7520 ca        1 ILB     -0.081500
      7 C11        -1.0290   -0.2010    6.3200 ca        1 ILB      0.108000
      8 C13        -1.7500   -0.9950    5.3110 ca        1 ILB     -0.081500
      9 C15        -1.3760   -1.0340    3.9910 ca        1 ILB     -0.047000
     10 C16        -3.7220   -0.4640    9.0430 c1        1 ILB      0.473000
     11 C19        -2.5840   -2.7110    8.8860 c3        1 ILB     -0.104000
     12 C20        -7.7040   -1.1640   12.3100 c1        1 ILB     -0.087000
     13 C21        -7.1820   -2.4940   12.2310 c3        1 ILB     -0.329000
     14 C22        -4.5280   -2.4320   10.2880 c1        1 ILB      0.082000
     15 C27         3.0630    0.9980   -1.4520 c3        1 ILB      0.542000
     16 C4          1.1890    0.3160    1.5860 c2        1 ILB     -0.319000
     17 C5          0.0990   -0.3730    2.1200 c2        1 ILB      0.127000
     18 C6         -0.2560   -0.3130    3.4870 ca        1 ILB     -0.247000
     19 F14        -2.8340   -1.7170    5.7130 f         1 ILB     -0.136500
     20 C17        -3.6200   -1.7450    9.3860 c2        1 ILB     -0.469000
     21 O18        -3.8880    0.6760    8.8030 o         1 ILB     -0.087000
     22 O24        -4.1520   -3.7120   10.3860 os        1 ILB     -0.195000
     23 O25        -2.5910   -5.1320    9.6170 o         1 ILB     -0.267000
     24 O26         2.6080    0.9700   -0.1340 os        1 ILB     -0.264000
     25 F28         2.1590    1.5250   -2.3160 f         1 ILB     -0.151000
     26 F29         4.1480    1.8170   -1.4200 f         1 ILB     -0.151000
     27 F30         3.4610   -0.2170   -1.9050 f         1 ILB     -0.151000
     28 H1         -1.7930   -0.8490    1.2260 hc        1 ILB      0.139000
     29 H2          1.0180   -0.5990   -1.7430 ha        1 ILB      0.131000
     30 H7         -0.7240   -2.2750    1.5620 hc        1 ILB      0.139000
     31 H8          1.3550    1.0380    4.0940 ha        1 ILB      0.129500
     32 H15        -1.9730   -1.6520    3.3010 ha        1 ILB      0.129500
     33 H201       -1.5460   -2.4220    9.1870 hc        1 ILB      0.154500
     34 H202       -2.6130   -2.8290    7.7710 hc        1 ILB      0.154500
     35 H211       -7.8010   -3.2510   11.6860 hc        1 ILB      0.126000
     36 H212       -8.4080   -0.8690   11.5140 ha        1 ILB      0.023000
     37 H221       -6.1960   -2.3850   11.6560 hc        1 ILB      0.126000
     38 H222       -6.9220   -2.8970   13.2420 hc        1 ILB      0.126000
     39 H4          1.8360    0.9470    2.2090 ha        1 ILB      0.140000
     40 HN12       -0.8170    0.4150    8.1370 hn        1 ILB      0.130000
     41 F10         0.8610    1.2780    6.6160 f         1 ILB     -0.136500
     42 N12        -1.3980   -0.1660    7.5700 n2        1 ILB     -0.392000
     43 C23        -2.9990   -3.9850    9.5830 c2        1 ILB      0.265000
@<TRIPOS>BOND
     1    1    2 1   
     2    1    4 1   
     3    2    3 1   
     4    2   29 1   
     5    3   16 1   
     6    3   24 1   
     7    4   17 1   
     8    4   28 1   
     9    4   30 1   
    10    5    6 1   
    11    5   18 1   
    12    5   31 1   
    13    6    7 1   
    14    6   41 1   
    15    7    8 1   
    16    7   42 1   
    17    8    9 1   
    18    8   19 1   
    19    9   18 1   
    20    9   32 1   
    21   10   20 1   
    22   10   21 1   
    23   11   20 1   
    24   11   33 1   
    25   11   34 1   
    26   11   43 1   
    27   12   13 1   
    28   12   36 1   
    29   13   35 1   
    30   13   37 1   
    31   13   38 1   
    32   14   20 1   
    33   14   22 1   
    34   15   24 1   
    35   15   25 1   
    36   15   26 1   
    37   15   27 1   
    38   16   17 1   
    39   16   39 1   
    40   17   18 1   
    41   22   43 1   
    42   23   43 1   
    43   40   42 1   
@<TRIPOS>SUBSTRUCTURE
     1 ILB         1 TEMP              0 ****  ****    0 ROOT
