@<TRIPOS>MOLECULE
ILB
   43    45     1     0     0
SMALL
bcc


@<TRIPOS>ATOM
      1 C1          4.7560    1.0150   -1.9860 ca        1 ILB     -0.123000
      2 C2          5.5710    0.3980   -1.0390 ca        1 ILB     -0.142000
      3 C3          4.9670   -0.1690    0.0890 ca        1 ILB      0.075100
      4 C7          3.3750    1.0650   -1.8070 ca        1 ILB     -0.118000
      5 C8          0.7820    0.7820    0.7740 ca        1 ILB     -0.152500
      6 C9         -0.6070    0.8300    0.9540 ca        1 ILB      0.106400
      7 C11        -1.5130    0.6600   -0.1420 ca        1 ILB      0.058600
      8 C13        -0.9190    0.4590   -1.4260 ca        1 ILB      0.106400
      9 C15         0.4740    0.3920   -1.5840 ca        1 ILB     -0.152500
     10 C16        -3.8260   -0.0580   -0.5930 c         1 ILB      0.703300
     11 C19        -5.8640    0.6870    0.7870 ce        1 ILB     -0.063400
     12 C20        -7.3550    0.7150    0.5920 c3        1 ILB     -0.060200
     13 C21        -7.6060    0.1370   -0.8040 c3        1 ILB     -0.085400
     14 C22        -6.2260   -0.1820   -1.3890 c3        1 ILB     -0.025200
     15 C27         6.4140   -1.8910    0.9130 c3        1 ILB      0.817700
     16 C4          3.5830   -0.1350    0.2860 ca        1 ILB     -0.106000
     17 C5          2.7760    0.4950   -0.6730 cp        1 ILB      0.003000
     18 C6          1.3280    0.5540   -0.4920 cp        1 ILB     -0.061000
     19 F14        -1.6890    0.3400   -2.5330 f         1 ILB     -0.117400
     20 C17        -5.2460    0.1960   -0.3100 cf        1 ILB     -0.238400
     21 O18        -3.4610   -0.9350   -1.4050 o         1 ILB     -0.625100
     22 O24        -4.4080    1.9890    2.1720 o         1 ILB     -0.813300
     23 O25        -5.8970    0.6480    3.1550 o         1 ILB     -0.813300
     24 O26         5.7530   -0.6750    1.1290 os        1 ILB     -0.367900
     25 F28         7.4010   -1.7740   -0.0130 f         1 ILB     -0.221300
     26 F29         6.9740   -2.2040    2.1080 f         1 ILB     -0.221300
     27 F30         5.5790   -2.8910    0.5370 f         1 ILB     -0.221300
     28 H1          5.2090    1.4680   -2.8800 ha        1 ILB      0.134000
     29 H2          6.6620    0.3490   -1.1660 ha        1 ILB      0.147000
     30 H7          2.7430    1.5640   -2.5580 ha        1 ILB      0.144000
     31 H8          1.4350    0.9270    1.6470 ha        1 ILB      0.143500
     32 H15         0.8810    0.2080   -2.5900 ha        1 ILB      0.143500
     33 H201       -7.8440    0.1080    1.3960 hc        1 ILB      0.064200
     34 H202       -7.7320    1.7650    0.6770 hc        1 ILB      0.064200
     35 H211       -8.1480    0.8720   -1.4470 hc        1 ILB      0.027700
     36 H212       -8.2310   -0.7870   -0.7430 hc        1 ILB      0.027700
     37 H221       -6.0320    0.4050   -2.3210 hc        1 ILB      0.044200
     38 H222       -6.1250   -1.2670   -1.6440 hc        1 ILB      0.044200
     39 H4          3.1390   -0.5930    1.1830 ha        1 ILB      0.161000
     40 HN12       -3.1970    1.2860    0.8610 hn        1 ILB      0.395500
     41 F10        -1.0870    1.0500    2.2010 f         1 ILB     -0.117400
     42 N12        -2.8850    0.7490    0.0560 n         1 ILB     -0.471100
     43 C23        -5.3430    1.1330    2.1330 c         1 ILB      0.904800
@<TRIPOS>BOND
     1    1    2 ar  
     2    1    4 ar  
     3    1   28 1   
     4    2    3 ar  
     5    2   29 1   
     6    3   16 ar  
     7    3   24 1   
     8    4   17 ar  
     9    4   30 1   
    10    5    6 ar  
    11    5   18 ar  
    12    5   31 1   
    13    6    7 ar  
    14    6   41 1   
    15    7    8 ar  
    16    7   42 1   
    17    8    9 ar  
    18    8   19 1   
    19    9   18 ar  
    20    9   32 1   
    21   10   20 1   
    22   10   21 2   
    23   10   42 1   
    24   11   12 1   
    25   11   20 2   
    26   11   43 1   
    27   12   13 1   
    28   12   33 1   
    29   12   34 1   
    30   13   14 1   
    31   13   35 1   
    32   13   36 1   
    33   14   20 1   
    34   14   37 1   
    35   14   38 1   
    36   15   24 1   
    37   15   25 1   
    38   15   26 1   
    39   15   27 1   
    40   16   17 ar  
    41   16   39 1   
    42   17   18 1   
    43   22   43 1   
    44   23   43 1   
    45   40   42 1   
@<TRIPOS>SUBSTRUCTURE
     1 ILB         1 TEMP              0 ****  ****    0 ROOT
