@<TRIPOS>MOLECULE
ILC
   39    41     1     0     0
SMALL
bcc


@<TRIPOS>ATOM
      1 C1          0.0380   -0.4700   -0.1630 ca        1 ILC     -0.216000
      2 C2          0.9880    0.5100    0.1430 ca        1 ILC      0.117100
      3 C8          1.6400    0.5270    1.3880 ca        1 ILC     -0.152000
      4 C9          1.3350   -0.4520    2.3390 cp        1 ILC      0.027000
      5 C10         2.0000   -0.4520    3.6390 cp        1 ILC     -0.090000
      6 C11         0.3790   -1.4370    2.0320 ca        1 ILC     -0.157000
      7 C12        -0.2560   -1.4400    0.7960 ca        1 ILC     -0.101000
      8 C13         2.3720   -1.6530    4.2540 ca        1 ILC     -0.104000
      9 C14         3.0020   -1.6660    5.4900 ca        1 ILC     -0.164000
     10 C16         3.2960   -0.4690    6.1830 ca        1 ILC      0.094600
     11 C20         2.2770    0.7520    4.2940 ca        1 ILC     -0.129000
     12 C21         4.5860   -1.4790    8.0450 c         1 ILC      0.721700
     13 C22         5.1370   -1.2290    9.3890 cc        1 ILC     -0.215600
     14 C24         6.3360   -1.9240    9.7820 cc        1 ILC     -0.107000
     15 C27         4.6580   -0.4180   10.4040 cd        1 ILC     -0.059700
     16 O3          1.3700    1.5230   -0.7220 os        1 ILC     -0.329900
     17 C4          0.7140    1.5480   -1.9810 c3        1 ILC      0.116700
     18 N17         3.9170   -0.4260    7.4260 ns        1 ILC     -0.462100
     19 C18         2.9150    0.7580    5.5410 ca        1 ILC      0.064900
     20 F19         3.1660    1.9520    6.1330 f         1 ILC     -0.130900
     21 O23         4.7700   -2.5760    7.4710 o         1 ILC     -0.644100
     22 C25         6.7170   -1.5970   11.0590 cd        1 ILC     -0.233100
     23 S26         5.6460   -0.5160   11.7550 ss        1 ILC      0.030200
     24 C28         3.4240    0.4630   10.4300 c         1 ILC      0.925200
     25 O29         3.3600    1.4050    9.5880 o         1 ILC     -0.799800
     26 O30         2.5530    0.2230   11.3040 o         1 ILC     -0.799800
     27 H1         -0.4730   -0.4870   -1.1330 ha        1 ILC      0.128000
     28 H8          2.3870    1.3050    1.5980 ha        1 ILC      0.153000
     29 H11         0.1310   -2.2010    2.7830 ha        1 ILC      0.139000
     30 H12        -1.0040   -2.2140    0.5680 ha        1 ILC      0.124000
     31 H13         2.1680   -2.6090    3.7480 ha        1 ILC      0.126000
     32 H14         3.2780   -2.6360    5.9390 ha        1 ILC      0.176000
     33 H20         1.9900    1.7130    3.8420 ha        1 ILC      0.140000
     34 H24         6.8410   -2.6240    9.1130 ha        1 ILC      0.152000
     35 H41         1.1630    2.4360   -2.4940 h1        1 ILC      0.038367
     36 H42         0.9260    0.6140   -2.5570 h1        1 ILC      0.038367
     37 H43        -0.3870    1.6840   -1.8530 h1        1 ILC      0.038367
     38 HN17        3.8100    0.4350    7.9540 hn        1 ILC      0.392500
     39 H25         7.5900   -1.9810   11.5780 h4        1 ILC      0.151000
@<TRIPOS>BOND
     1    1    2 ar  
     2    1    7 ar  
     3    1   27 1   
     4    2    3 ar  
     5    2   16 1   
     6    3    4 ar  
     7    3   28 1   
     8    4    5 1   
     9    4    6 ar  
    10    5    8 ar  
    11    5   11 ar  
    12    6    7 ar  
    13    6   29 1   
    14    7   30 1   
    15    8    9 ar  
    16    8   31 1   
    17    9   10 ar  
    18    9   32 1   
    19   10   18 1   
    20   10   19 ar  
    21   11   19 ar  
    22   11   33 1   
    23   12   13 1   
    24   12   18 1   
    25   12   21 2   
    26   13   14 1   
    27   13   15 2   
    28   14   22 2   
    29   14   34 1   
    30   15   23 1   
    31   15   24 1   
    32   16   17 1   
    33   17   35 1   
    34   17   36 1   
    35   17   37 1   
    36   18   38 1   
    37   19   20 1   
    38   22   23 1   
    39   22   39 1   
    40   24   25 1   
    41   24   26 1   
@<TRIPOS>SUBSTRUCTURE
     1 ILC         1 TEMP              0 ****  ****    0 ROOT
