@<TRIPOS>MOLECULE
ILC
   39    30     1     0     0
SMALL
bcc


@<TRIPOS>ATOM
      1 C1         -1.7360   -2.7080   -4.6040 c1        1 ILC     -0.136500
      2 C2         -2.3940   -2.1040   -3.5440 c1        1 ILC      0.073000
      3 C8         -1.7170   -1.8490   -2.3610 c1        1 ILC     -0.199000
      4 C9         -0.3810   -2.1990   -2.2380 c1        1 ILC     -0.030000
      5 C10         0.3110   -1.8950   -1.0730 c1        1 ILC     -0.030000
      6 C11         0.2780   -2.8030   -3.2980 c1        1 ILC     -0.131000
      7 C12        -0.4000   -3.0580   -4.4810 c1        1 ILC     -0.136500
      8 C13         0.1790   -2.2270    0.2660 c1        1 ILC     -0.131000
      9 C14         0.2850   -1.2430    1.2380 c1        1 ILC     -0.164000
     10 C16         0.5220    0.0730    0.8700 c1        1 ILC      0.102000
     11 C20         0.5490   -0.5800   -1.4420 c1        1 ILC     -0.132000
     12 C21         1.5240    1.1380    2.8460 c1        1 ILC      0.395000
     13 C22         1.5640    2.2810    3.8390 c1        1 ILC     -0.151000
     14 C24         0.5430    3.5020    3.8960 c1        1 ILC     -0.151000
     15 C27         2.5510    2.4630    4.8840 c1        1 ILC     -0.406000
     16 O3         -3.7670   -1.8260   -3.6400 os        1 ILC     -0.220000
     17 C4         -4.0560   -0.5660   -4.2000 c3        1 ILC     -0.075000
     18 N17         0.5110    1.0970    1.8540 n2        1 ILC     -0.316000
     19 C18         0.6540    0.4050   -0.4700 c2        1 ILC      0.029000
     20 F19         0.9380    1.6640   -0.8230 f         1 ILC     -0.096000
     21 O23         2.4020    0.2980    2.8530 o         1 ILC     -0.405000
     22 C25         0.9470    4.3840    4.9740 c1        1 ILC     -0.406000
     23 S26         2.2120    3.7790    5.6370 ss        1 ILC      0.571000
     24 C28         3.9430    2.6420    5.4420 c1        1 ILC      0.374000
     25 O29         4.7610    3.4010    4.8600 o         1 ILC     -0.534000
     26 O30         4.2930    2.0130    6.4740 o         1 ILC     -0.534000
     27 H1         -2.2040   -2.8610   -5.4460 ha        1 ILC      0.132500
     28 H8         -2.1810   -1.4230   -1.6150 ha        1 ILC      0.142000
     29 H11         1.2080   -3.0800   -3.2000 ha        1 ILC      0.133000
     30 H12         0.0640   -3.4840   -5.2260 ha        1 ILC      0.132500
     31 H13         0.0120   -3.1530    0.5250 ha        1 ILC      0.133000
     32 H14         0.1920   -1.4770    2.1810 ha        1 ILC      0.177000
     33 H20         0.6420   -0.3470   -2.3850 ha        1 ILC      0.137000
     34 H24        -0.2230    3.6350    3.3060 DU        1 ILC      0.152000
     35 H41        -4.0130    0.1210   -3.5010 h1        1 ILC      0.081000
     36 H42        -4.9570   -0.5800   -4.5890 h1        1 ILC      0.081000
     37 H43        -3.4000   -0.3620   -4.9010 h1        1 ILC      0.081000
     38 HN17       -0.1570    1.7160    1.8600 hn        1 ILC      0.306000
     39 H25         0.5010    5.2120    5.2370 DU        1 ILC      0.152000
@<TRIPOS>BOND
     1    1    7 1   
     2    1   27 1   
     3    2    3 1   
     4    2   16 1   
     5    3   28 1   
     6    4    6 1   
     7    5    8 1   
     8    6   29 1   
     9    7   30 1   
    10    8   31 1   
    11    9   10 1   
    12    9   32 1   
    13   10   19 1   
    14   11   19 1   
    15   11   33 1   
    16   12   18 1   
    17   12   21 1   
    18   13   14 1   
    19   13   15 1   
    20   14   22 1   
    21   15   23 1   
    22   16   17 1   
    23   17   35 1   
    24   17   36 1   
    25   17   37 1   
    26   18   38 1   
    27   19   20 1   
    28   22   23 1   
    29   24   25 1   
    30   24   26 1   
@<TRIPOS>SUBSTRUCTURE
     1 ILC         1 TEMP              0 ****  ****    0 ROOT
