@<TRIPOS>MOLECULE
ILC
   39    41     1     0     0
SMALL
bcc


@<TRIPOS>ATOM
      1 C1          6.6990   -1.2820   -0.2140 ca        1 ILC     -0.216000
      2 C2          6.2660    0.0440   -0.1110 ca        1 ILC      0.117100
      3 C8          4.8980    0.3630   -0.1020 ca        1 ILC     -0.152000
      4 C9          3.9510   -0.6610   -0.1990 cp        1 ILC      0.027000
      5 C10         2.5240   -0.3510   -0.1920 cp        1 ILC     -0.090000
      6 C11         4.3860   -1.9950   -0.3030 ca        1 ILC     -0.157000
      7 C12         5.7420   -2.2940   -0.3100 ca        1 ILC     -0.101000
      8 C13         1.6130   -1.1790    0.4740 ca        1 ILC     -0.104000
      9 C14         0.2540   -0.8970    0.4850 ca        1 ILC     -0.164000
     10 C16        -0.2700    0.2380   -0.1750 ca        1 ILC      0.094600
     11 C20         2.0410    0.7820   -0.8540 ca        1 ILC     -0.129000
     12 C21        -2.6120    0.0190    0.6130 c         1 ILC      0.721700
     13 C22        -3.9960    0.4750    0.3870 cc        1 ILC     -0.215600
     14 C24        -4.8940    0.5290    1.5100 cc        1 ILC     -0.107000
     15 C27        -4.6200    0.8540   -0.7890 cd        1 ILC     -0.059700
     16 O3          7.1130    1.1360   -0.0070 os        1 ILC     -0.329900
     17 C4          8.5040    0.8500   -0.0340 c3        1 ILC      0.116700
     18 N17        -1.6220    0.5620   -0.2020 n         1 ILC     -0.462100
     19 C18         0.6730    1.0850   -0.8500 ca        1 ILC      0.064900
     20 F19         0.2560    2.1980   -1.5030 f         1 ILC     -0.130900
     21 O23        -2.3440   -0.7770    1.5410 o         1 ILC     -0.644100
     22 C25        -6.1440    0.9600    1.1390 cd        1 ILC     -0.233100
     23 S26        -6.2220    1.2550   -0.5050 ss        1 ILC      0.030200
     24 C28        -4.0600    0.9190   -2.1980 c         1 ILC      0.925200
     25 O29        -3.0940    1.7080   -2.4070 o         1 ILC     -0.799800
     26 O30        -4.6090    0.2090   -3.0780 o         1 ILC     -0.799800
     27 H1          7.7670   -1.5350   -0.2210 ha        1 ILC      0.128000
     28 H8          4.5870    1.4140   -0.0130 ha        1 ILC      0.153000
     29 H11         3.6420   -2.8000   -0.3890 ha        1 ILC      0.139000
     30 H12         6.0720   -3.3400   -0.3950 ha        1 ILC      0.124000
     31 H13         1.9770   -2.0710    1.0060 ha        1 ILC      0.126000
     32 H14        -0.4280   -1.5770    1.0230 ha        1 ILC      0.176000
     33 H20         2.7290    1.4490   -1.3940 ha        1 ILC      0.140000
     34 H24        -4.5780    0.2440    2.5160 ha        1 ILC      0.152000
     35 H41         8.9820    1.8590    0.0500 h1        1 ILC      0.038367
     36 H42         8.7940    0.2060    0.8320 h1        1 ILC      0.038367
     37 H43         8.7900    0.3590   -0.9960 h1        1 ILC      0.038367
     38 HN17       -1.9170    1.2050   -0.9310 hn        1 ILC      0.392500
     39 H25        -6.9920    1.0920    1.8050 h4        1 ILC      0.151000
@<TRIPOS>BOND
     1    1    2 ar  
     2    1    7 ar  
     3    1   27 1   
     4    2    3 ar  
     5    2   16 1   
     6    3    4 ar  
     7    3   28 1   
     8    4    5 1   
     9    4    6 ar  
    10    5    8 ar  
    11    5   11 ar  
    12    6    7 ar  
    13    6   29 1   
    14    7   30 1   
    15    8    9 ar  
    16    8   31 1   
    17    9   10 ar  
    18    9   32 1   
    19   10   18 1   
    20   10   19 ar  
    21   11   19 ar  
    22   11   33 1   
    23   12   13 1   
    24   12   18 1   
    25   12   21 2   
    26   13   14 1   
    27   13   15 2   
    28   14   22 2   
    29   14   34 1   
    30   15   23 1   
    31   15   24 1   
    32   16   17 1   
    33   17   35 1   
    34   17   36 1   
    35   17   37 1   
    36   18   38 1   
    37   19   20 1   
    38   22   23 1   
    39   22   39 1   
    40   24   25 1   
    41   24   26 1   
@<TRIPOS>SUBSTRUCTURE
     1 ILC         1 TEMP              0 ****  ****    0 ROOT
