@<TRIPOS>MOLECULE
ILC
   39    41     1     0     0
SMALL
bcc


@<TRIPOS>ATOM
      1 C1          0.0870   -0.4940   -0.1890 ca        1 ILC     -0.216000
      2 C2          1.0310    0.4900    0.1230 ca        1 ILC      0.117100
      3 C8          1.6700    0.5120    1.3750 ca        1 ILC     -0.152000
      4 C9          1.3580   -0.4640    2.3260 cp        1 ILC      0.027000
      5 C10         2.0100   -0.4570    3.6320 cp        1 ILC     -0.090000
      6 C11         0.4080   -1.4530    2.0130 ca        1 ILC     -0.157000
      7 C12        -0.2140   -1.4620    0.7710 ca        1 ILC     -0.101000
      8 C13         2.3800   -1.6550    4.2550 ca        1 ILC     -0.104000
      9 C14         2.9970   -1.6620    5.4980 ca        1 ILC     -0.164000
     10 C16         3.2810   -0.4620    6.1890 ca        1 ILC      0.094600
     11 C20         2.2770    0.7490    4.2870 ca        1 ILC     -0.129000
     12 C21         4.5560   -1.4620    8.0670 c         1 ILC      0.721700
     13 C22         5.0950   -1.2060    9.4160 cc        1 ILC     -0.215600
     14 C24         6.2920   -1.8950    9.8210 cc        1 ILC     -0.107000
     15 C27         4.6030   -0.3940   10.4230 cd        1 ILC     -0.059700
     16 O3          1.4190    1.5010   -0.7400 os        1 ILC     -0.329900
     17 C4          0.7770    1.5190   -2.0070 c3        1 ILC      0.116700
     18 N17         3.8890   -0.4140    7.4390 n         1 ILC     -0.462100
     19 C18         2.9020    0.7610    5.5400 ca        1 ILC      0.064900
     20 F19         3.1430    1.9580    6.1310 f         1 ILC     -0.130900
     21 O23         4.7500   -2.5610    7.4980 o         1 ILC     -0.644100
     22 C25         6.6600   -1.5620   11.1010 cd        1 ILC     -0.233100
     23 S26         5.5780   -0.4840   11.7840 ss        1 ILC      0.030200
     24 C28         3.3640    0.4820   10.4350 c         1 ILC      0.925200
     25 O29         3.3040    1.4210    9.5900 o         1 ILC     -0.799800
     26 O30         2.4860    0.2400   11.3020 o         1 ILC     -0.799800
     27 H1         -0.4140   -0.5160   -1.1640 ha        1 ILC      0.128000
     28 H8          2.4130    1.2940    1.5900 ha        1 ILC      0.153000
     29 H11         0.1540   -2.2150    2.7640 ha        1 ILC      0.139000
     30 H12        -0.9580   -2.2390    0.5370 ha        1 ILC      0.124000
     31 H13         2.1840   -2.6140    3.7510 ha        1 ILC      0.126000
     32 H14         3.2720   -2.6300    5.9520 ha        1 ILC      0.176000
     33 H20         1.9910    1.7080    3.8290 ha        1 ILC      0.140000
     34 H24         6.8060   -2.5940    9.1590 ha        1 ILC      0.152000
     35 H41         1.2290    2.4070   -2.5180 h1        1 ILC      0.038367
     36 H42        -0.3260    1.6520   -1.8910 h1        1 ILC      0.038367
     37 H43         0.9980    0.5840   -2.5770 h1        1 ILC      0.038367
     38 HN17        3.7750    0.4490    7.9630 hn        1 ILC      0.392500
     39 H25         7.5300   -1.9410   11.6290 h4        1 ILC      0.151000
@<TRIPOS>BOND
     1    1    2 ar  
     2    1    7 ar  
     3    1   27 1   
     4    2    3 ar  
     5    2   16 1   
     6    3    4 ar  
     7    3   28 1   
     8    4    5 1   
     9    4    6 ar  
    10    5    8 ar  
    11    5   11 ar  
    12    6    7 ar  
    13    6   29 1   
    14    7   30 1   
    15    8    9 ar  
    16    8   31 1   
    17    9   10 ar  
    18    9   32 1   
    19   10   18 1   
    20   10   19 ar  
    21   11   19 ar  
    22   11   33 1   
    23   12   13 1   
    24   12   18 1   
    25   12   21 2   
    26   13   14 1   
    27   13   15 2   
    28   14   22 2   
    29   14   34 1   
    30   15   23 1   
    31   15   24 1   
    32   16   17 1   
    33   17   35 1   
    34   17   36 1   
    35   17   37 1   
    36   18   38 1   
    37   19   20 1   
    38   22   23 1   
    39   22   39 1   
    40   24   25 1   
    41   24   26 1   
@<TRIPOS>SUBSTRUCTURE
     1 ILC         1 TEMP              0 ****  ****    0 ROOT
