@<TRIPOS>MOLECULE
ILC
   40    42     1     0     0
SMALL
bcc


@<TRIPOS>ATOM
      1 C1         -0.0140   -0.0880   -0.2150 ca        1 ILC     -0.198000
      2 C2          1.3200    0.3230   -0.1160 ca        1 ILC      0.124100
      3 C8          1.9940    0.3000    1.1190 ca        1 ILC     -0.145000
      4 C9          1.3200   -0.1410    2.2610 cp        1 ILC     -0.009000
      5 C10         2.0060   -0.1710    3.5510 cp        1 ILC     -0.036000
      6 C11        -0.0190   -0.5540    2.1620 ca        1 ILC     -0.151000
      7 C12        -0.6730   -0.5240    0.9350 ca        1 ILC     -0.095000
      8 C13         1.8090   -1.2340    4.4410 ca        1 ILC     -0.104000
      9 C14         2.4540   -1.2750    5.6720 ca        1 ILC     -0.134000
     10 C16         3.3310   -0.2450    6.0640 ca        1 ILC      0.038600
     11 C20         2.8700    0.8660    3.9150 ca        1 ILC     -0.125000
     12 C21         4.0560   -1.2330    8.2420 c         1 ILC      0.707700
     13 C22         4.8830   -0.9350    9.4370 cc        1 ILC     -0.151600
     14 C24         6.2060   -0.4100    9.3380 cc        1 ILC     -0.139000
     15 C27         4.5110   -1.1350   10.7640 cd        1 ILC     -0.193700
     16 O3          2.0810    0.7750   -1.1770 os        1 ILC     -0.327900
     17 C4          1.4360    0.8010   -2.4450 c3        1 ILC      0.113700
     18 N17         4.0050   -0.2240    7.2950 n         1 ILC     -0.452100
     19 C18         3.5280    0.8400    5.1520 ca        1 ILC      0.068900
     20 F19         4.3580    1.8660    5.4760 f         1 ILC     -0.148900
     21 O23         3.4690   -2.3260    8.1150 o         1 ILC     -0.601100
     22 C25         6.7720   -0.2450   10.5880 cd        1 ILC     -0.196100
     23 S26         5.7400   -0.6830   11.7990 ss        1 ILC      0.209200
     24 C28         3.2250   -1.6210   11.2720 c         1 ILC      0.669700
     25 O29         2.5780   -1.1100   12.1890 o         1 ILC     -0.491000
     26 O30         2.6650   -2.7480   10.7630 oh        1 ILC     -0.565100
     27 H1         -0.5440   -0.0720   -1.1770 ha        1 ILC      0.139000
     28 H8          3.0440    0.6210    1.1660 ha        1 ILC      0.152000
     29 H11        -0.5530   -0.8930    3.0630 ha        1 ILC      0.138000
     30 H12        -1.7230   -0.8470    0.8670 ha        1 ILC      0.135000
     31 H13         1.1350   -2.0590    4.1630 ha        1 ILC      0.147000
     32 H14         2.2700   -2.1330    6.3410 ha        1 ILC      0.180000
     33 H20         3.0390    1.7180    3.2390 ha        1 ILC      0.157000
     34 H24         6.7010   -0.1900    8.3880 ha        1 ILC      0.168000
     35 H41         0.5590    1.4940   -2.4270 h1        1 ILC      0.045033
     36 H42         1.1180   -0.2260   -2.7480 h1        1 ILC      0.045033
     37 H43         2.2310    1.1880   -3.1320 h1        1 ILC      0.045033
     38 HN17        3.1750   -3.0800   10.0050 ho        1 ILC      0.461000
     39 H25         7.7810    0.1310   10.7650 h4        1 ILC      0.186000
     40 H172        4.5130    0.6140    7.4920 hn        1 ILC      0.334500
@<TRIPOS>BOND
     1    1    2 ar  
     2    1    7 ar  
     3    1   27 1   
     4    2    3 ar  
     5    2   16 1   
     6    3    4 ar  
     7    3   28 1   
     8    4    5 1   
     9    4    6 ar  
    10    5    8 ar  
    11    5   11 ar  
    12    6    7 ar  
    13    6   29 1   
    14    7   30 1   
    15    8    9 ar  
    16    8   31 1   
    17    9   10 ar  
    18    9   32 1   
    19   10   18 1   
    20   10   19 ar  
    21   11   19 ar  
    22   11   33 1   
    23   12   13 1   
    24   12   18 1   
    25   12   21 2   
    26   13   14 1   
    27   13   15 2   
    28   14   22 2   
    29   14   34 1   
    30   15   23 1   
    31   15   24 1   
    32   16   17 1   
    33   17   35 1   
    34   17   36 1   
    35   17   37 1   
    36   18   40 1   
    37   19   20 1   
    38   22   23 1   
    39   22   39 1   
    40   24   25 2   
    41   24   26 1   
    42   26   38 1   
@<TRIPOS>SUBSTRUCTURE
     1 ILC         1 TEMP              0 ****  ****    0 ROOT
