@<TRIPOS>MOLECULE
ILE
   21    20     1     0     0
SMALL
bcc


@<TRIPOS>ATOM
      1 N          -1.9490    0.5280   -0.2140 n3        1 ILE     -0.891800
      2 CA         -0.4960    0.4490   -0.3270 c3        1 ILE      0.023500
      3 C          -0.0430   -0.3180   -1.6160 c         1 ILE      0.884600
      4 O          -0.7520   -1.2920   -2.0000 o         1 ILE     -0.844300
      5 CB          0.1760   -0.2170    0.8920 c3        1 ILE     -0.043700
      6 CG1        -0.3960    0.2870    2.2090 c3        1 ILE     -0.072400
      7 CG2         1.6710    0.0240    0.8290 c3        1 ILE     -0.095100
      8 CD1         0.3130   -0.2860    3.4110 c3        1 ILE     -0.088100
      9 OXT         0.9910    0.0910   -2.2150 o         1 ILE     -0.844300
     10 H          -2.2990    0.8590   -1.0960 hn        1 ILE      0.329300
     11 H2         -2.3020   -0.4080   -0.1040 hn        1 ILE      0.329300
     12 HA         -0.1140    1.5070   -0.4000 h1        1 ILE      0.042700
     13 HB         -0.0130   -1.3260    0.8220 hc        1 ILE      0.047700
     14 HG12       -1.4830    0.0150    2.2740 hc        1 ILE      0.035700
     15 HG13       -0.3330    1.4060    2.2330 hc        1 ILE      0.035700
     16 HG21        1.9120    1.0750    1.1210 hc        1 ILE      0.032700
     17 HG22        2.2070   -0.6670    1.5230 hc        1 ILE      0.032700
     18 HG23        2.0420   -0.1460   -0.2150 hc        1 ILE      0.032700
     19 HD11       -0.2280   -0.0130    4.3490 hc        1 ILE      0.017367
     20 HD12        0.3640   -1.4000    3.3440 hc        1 ILE      0.017367
     21 HD13        1.3570    0.1060    3.4830 hc        1 ILE      0.017367
@<TRIPOS>BOND
     1    1    2 1   
     2    1   10 1   
     3    1   11 1   
     4    2    3 1   
     5    2    5 1   
     6    2   12 1   
     7    3    4 1   
     8    3    9 1   
     9    5    6 1   
    10    5    7 1   
    11    5   13 1   
    12    6    8 1   
    13    6   14 1   
    14    6   15 1   
    15    7   16 1   
    16    7   17 1   
    17    7   18 1   
    18    8   19 1   
    19    8   20 1   
    20    8   21 1   
@<TRIPOS>SUBSTRUCTURE
     1 ILE         1 TEMP              0 ****  ****    0 ROOT
