@<TRIPOS>MOLECULE
ILF
   39    30     1     0     0
SMALL
bcc


@<TRIPOS>ATOM
      1 C1         -2.5390   -0.5240   -4.9680 c1        1 ILF     -0.131500
      2 C2         -1.3290   -1.1880   -4.8390 c1        1 ILF      0.029000
      3 C8         -0.6330   -1.1330   -3.6430 c1        1 ILF     -0.107000
      4 C9         -1.1460   -0.4150   -2.5740 c1        1 ILF     -0.028500
      5 C10        -0.4680   -0.3930   -1.3650 c1        1 ILF     -0.028500
      6 C11        -2.3550    0.2490   -2.7030 c1        1 ILF     -0.134500
      7 C12        -3.0520    0.1940   -3.8990 c1        1 ILF     -0.131500
      8 C13        -0.6080   -1.3780   -0.4000 c1        1 ILF     -0.134500
      9 C14         0.0020   -1.2310    0.8350 c1        1 ILF      0.084000
     10 C16         0.7530   -0.0970    1.1060 c1        1 ILF      0.062000
     11 C20         0.2830    0.7400   -1.0940 c1        1 ILF     -0.154000
     12 C21         0.7330    0.5560    3.4750 c1        1 ILF      0.389000
     13 C22         1.4520    0.7170    4.7950 c1        1 ILF     -0.147000
     14 C24         2.9740    0.3420    5.0790 c1        1 ILF     -0.147000
     15 C27         0.8750    1.2380    6.0190 c1        1 ILF     -0.406500
     16 O3         -0.8480   -1.9810   -5.8960 os        1 ILF     -0.251000
     17 C4         -0.3860   -1.2410   -6.9980 c3        1 ILF      0.532000
     18 F5         -0.3990    0.0630   -6.6970 f         1 ILF     -0.150000
     19 F6          0.8640   -1.6180   -7.2960 f         1 ILF     -0.150000
     20 F7         -1.1830   -1.4640   -8.0510 f         1 ILF     -0.150000
     21 F15        -0.1590   -2.1680    1.7780 f         1 ILF     -0.083000
     22 N17         1.4210    0.0300    2.3520 n2        1 ILF     -0.322000
     23 C18         0.8930    0.8880    0.1420 c2        1 ILF      0.064000
     24 F19         1.5930    1.9970    0.4140 f         1 ILF     -0.080000
     25 O23        -0.4280    0.8980    3.3710 o         1 ILF     -0.381000
     26 C25         3.2670    0.6490    6.4660 c1        1 ILF     -0.406500
     27 S26         1.9770    1.2190    7.1120 ss        1 ILF      0.572000
     28 C28        -0.1700    1.9020    6.8890 c1        1 ILF      0.373000
     29 O29        -1.0270    1.2010    7.4880 o         1 ILF     -0.535000
     30 O30        -0.1950    3.1560    6.9980 o         1 ILF     -0.535000
     31 H1         -3.0300   -0.5630   -5.8100 ha        1 ILF      0.141500
     32 H8          0.2190   -1.6000   -3.5520 ha        1 ILF      0.159000
     33 H11        -2.7160    0.7550   -1.9500 ha        1 ILF      0.145500
     34 H12        -3.9010    0.6660   -3.9910 ha        1 ILF      0.141500
     35 H13        -1.1360   -2.1760   -0.5910 ha        1 ILF      0.145500
     36 H20         0.3810    1.4340   -1.7730 ha        1 ILF      0.144000
     37 H24         3.6020   -0.0310    4.4310 DU        1 ILF      0.152500
     38 HN17        2.2970   -0.2140    2.4260 hn        1 ILF      0.308000
     39 H25         4.1250    0.5200    6.9140 DU        1 ILF      0.152500
@<TRIPOS>BOND
     1    1    7 1   
     2    1   31 1   
     3    2    3 1   
     4    2   16 1   
     5    3   32 1   
     6    4    6 1   
     7    5    8 1   
     8    6   33 1   
     9    7   34 1   
    10    8   35 1   
    11    9   10 1   
    12    9   21 1   
    13   10   23 1   
    14   11   23 1   
    15   11   36 1   
    16   12   22 1   
    17   12   25 1   
    18   13   14 1   
    19   13   15 1   
    20   14   26 1   
    21   15   27 1   
    22   16   17 1   
    23   17   18 1   
    24   17   19 1   
    25   17   20 1   
    26   22   38 1   
    27   23   24 1   
    28   26   27 1   
    29   28   29 1   
    30   28   30 1   
@<TRIPOS>SUBSTRUCTURE
     1 ILF         1 TEMP              0 ****  ****    0 ROOT
