@<TRIPOS>MOLECULE
ILF
   39    41     1     0     0
SMALL
bcc


@<TRIPOS>ATOM
      1 C1         55.5670   48.1600   -0.7520 ca        1 ILF     -0.141000
      2 C2         55.1710   47.8740   -2.0640 ca        1 ILF      0.074100
      3 C8         54.2550   46.8590   -2.3590 ca        1 ILF     -0.106000
      4 C9         53.7120   46.1100   -1.3060 cp        1 ILF      0.002000
      5 C10        52.7500   45.0440   -1.5780 cp        1 ILF     -0.060000
      6 C11        54.1040   46.3900    0.0120 ca        1 ILF     -0.116000
      7 C12        55.0220   47.4040    0.2830 ca        1 ILF     -0.123000
      8 C13        51.6600   44.8460   -0.7290 ca        1 ILF     -0.151500
      9 C14        50.7290   43.8250   -0.9780 ca        1 ILF      0.107400
     10 C16        50.8860   42.9300   -2.0790 ca        1 ILF      0.063600
     11 C20        52.9110   44.2120   -2.6890 ca        1 ILF     -0.151500
     12 C21        49.3570   41.1190   -1.3990 c         1 ILF      0.718700
     13 C22        48.4090   40.0970   -1.8700 cc        1 ILF     -0.211600
     14 C24        48.1060   38.9920   -0.9970 cc        1 ILF     -0.106000
     15 C27        47.7050   40.0170   -3.0610 cd        1 ILF     -0.057700
     16 O3         55.5830   48.6980   -3.1180 os        1 ILF     -0.366900
     17 C4         56.9120   48.5900   -3.5440 c3        1 ILF      0.817700
     18 F5         57.7850   49.0410   -2.6050 f         1 ILF     -0.221300
     19 F6         57.2590   47.3250   -3.8890 f         1 ILF     -0.221300
     20 F7         56.9980   49.3890   -4.6370 f         1 ILF     -0.221300
     21 F15        49.6670   43.7180   -0.1460 f         1 ILF     -0.119900
     22 N17        50.0030   41.8960   -2.3620 n         1 ILF     -0.470100
     23 C18        52.0090   43.1690   -2.9350 ca        1 ILF      0.107400
     24 F19        52.2200   42.3770   -4.0150 f         1 ILF     -0.119900
     25 O23        49.6190   41.2640   -0.1850 o         1 ILF     -0.627100
     26 C25        47.2060   38.1260   -1.5660 cd        1 ILF     -0.234100
     27 S26        46.7350   38.6500   -3.0830 ss        1 ILF      0.032200
     28 C28        47.7000   40.9570   -4.2510 c         1 ILF      0.925200
     29 O29        48.7940   41.1330   -4.8640 o         1 ILF     -0.800300
     30 O30        46.6060   41.4820   -4.5780 o         1 ILF     -0.800300
     31 H1         56.2930   48.9620   -0.5560 ha        1 ILF      0.147000
     32 H8         53.9560   46.6690   -3.4010 ha        1 ILF      0.161000
     33 H11        53.6850   45.7950    0.8390 ha        1 ILF      0.146000
     34 H12        55.3200   47.6100    1.3220 ha        1 ILF      0.135000
     35 H13        51.5010   45.5030    0.1390 ha        1 ILF      0.143500
     36 H20        53.7590   44.3530   -3.3760 ha        1 ILF      0.143500
     37 H24        48.5580   38.9020   -0.0060 ha        1 ILF      0.154000
     38 HN17       49.8760   41.6580   -3.3400 hn        1 ILF      0.395500
     39 H25        46.8270   37.2170   -1.1100 h4        1 ILF      0.152000
@<TRIPOS>BOND
     1    1    2 ar  
     2    1    7 ar  
     3    1   31 1   
     4    2    3 ar  
     5    2   16 1   
     6    3    4 ar  
     7    3   32 1   
     8    4    5 1   
     9    4    6 ar  
    10    5    8 ar  
    11    5   11 ar  
    12    6    7 ar  
    13    6   33 1   
    14    7   34 1   
    15    8    9 ar  
    16    8   35 1   
    17    9   10 ar  
    18    9   21 1   
    19   10   22 1   
    20   10   23 ar  
    21   11   23 ar  
    22   11   36 1   
    23   12   13 1   
    24   12   22 1   
    25   12   25 2   
    26   13   14 1   
    27   13   15 2   
    28   14   26 2   
    29   14   37 1   
    30   15   27 1   
    31   15   28 1   
    32   16   17 1   
    33   17   18 1   
    34   17   19 1   
    35   17   20 1   
    36   22   38 1   
    37   23   24 1   
    38   26   27 1   
    39   26   39 1   
    40   28   29 1   
    41   28   30 1   
@<TRIPOS>SUBSTRUCTURE
     1 ILF         1 TEMP              0 ****  ****    0 ROOT
