@<TRIPOS>MOLECULE
ILF
   39    41     1     0     0
SMALL
bcc


@<TRIPOS>ATOM
      1 C1          0.3050   -0.1520    0.0460 ca        1 ILF     -0.141000
      2 C2          1.6630    0.1370    0.2250 ca        1 ILF      0.074100
      3 C8          2.2330    0.2640    1.4950 ca        1 ILF     -0.106000
      4 C9          1.4210    0.0880    2.6240 cp        1 ILF      0.002000
      5 C10         1.9860    0.2100    3.9660 cp        1 ILF     -0.060000
      6 C11         0.0580   -0.2020    2.4530 ca        1 ILF     -0.116000
      7 C12        -0.4910   -0.3190    1.1770 ca        1 ILF     -0.123000
      8 C13         1.5740   -0.6510    4.9840 ca        1 ILF     -0.151500
      9 C14         2.1080   -0.5450    6.2780 ca        1 ILF      0.107400
     10 C16         3.0550    0.4720    6.6090 ca        1 ILF      0.063600
     11 C20         2.9420    1.1900    4.2450 ca        1 ILF     -0.151500
     12 C21         2.9090    0.4270    9.0700 c         1 ILF      0.718700
     13 C22         3.6570    0.5860   10.3280 cc        1 ILF     -0.211600
     14 C24         2.9160    0.8640   11.5320 cc        1 ILF     -0.106000
     15 C27         5.0170    0.4910   10.5730 cd        1 ILF     -0.057700
     16 O3          2.5250    0.1720   -0.8770 os        1 ILF     -0.366900
     17 C4          2.4470    1.2830   -1.7260 c3        1 ILF      0.817700
     18 F5          1.2730    1.3200   -2.4090 f         1 ILF     -0.221300
     19 F6          2.6100    2.4620   -1.0750 f         1 ILF     -0.221300
     20 F7          3.4610    1.1200   -2.6120 f         1 ILF     -0.221300
     21 F15         1.7050   -1.4430    7.2060 f         1 ILF     -0.119900
     22 N17         3.6020    0.6300    7.8760 ns        1 ILF     -0.470100
     23 C18         3.4610    1.3310    5.5380 ca        1 ILF      0.107400
     24 F19         4.3720    2.3100    5.7630 f         1 ILF     -0.119900
     25 O23         1.6870    0.1670    9.0590 o         1 ILF     -0.627100
     26 C25         3.7430    0.9790   12.6210 cd        1 ILF     -0.234100
     27 S26         5.3420    0.7360   12.1990 ss        1 ILF      0.032200
     28 C28         6.1580    0.2010    9.6170 c         1 ILF      0.925200
     29 O29         6.3470    1.0130    8.6650 o         1 ILF     -0.800300
     30 O30         6.8680   -0.8110    9.8440 o         1 ILF     -0.800300
     31 H1         -0.1130   -0.2400   -0.9670 ha        1 ILF      0.147000
     32 H8          3.3080    0.4790    1.6010 ha        1 ILF      0.161000
     33 H11        -0.5820   -0.3300    3.3390 ha        1 ILF      0.146000
     34 H12        -1.5610   -0.5450    1.0610 ha        1 ILF      0.135000
     35 H13         0.8400   -1.4450    4.7820 ha        1 ILF      0.143500
     36 H20         3.2860    1.8780    3.4580 ha        1 ILF      0.143500
     37 H24         1.8280    0.9550   11.5290 ha        1 ILF      0.154000
     38 HN17        4.5540    0.9780    7.9220 hn        1 ILF      0.395500
     39 H25         3.4240    1.1930   13.6380 h4        1 ILF      0.152000
@<TRIPOS>BOND
     1    1    2 ar  
     2    1    7 ar  
     3    1   31 1   
     4    2    3 ar  
     5    2   16 1   
     6    3    4 ar  
     7    3   32 1   
     8    4    5 1   
     9    4    6 ar  
    10    5    8 ar  
    11    5   11 ar  
    12    6    7 ar  
    13    6   33 1   
    14    7   34 1   
    15    8    9 ar  
    16    8   35 1   
    17    9   10 ar  
    18    9   21 1   
    19   10   22 1   
    20   10   23 ar  
    21   11   23 ar  
    22   11   36 1   
    23   12   13 1   
    24   12   22 1   
    25   12   25 2   
    26   13   14 1   
    27   13   15 2   
    28   14   26 2   
    29   14   37 1   
    30   15   27 1   
    31   15   28 1   
    32   16   17 1   
    33   17   18 1   
    34   17   19 1   
    35   17   20 1   
    36   22   38 1   
    37   23   24 1   
    38   26   27 1   
    39   26   39 1   
    40   28   29 1   
    41   28   30 1   
@<TRIPOS>SUBSTRUCTURE
     1 ILF         1 TEMP              0 ****  ****    0 ROOT
