@<TRIPOS>MOLECULE
ILF
   40    42     1     0     0
SMALL
bcc


@<TRIPOS>ATOM
      1 C1          0.4080   -0.2390   -0.0290 ca        1 ILF     -0.122000
      2 C2          1.6660    0.3200    0.2260 ca        1 ILF      0.082100
      3 C8          2.1890    0.4030    1.5210 ca        1 ILF     -0.099000
      4 C9          1.4340   -0.0990    2.5890 cp        1 ILF     -0.035000
      5 C10         1.9590   -0.0320    3.9530 cp        1 ILF      0.001000
      6 C11         0.1730   -0.6610    2.3430 ca        1 ILF     -0.107000
      7 C12        -0.3340   -0.7270    1.0460 ca        1 ILF     -0.119000
      8 C13         1.7900   -1.1140    4.8230 ca        1 ILF     -0.156000
      9 C14         2.2770   -1.0480    6.1350 ca        1 ILF      0.140900
     10 C16         2.9640    0.1060    6.6140 ca        1 ILF     -0.013400
     11 C20         2.6320    1.1100    4.3920 ca        1 ILF     -0.156000
     12 C21         3.2040    1.1730    8.8200 c         1 ILF      0.682700
     13 C22         3.7290    1.0090   10.1930 cc        1 ILF     -0.144600
     14 C24         3.0540    1.6170   11.2940 cc        1 ILF     -0.104000
     15 C27         4.8540    0.3000   10.6140 cd        1 ILF     -0.227700
     16 O3          2.5030    0.6910   -0.8280 os        1 ILF     -0.368900
     17 C4          2.1790    1.8560   -1.5400 c3        1 ILF      0.820700
     18 F5          1.0210    1.7170   -2.2340 f         1 ILF     -0.215633
     19 F6          2.0850    2.9450   -0.7370 f         1 ILF     -0.215633
     20 F7          3.2030    2.0270   -2.4110 f         1 ILF     -0.215633
     21 F15         2.1020   -2.1140    6.9550 f         1 ILF     -0.125400
     22 N17         3.4810    0.1420    7.9210 n         1 ILF     -0.467100
     23 C18         3.1420    1.1820    5.7000 ca        1 ILF      0.140900
     24 F19         3.8090    2.2980    6.0730 f         1 ILF     -0.125400
     25 O23         2.5690    2.1880    8.4830 o         1 ILF     -0.554100
     26 C25         3.6920    1.3330   12.4880 cd        1 ILF     -0.199100
     27 S26         5.0250    0.3820   12.2690 ss        1 ILF      0.206200
     28 C28         5.7840   -0.4430    9.7660 c         1 ILF      0.661700
     29 O29         6.3690    0.1800    8.7040 oh        1 ILF     -0.561100
     30 O30         6.1340   -1.6160    9.9070 o         1 ILF     -0.478000
     31 H1          0.0220   -0.2850   -1.0580 ha        1 ILF      0.158000
     32 H8          3.1860    0.8390    1.6860 ha        1 ILF      0.159000
     33 H11        -0.4250   -1.0460    3.1830 ha        1 ILF      0.144000
     34 H12        -1.3260   -1.1680    0.8660 ha        1 ILF      0.145000
     35 H13         1.2770   -2.0280    4.4880 ha        1 ILF      0.161000
     36 H20         2.7710    1.9710    3.7210 ha        1 ILF      0.161000
     37 H24         2.1570    2.2310   11.1700 ha        1 ILF      0.184000
     38 HN17        3.7700   -0.7400    8.2900 hn        1 ILF      0.334500
     39 H25         3.3650    1.6920   13.4650 h4        1 ILF      0.188000
     40 H172        6.0270    1.0820    8.6110 ho        1 ILF      0.442000
@<TRIPOS>BOND
     1    1    2 ar  
     2    1    7 ar  
     3    1   31 1   
     4    2    3 ar  
     5    2   16 1   
     6    3    4 ar  
     7    3   32 1   
     8    4    5 1   
     9    4    6 ar  
    10    5    8 ar  
    11    5   11 ar  
    12    6    7 ar  
    13    6   33 1   
    14    7   34 1   
    15    8    9 ar  
    16    8   35 1   
    17    9   10 ar  
    18    9   21 1   
    19   10   22 1   
    20   10   23 ar  
    21   11   23 ar  
    22   11   36 1   
    23   12   13 1   
    24   12   22 1   
    25   12   25 2   
    26   13   14 1   
    27   13   15 2   
    28   14   26 2   
    29   14   37 1   
    30   15   27 1   
    31   15   28 1   
    32   16   17 1   
    33   17   18 1   
    34   17   19 1   
    35   17   20 1   
    36   22   38 1   
    37   23   24 1   
    38   26   27 1   
    39   26   39 1   
    40   28   29 1   
    41   28   30 2   
    42   29   40 1   
@<TRIPOS>SUBSTRUCTURE
     1 ILF         1 TEMP              0 ****  ****    0 ROOT
