@<TRIPOS>MOLECULE
ILG
   18    17     1     0     0
SMALL
bcc


@<TRIPOS>ATOM
      1 N           0.9100   -1.8790   -0.2990 n4        1 ILG     -0.836600
      2 CA          0.7360   -0.3960   -0.3650 c3        1 ILG     -0.077500
      3 C           2.0250    0.3130    0.2990 c         1 ILG      0.939600
      4 O           2.9480   -0.4820    0.6170 o         1 ILG     -0.751800
      5 CB         -0.5220    0.0940    0.3220 c3        1 ILG     -0.091400
      6 CG         -1.7770   -0.2550   -0.4450 c3        1 ILG     -0.217400
      7 CD         -3.0000    0.2360    0.2730 c         1 ILG      0.566900
      8 OE1        -3.9970   -0.4670    0.4340 o         1 ILG     -0.520100
      9 OXT         1.9510    1.5470    0.3940 o         1 ILG     -0.751800
     10 H           1.9030   -2.0360    0.0060 hn        1 ILG      0.445133
     11 H2          0.7520   -2.3140   -1.2020 hn        1 ILG      0.445133
     12 H3          0.2830   -2.2850    0.3920 hn        1 ILG      0.445133
     13 HA          0.7350   -0.0970   -1.4490 hx        1 ILG      0.090700
     14 HB2        -0.5830   -0.3030    1.3710 hc        1 ILG      0.090200
     15 HB3        -0.4130    1.2140    0.4050 hc        1 ILG      0.090200
     16 HG2        -1.7550    0.2330   -1.4570 hc        1 ILG      0.060200
     17 HG3        -1.8540   -1.3630   -0.6070 hc        1 ILG      0.060200
     18 HD         -2.9470    1.2830    0.6430 h4        1 ILG      0.013200
@<TRIPOS>BOND
     1    1    2 1   
     2    1   10 1   
     3    1   11 1   
     4    1   12 1   
     5    2    3 1   
     6    2    5 1   
     7    2   13 1   
     8    3    4 1   
     9    3    9 1   
    10    5    6 1   
    11    5   14 1   
    12    5   15 1   
    13    6    7 1   
    14    6   16 1   
    15    6   17 1   
    16    7    8 2   
    17    7   18 1   
@<TRIPOS>SUBSTRUCTURE
     1 ILG         1 TEMP              0 ****  ****    0 ROOT
