@<TRIPOS>MOLECULE
ILH
   42    44     1     0     0
SMALL
bcc


@<TRIPOS>ATOM
      1 O1         -0.5880    0.2510   -0.3900 o         1 ILH     -0.488000
      2 C1          0.5090    0.7940   -0.5440 c         1 ILH      0.644300
      3 O2          0.5960    2.0300    0.0140 oh        1 ILH     -0.567100
      4 C2          1.6280    0.2140   -1.2920 ce        1 ILH     -0.145400
      5 C3          2.9740    0.1970   -1.0540 cf        1 ILH     -0.114200
      6 C4          3.6410   -0.5920   -2.1020 cf        1 ILH     -0.163000
      7 C5          2.7010   -1.0570   -2.9690 c2        1 ILH     -0.136200
      8 C6          1.3370   -0.5970   -2.5350 c3        1 ILH     -0.043000
      9 C7          3.7150    0.8590    0.0400 c         1 ILH      0.690300
     10 O3          3.4640    2.0210    0.4070 o         1 ILH     -0.571100
     11 N1          4.7100    0.0960    0.6460 n         1 ILH     -0.458100
     12 C8          5.5770    0.5720    1.6400 ca        1 ILH      0.037600
     13 C9          5.1250    1.3490    2.7370 ca        1 ILH      0.079900
     14 F1          3.8230    1.6750    2.8740 f         1 ILH     -0.106400
     15 C10         6.0410    1.8050    3.7250 ca        1 ILH      0.134400
     16 F2          5.5540    2.5630    4.7320 f         1 ILH     -0.106400
     17 C11         7.4090    1.4750    3.6680 cp        1 ILH     -0.073000
     18 C12         7.8560    0.6770    2.5940 ca        1 ILH      0.134400
     19 F3          9.1540    0.3140    2.4910 f         1 ILH     -0.106400
     20 C13         6.9600    0.2360    1.5910 ca        1 ILH      0.079900
     21 F4          7.4390   -0.5300    0.5800 f         1 ILH     -0.106400
     22 C14         8.3430    1.9430    4.6930 cp        1 ILH     -0.043000
     23 C15         8.0400    1.7680    6.0500 ca        1 ILH     -0.085000
     24 C16         8.9570    2.2150    7.0080 ca        1 ILH      0.081100
     25 O4          8.6980    1.8890    8.3410 os        1 ILH     -0.368900
     26 C17         8.3710    2.9350    9.2190 c3        1 ILH      0.820700
     27 F5          7.3060    3.6580    8.7930 f         1 ILH     -0.214967
     28 F6          8.0620    2.3220   10.3870 f         1 ILH     -0.214967
     29 F7          9.4220    3.7700    9.4180 f         1 ILH     -0.214967
     30 C18        10.1560    2.8420    6.6490 ca        1 ILH     -0.115000
     31 C19        10.4360    3.0180    5.2950 ca        1 ILH     -0.120000
     32 C20         9.5420    2.5700    4.3240 ca        1 ILH     -0.093000
     33 H4          4.7200   -0.7380   -2.1460 ha        1 ILH      0.155000
     34 H5          2.8500   -1.6670   -3.8600 ha        1 ILH      0.159000
     35 H61         0.8420    0.0290   -3.3200 hc        1 ILH      0.112200
     36 H62         0.6600   -1.4560   -2.2880 hc        1 ILH      0.112200
     37 HN1         1.4890    2.4000   -0.0900 ho        1 ILH      0.458000
     38 H15         7.1020    1.2870    6.3640 ha        1 ILH      0.163000
     39 H18        10.8530    3.1890    7.4270 ha        1 ILH      0.159000
     40 H19        11.3720    3.5100    4.9920 ha        1 ILH      0.147000
     41 H20         9.7800    2.7000    3.2560 ha        1 ILH      0.147000
     42 H12         4.9720   -0.7660    0.2160 hn        1 ILH      0.339500
@<TRIPOS>BOND
     1    1    2 2   
     2    2    3 1   
     3    2    4 1   
     4    3   37 1   
     5    4    5 2   
     6    4    8 1   
     7    5    6 1   
     8    5    9 1   
     9    6    7 2   
    10    6   33 1   
    11    7    8 1   
    12    7   34 1   
    13    8   35 1   
    14    8   36 1   
    15    9   10 2   
    16    9   11 1   
    17   11   12 1   
    18   11   42 1   
    19   12   13 ar  
    20   12   20 ar  
    21   13   14 1   
    22   13   15 ar  
    23   15   16 1   
    24   15   17 ar  
    25   17   18 ar  
    26   17   22 1   
    27   18   19 1   
    28   18   20 ar  
    29   20   21 1   
    30   22   23 ar  
    31   22   32 ar  
    32   23   24 ar  
    33   23   38 1   
    34   24   25 1   
    35   24   30 ar  
    36   25   26 1   
    37   26   27 1   
    38   26   28 1   
    39   26   29 1   
    40   30   31 ar  
    41   30   39 1   
    42   31   32 ar  
    43   31   40 1   
    44   32   41 1   
@<TRIPOS>SUBSTRUCTURE
     1 ILH         1 TEMP              0 ****  ****    0 ROOT
