@<TRIPOS>MOLECULE
ILH
   41    43     1     0     0
SMALL
bcc


@<TRIPOS>ATOM
      1 O1          0.0120    1.1550   -0.4630 o         1 ILH     -0.808800
      2 C1          1.0550    0.5350   -0.1270 c         1 ILH      0.905800
      3 O2          1.3690    0.2740    1.0740 o         1 ILH     -0.808800
      4 C2          1.9490    0.0500   -1.2390 ce        1 ILH     -0.057400
      5 C3          3.3030    0.0660   -1.4380 cf        1 ILH     -0.214200
      6 C4          3.6040   -0.4800   -2.7760 cf        1 ILH     -0.106000
      7 C5          2.4440   -0.8340   -3.3850 c2        1 ILH     -0.231200
      8 C6          1.2880   -0.5300   -2.4720 c3        1 ILH     -0.047000
      9 C7          4.4170    0.5280   -0.6030 c         1 ILH      0.709300
     10 O3          5.5240    0.8470   -1.0830 o         1 ILH     -0.614100
     11 N1          4.2040    0.5780    0.7830 n         1 ILH     -0.470100
     12 C8          5.1710    0.9260    1.7110 ca        1 ILH      0.103600
     13 C9          4.8070    1.6510    2.8890 ca        1 ILH      0.055400
     14 F1          3.5230    2.0250    3.0940 f         1 ILH     -0.099900
     15 C10         5.7680    1.9940    3.8690 ca        1 ILH      0.126400
     16 F2          5.3490    2.6820    4.9580 f         1 ILH     -0.126900
     17 C11         7.1290    1.6580    3.7150 cp        1 ILH     -0.131000
     18 C12         7.4960    0.9340    2.5640 ca        1 ILH      0.126400
     19 F3          8.7840    0.5590    2.3690 f         1 ILH     -0.126900
     20 C13         6.5410    0.5480    1.5900 ca        1 ILH      0.055400
     21 F4          6.9710   -0.1980    0.5480 f         1 ILH     -0.099900
     22 C14         8.1250    2.0480    4.7100 cp        1 ILH     -0.005000
     23 C15         7.8920    1.8170    6.0740 ca        1 ILH     -0.091000
     24 C16         8.8690    2.1940    7.0000 ca        1 ILH      0.072100
     25 O4          8.6750    1.8140    8.3320 os        1 ILH     -0.366900
     26 C17         8.4180    2.8260    9.2650 c3        1 ILH      0.817700
     27 F5          7.3630    3.6080    8.9280 f         1 ILH     -0.220633
     28 F6          8.1380    2.1740   10.4220 f         1 ILH     -0.220633
     29 F7          9.5040    3.6180    9.4650 f         1 ILH     -0.220633
     30 C18        10.0660    2.8050    6.6090 ca        1 ILH     -0.133000
     31 C19        10.2800    3.0360    5.2520 ca        1 ILH     -0.126000
     32 C20         9.3220    2.6610    4.3110 ca        1 ILH     -0.100000
     33 H4          4.6250   -0.5480   -3.1520 ha        1 ILH      0.144000
     34 H5          2.3060   -1.2710   -4.3700 ha        1 ILH      0.126000
     35 H61         0.7060   -1.4470   -2.2100 hc        1 ILH      0.091200
     36 H62         0.5850    0.2270   -2.9050 hc        1 ILH      0.091200
     37 HN1         3.2430    0.5180    1.1180 hn        1 ILH      0.402500
     38 H15         6.9560    1.3460    6.4120 ha        1 ILH      0.164000
     39 H18        10.8110    3.0950    7.3630 ha        1 ILH      0.147000
     40 H19        11.2120    3.5160    4.9210 ha        1 ILH      0.136000
     41 H20         9.5060    2.8350    3.2380 ha        1 ILH      0.150000
@<TRIPOS>BOND
     1    1    2 1   
     2    2    3 1   
     3    2    4 1   
     4    4    5 2   
     5    4    8 1   
     6    5    6 1   
     7    5    9 1   
     8    6    7 2   
     9    6   33 1   
    10    7    8 1   
    11    7   34 1   
    12    8   35 1   
    13    8   36 1   
    14    9   10 2   
    15    9   11 1   
    16   11   12 1   
    17   11   37 1   
    18   12   13 ar  
    19   12   20 ar  
    20   13   14 1   
    21   13   15 ar  
    22   15   16 1   
    23   15   17 ar  
    24   17   18 ar  
    25   17   22 1   
    26   18   19 1   
    27   18   20 ar  
    28   20   21 1   
    29   22   23 ar  
    30   22   32 ar  
    31   23   24 ar  
    32   23   38 1   
    33   24   25 1   
    34   24   30 ar  
    35   25   26 1   
    36   26   27 1   
    37   26   28 1   
    38   26   29 1   
    39   30   31 ar  
    40   30   39 1   
    41   31   32 ar  
    42   31   40 1   
    43   32   41 1   
@<TRIPOS>SUBSTRUCTURE
     1 ILH         1 TEMP              0 ****  ****    0 ROOT
