@<TRIPOS>MOLECULE
ILH
   41    43     1     0     0
SMALL
bcc


@<TRIPOS>ATOM
      1 O1         48.8380   38.7180   -5.2540 o         1 ILH     -0.808800
      2 C1         48.7050   39.7630   -4.5630 c         1 ILH      0.905800
      3 O2         49.0560   40.9180   -4.9500 o         1 ILH     -0.808800
      4 C2         48.0530   39.6090   -3.2130 ce        1 ILH     -0.057400
      5 C3         48.3350   40.0990   -1.9660 cf        1 ILH     -0.214200
      6 C4         47.3820   39.5280   -0.9930 cf        1 ILH     -0.106000
      7 C5         46.5210   38.7040   -1.6420 c2        1 ILH     -0.231200
      8 C6         46.8660   38.6760   -3.1060 c3        1 ILH     -0.047000
      9 C7         49.3720   41.0140   -1.4780 c         1 ILH      0.709300
     10 O3         49.7380   41.0310   -0.2840 o         1 ILH     -0.614100
     11 N1         49.9330   41.9040   -2.4050 n         1 ILH     -0.470100
     12 C8         50.8710   42.8730   -2.0910 ca        1 ILH      0.103600
     13 C9         51.8970   43.2100   -3.0300 ca        1 ILH      0.055400
     14 F1         51.9750   42.5690   -4.2180 f         1 ILH     -0.099900
     15 C10        52.8500   44.2170   -2.7490 ca        1 ILH      0.126400
     16 F2         53.7930   44.4800   -3.6850 f         1 ILH     -0.126900
     17 C11        52.8460   44.9130   -1.5220 cp        1 ILH     -0.131000
     18 C12        51.8330   44.5970   -0.5960 ca        1 ILH      0.126400
     19 F3         51.7590   45.2470    0.5900 f         1 ILH     -0.126900
     20 C13        50.8460   43.6180   -0.8760 ca        1 ILH      0.055400
     21 F4         49.8760   43.4230    0.0450 f         1 ILH     -0.099900
     22 C14        53.8560   45.9250   -1.2200 cp        1 ILH     -0.005000
     23 C15        54.1570   46.9260   -2.1540 ca        1 ILH     -0.091000
     24 C16        55.1220   47.8850   -1.8300 ca        1 ILH      0.072100
     25 O4         55.2910   48.9540   -2.7150 os        1 ILH     -0.366900
     26 C17        56.4930   49.0230   -3.4300 c3        1 ILH      0.817700
     27 F5         56.7640   47.8950   -4.1300 f         1 ILH     -0.220633
     28 F6         56.3290   50.0560   -4.2940 f         1 ILH     -0.220633
     29 F7         57.5480   49.2980   -2.6190 f         1 ILH     -0.220633
     30 C18        55.8040   47.8680   -0.6080 ca        1 ILH     -0.133000
     31 C19        55.5000   46.8610    0.3070 ca        1 ILH     -0.126000
     32 C20        54.5350   45.9010    0.0070 ca        1 ILH     -0.100000
     33 H4         47.4310   39.7710    0.0680 ha        1 ILH      0.144000
     34 H5         45.6960   38.1300   -1.2290 ha        1 ILH      0.126000
     35 H61        46.0230   39.0390   -3.7440 hc        1 ILH      0.091200
     36 H62        47.1650   37.6560   -3.4580 hc        1 ILH      0.091200
     37 HN1        49.7710   41.7220   -3.3950 hn        1 ILH      0.402500
     38 H15        53.6440   46.9600   -3.1270 ha        1 ILH      0.164000
     39 H18        56.5620   48.6330   -0.3870 ha        1 ILH      0.147000
     40 H19        56.0240   46.8270    1.2730 ha        1 ILH      0.136000
     41 H20        54.2920   45.1170    0.7420 ha        1 ILH      0.150000
@<TRIPOS>BOND
     1    1    2 1   
     2    2    3 1   
     3    2    4 1   
     4    4    5 2   
     5    4    8 1   
     6    5    6 1   
     7    5    9 1   
     8    6    7 2   
     9    6   33 1   
    10    7    8 1   
    11    7   34 1   
    12    8   35 1   
    13    8   36 1   
    14    9   10 2   
    15    9   11 1   
    16   11   12 1   
    17   11   37 1   
    18   12   13 ar  
    19   12   20 ar  
    20   13   14 1   
    21   13   15 ar  
    22   15   16 1   
    23   15   17 ar  
    24   17   18 ar  
    25   17   22 1   
    26   18   19 1   
    27   18   20 ar  
    28   20   21 1   
    29   22   23 ar  
    30   22   32 ar  
    31   23   24 ar  
    32   23   38 1   
    33   24   25 1   
    34   24   30 ar  
    35   25   26 1   
    36   26   27 1   
    37   26   28 1   
    38   26   29 1   
    39   30   31 ar  
    40   30   39 1   
    41   31   32 ar  
    42   31   40 1   
    43   32   41 1   
@<TRIPOS>SUBSTRUCTURE
     1 ILH         1 TEMP              0 ****  ****    0 ROOT
