@<TRIPOS>MOLECULE
ILH
   41    43     1     0     0
SMALL
bcc


@<TRIPOS>ATOM
      1 O1          0.0130    1.1670   -0.4660 o         1 ILH     -0.808800
      2 C1          1.0540    0.5440   -0.1280 c         1 ILH      0.905800
      3 O2          1.3670    0.2840    1.0730 o         1 ILH     -0.808800
      4 C2          1.9480    0.0560   -1.2390 ce        1 ILH     -0.057400
      5 C3          3.3020    0.0680   -1.4380 cf        1 ILH     -0.214200
      6 C4          3.6030   -0.4810   -2.7750 cf        1 ILH     -0.106000
      7 C5          2.4420   -0.8330   -3.3840 c2        1 ILH     -0.231200
      8 C6          1.2860   -0.5240   -2.4720 c3        1 ILH     -0.047000
      9 C7          4.4160    0.5280   -0.6020 c         1 ILH      0.709300
     10 O3          5.5240    0.8440   -1.0830 o         1 ILH     -0.614100
     11 N1          4.2030    0.5800    0.7830 ns        1 ILH     -0.470100
     12 C8          5.1700    0.9270    1.7110 ca        1 ILH      0.103600
     13 C9          4.8080    1.6540    2.8890 ca        1 ILH      0.055400
     14 F1          3.5240    2.0300    3.0930 f         1 ILH     -0.099900
     15 C10         5.7690    1.9950    3.8690 ca        1 ILH      0.126400
     16 F2          5.3510    2.6860    4.9570 f         1 ILH     -0.126900
     17 C11         7.1290    1.6570    3.7150 cp        1 ILH     -0.131000
     18 C12         7.4950    0.9310    2.5640 ca        1 ILH      0.126400
     19 F3          8.7820    0.5530    2.3700 f         1 ILH     -0.126900
     20 C13         6.5400    0.5460    1.5910 ca        1 ILH      0.055400
     21 F4          6.9690   -0.2020    0.5500 f         1 ILH     -0.099900
     22 C14         8.1250    2.0460    4.7110 cp        1 ILH     -0.005000
     23 C15         7.8920    1.8150    6.0740 ca        1 ILH     -0.091000
     24 C16         8.8700    2.1910    7.0000 ca        1 ILH      0.072100
     25 O4          8.6750    1.8120    8.3320 os        1 ILH     -0.366900
     26 C17         8.4190    2.8250    9.2650 c3        1 ILH      0.817700
     27 F5          7.3660    3.6090    8.9280 f         1 ILH     -0.220633
     28 F6          8.1380    2.1740   10.4220 f         1 ILH     -0.220633
     29 F7          9.5070    3.6140    9.4650 f         1 ILH     -0.220633
     30 C18        10.0680    2.8000    6.6090 ca        1 ILH     -0.133000
     31 C19        10.2820    3.0300    5.2520 ca        1 ILH     -0.126000
     32 C20         9.3240    2.6550    4.3110 ca        1 ILH     -0.100000
     33 H4          4.6230   -0.5530   -3.1500 ha        1 ILH      0.144000
     34 H5          2.3030   -1.2720   -4.3690 ha        1 ILH      0.126000
     35 H61         0.5850    0.2330   -2.9060 hc        1 ILH      0.091200
     36 H62         0.7020   -1.4400   -2.2090 hc        1 ILH      0.091200
     37 HN1         3.2420    0.5230    1.1180 hn        1 ILH      0.402500
     38 H15         6.9550    1.3460    6.4120 ha        1 ILH      0.164000
     39 H18        10.8130    3.0890    7.3640 ha        1 ILH      0.147000
     40 H19        11.2160    3.5080    4.9210 ha        1 ILH      0.136000
     41 H20         9.5080    2.8290    3.2380 ha        1 ILH      0.150000
@<TRIPOS>BOND
     1    1    2 1   
     2    2    3 1   
     3    2    4 1   
     4    4    5 2   
     5    4    8 1   
     6    5    6 1   
     7    5    9 1   
     8    6    7 2   
     9    6   33 1   
    10    7    8 1   
    11    7   34 1   
    12    8   35 1   
    13    8   36 1   
    14    9   10 2   
    15    9   11 1   
    16   11   12 1   
    17   11   37 1   
    18   12   13 ar  
    19   12   20 ar  
    20   13   14 1   
    21   13   15 ar  
    22   15   16 1   
    23   15   17 ar  
    24   17   18 ar  
    25   17   22 1   
    26   18   19 1   
    27   18   20 ar  
    28   20   21 1   
    29   22   23 ar  
    30   22   32 ar  
    31   23   24 ar  
    32   23   38 1   
    33   24   25 1   
    34   24   30 ar  
    35   25   26 1   
    36   26   27 1   
    37   26   28 1   
    38   26   29 1   
    39   30   31 ar  
    40   30   39 1   
    41   31   32 ar  
    42   31   40 1   
    43   32   41 1   
@<TRIPOS>SUBSTRUCTURE
     1 ILH         1 TEMP              0 ****  ****    0 ROOT
