@<TRIPOS>MOLECULE
ILH
   41    35     1     0     0
SMALL
bcc


@<TRIPOS>ATOM
      1 O1          4.2820    2.7910    3.7080 o         1 ILH     -0.543500
      2 C1          4.4010    1.5400    3.7920 c2        1 ILH      0.356000
      3 O2          4.0880    0.9470    4.8570 o         1 ILH     -0.543500
      4 C2          4.9540    0.7540    2.6240 c2        1 ILH     -0.029000
      5 C3          4.1770   -0.3840    2.0560 c1        1 ILH     -0.199000
      6 C4          5.0490   -1.3810    1.6090 c1        1 ILH     -0.166500
      7 C5          6.4290   -0.9750    1.8480 c1        1 ILH     -0.166500
      8 C6          6.5350    0.4520    2.5310 c2        1 ILH     -0.135000
      9 C7          2.8840   -0.1210    1.3140 c2        1 ILH      0.385000
     10 O3          2.4810    1.0170    1.1810 o         1 ILH     -0.377000
     11 N1          2.1080   -1.2080    0.8340 n         1 ILH     -0.325000
     12 C8          0.8620   -0.9660    0.2000 c2        1 ILH      0.117000
     13 C9         -0.3170   -1.0940    0.9180 c2        1 ILH      0.019500
     14 F1         -0.2760   -1.3740    2.2270 f         1 ILH     -0.067000
     15 C10        -1.5370   -0.9160    0.2850 c1        1 ILH      0.093500
     16 F2         -2.6760   -1.0390    0.9790 f         1 ILH     -0.092000
     17 C11        -1.5790   -0.6100   -1.0660 c1        1 ILH     -0.132000
     18 C12        -0.4000   -0.4820   -1.7840 c1        1 ILH      0.093500
     19 F3         -0.4400   -0.1610   -3.0840 f         1 ILH     -0.092000
     20 C13         0.8200   -0.6600   -1.1510 c2        1 ILH      0.019500
     21 F4          1.9570   -0.5650   -1.8510 f         1 ILH     -0.067000
     22 C14        -2.7980   -0.4060   -1.6930 c1        1 ILH     -0.005000
     23 C15        -3.3860    0.8490   -1.6720 c1        1 ILH     -0.090000
     24 C16        -4.5960    1.0570   -2.3140 c1        1 ILH      0.026000
     25 O4         -5.1750    2.3390   -2.3250 o         1 ILH     -0.249000
     26 C17        -6.2300    2.4940   -1.4090 c3        1 ILH      0.532000
     27 F5         -7.3990    2.3790   -2.0520 f         1 ILH     -0.149667
     28 F6         -6.1450    1.5490   -0.4650 f         1 ILH     -0.149667
     29 F7         -6.1520    3.7040   -0.8390 f         1 ILH     -0.149667
     30 C18        -5.2180    0.0110   -2.9780 c2        1 ILH     -0.132000
     31 C19        -4.6290   -1.2440   -2.9990 c1        1 ILH     -0.126000
     32 C20        -3.4190   -1.4520   -2.3570 c1        1 ILH     -0.100000
     33 H4          4.7970   -2.3200    1.6860 ha        1 ILH      0.135500
     34 H5          7.2020   -1.5210    1.6130 ha        1 ILH      0.135500
     35 H61         7.0320    0.5640    3.3660 ha        1 ILH      0.130500
     36 H62         7.0010    1.0700    1.9340 ha        1 ILH      0.130500
     37 HN1         2.4020   -2.0640    0.9510 hn        1 ILH      0.316000
     38 H15        -2.9440    1.5870   -1.2120 ha        1 ILH      0.164000
     39 H18        -6.0700    0.1580   -3.4310 ha        1 ILH      0.147000
     40 H19        -5.0700   -1.9820   -3.4610 ha        1 ILH      0.136000
     41 H20        -3.0040   -2.3360   -2.3710 ha        1 ILH      0.149000
@<TRIPOS>BOND
     1    1    2 1   
     2    2    3 1   
     3    2    4 1   
     4    4    5 1   
     5    4    8 1   
     6    5    9 1   
     7    6    7 1   
     8    6   33 1   
     9    7   34 1   
    10    8   35 1   
    11    8   36 1   
    12    9   10 1   
    13    9   11 1   
    14   11   12 1   
    15   11   37 1   
    16   12   13 1   
    17   12   20 1   
    18   13   14 1   
    19   13   15 1   
    20   15   17 1   
    21   17   18 1   
    22   18   20 1   
    23   20   21 1   
    24   22   32 1   
    25   23   24 1   
    26   23   38 1   
    27   24   30 1   
    28   25   26 1   
    29   26   27 1   
    30   26   28 1   
    31   26   29 1   
    32   30   31 1   
    33   30   39 1   
    34   31   40 1   
    35   32   41 1   
@<TRIPOS>SUBSTRUCTURE
     1 ILH         1 TEMP              0 ****  ****    0 ROOT
