@<TRIPOS>MOLECULE
ILI
   72    68     1     0     0
SMALL
bcc


@<TRIPOS>ATOM
      1 N3          0.4500    3.9690   -0.5140 n2        1 ILI     -0.111000
      2 C4          1.7770    3.6280   -0.5070 c2        1 ILI     -0.813000
      3 C5          2.6020    3.8840    0.6000 c2        1 ILI     -0.025000
      4 C6          2.0630    4.5370    1.7210 c2        1 ILI     -0.104000
      5 C13         2.2270   -1.9930   -2.8970 c2        1 ILI      0.056000
      6 C15         0.3110   -0.8460   -3.8210 c1        1 ILI      0.233000
      7 C20         3.6260   -3.7620   -3.8330 c2        1 ILI      0.259000
      8 C22         3.2840   -9.3280   -3.1010 c2        1 ILI      0.177000
      9 C26         5.5110   -9.0420   -1.0680 c3        1 ILI     -0.222000
     10 C1          0.7250    4.9040    1.7040 c2        1 ILI     -0.070000
     11 C2         -0.0490    4.5870    0.5530 c2        1 ILI     -0.058000
     12 S7          2.4100    2.9700   -1.9060 s6        1 ILI      2.821000
     13 O8          2.3870    3.8460   -2.9760 o         1 ILI     -0.861500
     14 O9          3.5500    2.2210   -1.6420 o         1 ILI     -0.861500
     15 N10         1.1730    1.7640   -2.2990 n7        1 ILI     -0.609000
     16 C11         3.4840   -4.0530    0.7170 c3        1 ILI     -0.273000
     17 C12         2.1040   -0.8920   -1.8820 c1        1 ILI      0.011000
     18 C14         1.0800   -1.9180   -3.8160 c2        1 ILI     -0.469000
     19 C16         0.0160    1.9970   -2.8270 c2        1 ILI      0.165000
     20 O17         2.5260   -0.9860   -0.6790 oh        1 ILI     -0.102000
     21 C18         1.5640   -7.2920    0.2590 c3        1 ILI     -0.273000
     22 N19         3.2390   -2.7730   -2.9160 n2        1 ILI     -0.247000
     23 O21         3.2570   -4.9380   -3.7500 o         1 ILI     -0.314000
     24 C23         4.2690   -8.2170   -3.0810 c3        1 ILI     -0.214000
     25 C25         5.4910   -6.6150   -1.6360 c3        1 ILI     -0.222000
     26 N27         3.3120  -10.3500   -3.9210 ns        1 ILI     -0.191000
     27 O29         1.3520  -11.2730   -3.1270 o         1 ILI     -0.247000
     28 C30         2.5130  -12.5150   -4.8000 c2        1 ILI     -0.206000
     29 C31         1.7650  -13.6790   -5.0100 c2        1 ILI      0.015000
     30 C32         2.4450  -14.4360   -6.0130 c2        1 ILI     -0.217000
     31 C33         3.5790  -13.7060   -6.3740 c2        1 ILI      0.164000
     32 O34         3.6470  -12.5140   -5.6410 os        1 ILI     -0.137000
     33 C35         1.7270  -17.3650   -7.3330 c1        1 ILI      0.097000
     34 C36         1.3680  -18.5310   -7.7760 c2        1 ILI     -0.506000
     35 C37         5.6810  -13.2260   -7.6290 c1        1 ILI      0.326000
     36 C38         4.6220  -13.9540   -7.3110 c2        1 ILI     -0.471000
     37 H5          3.6640    3.5800    0.5910 ha        1 ILI      0.179000
     38 H6          2.7020    4.7550    2.5930 ha        1 ILI      0.180000
     39 H13         4.0280   -4.6730   -0.0310 hc        1 ILI      0.069000
     40 H15        -0.2970    3.0410   -3.0700 h4        1 ILI      0.201000
     41 H22         4.4000   -3.4060   -4.5570 h5        1 ILI      0.170000
     42 H24         3.7710   -7.7590   -1.0180 hc        1 ILI      0.106000
     43 H261        4.9180   -9.9890   -1.0630 hc        1 ILI      0.091333
     44 H262        5.8020   -8.8050   -0.0150 hc        1 ILI      0.091333
     45 H263        6.4450   -9.2060   -1.6580 hc        1 ILI      0.091333
     46 H1          0.2570    5.4280    2.5530 ha        1 ILI      0.182000
     47 H2         -1.1230    4.8570    0.5070 h4        1 ILI      0.193000
     48 H111        2.4760   -3.7950    0.3250 hc        1 ILI      0.069000
     49 H112        1.4460    0.7620   -2.1060 hn        1 ILI      0.319000
     50 H12         3.3710   -4.6300    1.6610 hc        1 ILI      0.069000
     51 H14         0.8870   -2.7810   -4.4830 ha        1 ILI      0.224000
     52 H16         4.0630   -3.1260    0.9240 hc        1 ILI      0.069000
     53 HO17        3.0000   -1.8150   -0.4220 ho        1 ILI      0.250000
     54 H181       -0.6940    1.1720   -3.0730 h4        1 ILI      0.201000
     55 H182        0.5640   -7.1250    0.7160 hc        1 ILI      0.069000
     56 H183        2.1040   -8.0760    0.8330 hc        1 ILI      0.069000
     57 HN19        2.1470   -6.3440    0.2830 hc        1 ILI      0.069000
     58 H231        2.4450   -9.2790   -2.3570 h4        1 ILI      0.217000
     59 H232        3.7520   -7.3050   -3.5150 hc        1 ILI      0.156000
     60 H251        6.4310   -6.7220   -2.2290 hc        1 ILI      0.091333
     61 H252        4.8840   -5.7810   -2.0700 hc        1 ILI      0.091333
     62 H253        5.7640   -6.3500   -0.5850 hc        1 ILI      0.091333
     63 HN27        5.1760   -8.4230   -3.7110 hc        1 ILI      0.156000
     64 H31         0.8380  -13.9540   -4.5030 ha        1 ILI      0.198000
     65 H35         2.1370  -15.4110   -6.4220 ha        1 ILI      0.241000
     66 H36         1.6830  -19.4880   -7.3210 ha        1 ILI      0.210500
     67 H37         0.7120  -18.6860   -8.6510 ha        1 ILI      0.210500
     68 H38         4.5160  -14.9250   -7.8600 ha        1 ILI      0.240000
     69 C24         4.6980   -7.9050   -1.6470 c3        1 ILI     -0.101000
     70 C28         2.2950  -11.4180   -3.9060 c2        1 ILI      0.386000
     71 H192        1.4340   -7.6240   -0.7950 hc        1 ILI      0.069000
     72 H272        4.0500  -10.4550   -4.6030 hn        1 ILI      0.283000
@<TRIPOS>BOND
     1    1    2 1   
     2    1   11 1   
     3    2    3 1   
     4    2   12 1   
     5    3    4 1   
     6    3   37 1   
     7    4   10 1   
     8    4   38 1   
     9    5   17 1   
    10    5   18 1   
    11    5   22 1   
    12    6   18 1   
    13    7   22 1   
    14    7   23 1   
    15    7   41 1   
    16    8   24 1   
    17    8   26 1   
    18    8   58 1   
    19    9   43 1   
    20    9   44 1   
    21    9   45 1   
    22    9   69 1   
    23   10   11 1   
    24   10   46 1   
    25   11   47 1   
    26   12   13 1   
    27   12   14 1   
    28   12   15 1   
    29   15   19 1   
    30   15   49 1   
    31   16   39 1   
    32   16   48 1   
    33   16   50 1   
    34   16   52 1   
    35   17   20 1   
    36   18   51 1   
    37   19   40 1   
    38   19   54 1   
    39   20   53 1   
    40   21   55 1   
    41   21   56 1   
    42   21   57 1   
    43   21   71 1   
    44   24   59 1   
    45   24   63 1   
    46   24   69 1   
    47   25   60 1   
    48   25   61 1   
    49   25   62 1   
    50   25   69 1   
    51   26   70 1   
    52   26   72 1   
    53   27   70 1   
    54   28   29 1   
    55   28   32 1   
    56   28   70 1   
    57   29   30 1   
    58   29   64 1   
    59   30   31 1   
    60   30   65 1   
    61   31   32 1   
    62   31   36 1   
    63   33   34 1   
    64   34   66 1   
    65   34   67 1   
    66   35   36 1   
    67   36   68 1   
    68   42   69 1   
@<TRIPOS>SUBSTRUCTURE
     1 ILI         1 TEMP              0 ****  ****    0 ROOT
