@<TRIPOS>MOLECULE
ILI
   70    73     1     0     0
SMALL
bcc


@<TRIPOS>ATOM
      1 N3         -4.3830    1.5020    2.9250 nb        1 ILI     -0.596000
      2 C4         -5.1160    0.7770    2.0430 ca        1 ILI      0.142200
      3 C5         -6.3320    1.2440    1.5170 ca        1 ILI     -0.144300
      4 C6         -6.8140    2.4950    1.9180 ca        1 ILI     -0.114000
      5 C13        -1.0030   -1.8610   -1.0560 c3        1 ILI      0.135900
      6 C15        -1.0410   -1.8980    1.5180 c2        1 ILI     -0.171200
      7 C20         0.8450   -1.0590   -2.5000 c         1 ILI      0.639100
      8 C22         1.8610    0.0930   -2.7520 c3        1 ILI      0.039700
      9 C26         1.3100    1.8170   -5.3640 c3        1 ILI     -0.092100
     10 C1         -6.0690    3.2410    2.8260 ca        1 ILI     -0.192300
     11 C2         -4.8540    2.6980    3.3000 ca        1 ILI      0.377200
     12 S7         -4.5320   -0.8020    1.6130 sy        1 ILI      1.431800
     13 O8         -4.5250   -1.5950    2.7700 o         1 ILI     -0.648300
     14 O9         -5.3640   -1.2350    0.5500 o         1 ILI     -0.648300
     15 N10        -3.0420   -0.5130    1.0470 n3        1 ILI     -0.793500
     16 C11        -2.8500   -0.1810   -0.3360 c3        1 ILI      0.187800
     17 C12        -2.4560   -1.3520   -1.2540 c3        1 ILI      0.122100
     18 C14        -0.7080   -2.3800    0.3220 c2        1 ILI     -0.151200
     19 C16        -1.8670   -0.6930    1.8760 c3        1 ILI      0.273700
     20 O17        -3.2860   -2.4890   -1.0930 oh        1 ILI     -0.598800
     21 C18        -0.9540    0.5340    1.9680 c3        1 ILI     -0.103100
     22 N19        -0.0400   -0.8600   -1.4660 n         1 ILI     -0.566900
     23 O21         0.8310   -2.0810   -3.2110 o         1 ILI     -0.604100
     24 C23         2.4660   -0.0590   -4.1550 c3        1 ILI     -0.081400
     25 C25         1.9030   -0.2740   -6.5650 c3        1 ILI     -0.092100
     26 N27         2.8710    0.1190   -1.7210 n         1 ILI     -0.550900
     27 O29         1.6090    1.3690   -0.2680 o         1 ILI     -0.627100
     28 C30         3.7890    0.8000    0.4440 cc        1 ILI     -0.053100
     29 C31         3.8760    1.4140    1.6730 cd        1 ILI     -0.071200
     30 C32         5.1880    1.1000    2.2040 ca        1 ILI     -0.129800
     31 C33         5.8220    0.2850    1.2150 ca        1 ILI      0.081100
     32 O34         4.9740    0.0920    0.1250 os        1 ILI     -0.204200
     33 C35         5.8800    1.4060    3.3740 ca        1 ILI     -0.068000
     34 C36         7.1680    0.9010    3.5290 ca        1 ILI     -0.151000
     35 C37         7.7700    0.1020    2.5430 ca        1 ILI     -0.096000
     36 C38         7.1090   -0.2250    1.3620 ca        1 ILI     -0.127000
     37 H5         -6.8960    0.6240    0.7990 ha        1 ILI      0.173000
     38 H6         -7.7660    2.8770    1.5200 ha        1 ILI      0.147000
     39 H13        -0.9060   -2.7440   -1.7690 h1        1 ILI      0.106700
     40 H15        -0.6890   -2.4350    2.4180 ha        1 ILI      0.129000
     41 H22         1.2920    1.0730   -2.7050 h1        1 ILI      0.089700
     42 H24         0.4670   -0.1340   -4.9660 hc        1 ILI      0.061700
     43 H261        0.9530    2.2650   -4.4060 hc        1 ILI      0.036200
     44 H262        2.2850    2.2920   -5.6330 hc        1 ILI      0.036200
     45 H263        0.5690    2.0600   -6.1630 hc        1 ILI      0.036200
     46 H1         -6.4070    4.2270    3.1720 ha        1 ILI      0.148000
     47 H2         -4.2310    3.2560    4.0230 h4        1 ILI      0.029100
     48 H111       -3.8220    0.2430   -0.7300 h1        1 ILI      0.059200
     49 H112       -2.0700    0.6270   -0.4260 h1        1 ILI      0.059200
     50 H12        -2.5630   -0.9770   -2.3160 h1        1 ILI      0.045700
     51 H14        -0.0970   -3.3040    0.2890 ha        1 ILI      0.128000
     52 H16        -2.2650   -0.8750    2.9300 h1        1 ILI      0.078700
     53 HO17       -4.2050   -2.1790   -1.0950 ho        1 ILI      0.429000
     54 H181       -0.4270    0.7390    1.0060 hc        1 ILI      0.049367
     55 H182       -1.5390    1.4390    2.2570 hc        1 ILI      0.049367
     56 H183       -0.1840    0.3370    2.7530 hc        1 ILI      0.049367
     57 HN19        0.0800   -0.0700   -0.8700 hn        1 ILI      0.332500
     58 H231        2.7840   -1.1270   -4.3000 hc        1 ILI      0.062700
     59 H232        3.3740    0.5920   -4.2520 hc        1 ILI      0.062700
     60 H251        2.9160    0.1030   -6.8460 hc        1 ILI      0.036200
     61 H252        1.9420   -1.3880   -6.5000 hc        1 ILI      0.036200
     62 H253        1.1830    0.0100   -7.3690 hc        1 ILI      0.036200
     63 HN27        3.7090   -0.3920   -1.8750 hn        1 ILI      0.336500
     64 H31         3.1100    2.0190    2.1560 ha        1 ILI      0.182000
     65 H35         5.4190    2.0300    4.1530 ha        1 ILI      0.144000
     66 H36         7.7320    1.1310    4.4460 ha        1 ILI      0.139000
     67 H37         8.7910   -0.2760    2.7090 ha        1 ILI      0.140000
     68 H38         7.5710   -0.8490    0.5870 ha        1 ILI      0.155000
     69 C24         1.4640    0.3160   -5.2390 c3        1 ILI     -0.065700
     70 C28         2.6840    0.7830   -0.5300 c         1 ILI      0.708300
@<TRIPOS>BOND
     1    1    2 ar  
     2    1   11 ar  
     3    2    3 ar  
     4    2   12 1   
     5    3    4 ar  
     6    3   37 1   
     7    4   10 ar  
     8    4   38 1   
     9    5   17 1   
    10    5   18 1   
    11    5   22 1   
    12    5   39 1   
    13    6   18 2   
    14    6   19 1   
    15    6   40 1   
    16    7    8 1   
    17    7   22 1   
    18    7   23 2   
    19    8   24 1   
    20    8   26 1   
    21    8   41 1   
    22    9   43 1   
    23    9   44 1   
    24    9   45 1   
    25    9   69 1   
    26   10   11 ar  
    27   10   46 1   
    28   11   47 1   
    29   12   13 2   
    30   12   14 2   
    31   12   15 1   
    32   15   16 1   
    33   15   19 1   
    34   16   17 1   
    35   16   48 1   
    36   16   49 1   
    37   17   20 1   
    38   17   50 1   
    39   18   51 1   
    40   19   21 1   
    41   19   52 1   
    42   20   53 1   
    43   21   54 1   
    44   21   55 1   
    45   21   56 1   
    46   22   57 1   
    47   24   58 1   
    48   24   59 1   
    49   24   69 1   
    50   25   60 1   
    51   25   61 1   
    52   25   62 1   
    53   25   69 1   
    54   26   63 1   
    55   26   70 1   
    56   27   70 2   
    57   28   29 2   
    58   28   32 1   
    59   28   70 1   
    60   29   30 1   
    61   29   64 1   
    62   30   31 ar  
    63   30   33 ar  
    64   31   32 1   
    65   31   36 ar  
    66   33   34 ar  
    67   33   65 1   
    68   34   35 ar  
    69   34   66 1   
    70   35   36 ar  
    71   35   67 1   
    72   36   68 1   
    73   42   69 1   
@<TRIPOS>SUBSTRUCTURE
     1 ILI         1 TEMP              0 ****  ****    0 ROOT
