@<TRIPOS>MOLECULE
ILL
   24    25     1     0     0
SMALL
bcc


@<TRIPOS>ATOM
      1 C1         -0.0010   -0.0860    0.0080 ca        1 ILL     -0.153000
      2 C2          1.3760   -0.1350    0.0080 ca        1 ILL     -0.054000
      3 C3          2.0860   -0.1090    1.2280 ca        1 ILL      0.002400
      4 C4          1.4050   -0.0450    2.4320 ca        1 ILL     -0.126000
      5 Cl5         3.7780   -0.1460    1.2110 cl        1 ILL     -0.043400
      6 C6         -0.0030   -0.0230    2.4640 ca        1 ILL     -0.150800
      7 C7         -0.7230   -0.0200    1.2350 ca        1 ILL      0.117600
      8 N8         -2.1070    0.0430    1.2280 ns        1 ILL     -0.430100
      9 C9         -2.8610    0.1350    2.4030 c         1 ILL      0.681700
     10 C10        -2.1130    0.1060    3.6770 cc        1 ILL     -0.154200
     11 C11        -0.7620    0.0250    3.6940 cd        1 ILL     -0.078400
     12 O12        -4.0970    0.2160    2.3400 o         1 ILL     -0.563500
     13 C13        -0.0420   -0.0030    5.0060 c3        1 ILL      0.153000
     14 N14         0.5250   -1.3620    5.2790 nz        1 ILL     -0.842600
     15 H1         -0.5470   -0.0910   -0.9500 ha        1 ILL      0.168000
     16 H2          1.9290   -0.1850   -0.9460 ha        1 ILL      0.178000
     17 H4          1.9840    0.0350    3.3640 ha        1 ILL      0.120000
     18 H8         -2.5890    0.0650    0.3520 hn        1 ILL      0.357500
     19 H10        -2.7400    0.1660    4.5810 ha        1 ILL      0.178000
     20 H131       -0.7410    0.2540    5.8560 hx        1 ILL      0.122700
     21 H132        0.8090    0.7410    5.0060 hx        1 ILL      0.122700
     22 H14         1.0720   -1.3500    6.1450 hn        1 ILL      0.464800
     23 H5          1.1300   -1.6450    4.4970 hn        1 ILL      0.464800
     24 H143       -0.2320   -2.0480    5.3670 hn        1 ILL      0.464800
@<TRIPOS>BOND
     1    1    2 ar  
     2    1    7 ar  
     3    1   15 1   
     4    2    3 ar  
     5    2   16 1   
     6    3    4 ar  
     7    3    5 1   
     8    4    6 ar  
     9    4   17 1   
    10    6    7 ar  
    11    6   11 1   
    12    7    8 1   
    13    8    9 1   
    14    8   18 1   
    15    9   10 1   
    16    9   12 2   
    17   10   11 2   
    18   10   19 1   
    19   11   13 1   
    20   13   14 1   
    21   13   20 1   
    22   13   21 1   
    23   14   22 1   
    24   14   23 1   
    25   14   24 1   
@<TRIPOS>SUBSTRUCTURE
     1 ILL         1 TEMP              0 ****  ****    0 ROOT
