@<TRIPOS>MOLECULE
ILL
   24    25     1     0     0
SMALL
bcc


@<TRIPOS>ATOM
      1 C1         -0.0040   -0.0720    0.0090 ca        1 ILL     -0.153000
      2 C2          1.3730   -0.0960    0.0080 ca        1 ILL     -0.054000
      3 C3          2.0830   -0.0620    1.2280 ca        1 ILL      0.002400
      4 C4          1.4010   -0.0160    2.4320 ca        1 ILL     -0.126000
      5 CL5         3.7750   -0.0690    1.2110 cl        1 ILL     -0.043400
      6 C6         -0.0070   -0.0190    2.4650 ca        1 ILL     -0.150800
      7 C7         -0.7270   -0.0240    1.2360 ca        1 ILL      0.117600
      8 N8         -2.1120    0.0140    1.2290 n         1 ILL     -0.430100
      9 C9         -2.8670    0.0880    2.4050 c         1 ILL      0.681700
     10 C10        -2.1190    0.0670    3.6790 cc        1 ILL     -0.154200
     11 C11        -0.7660    0.0090    3.6960 cd        1 ILL     -0.078400
     12 O12        -4.1040    0.1460    2.3430 o         1 ILL     -0.563500
     13 C13        -0.0450   -0.0100    5.0070 c3        1 ILL      0.153000
     14 N14         0.5460   -1.3610    5.2740 n4        1 ILL     -0.842600
     15 H1         -0.5510   -0.0820   -0.9490 ha        1 ILL      0.168000
     16 H2          1.9270   -0.1320   -0.9470 ha        1 ILL      0.178000
     17 H4          1.9790    0.0700    3.3650 ha        1 ILL      0.120000
     18 H8         -2.5950    0.0310    0.3530 hn        1 ILL      0.357500
     19 H10        -2.7470    0.1120    4.5830 ha        1 ILL      0.178000
     20 H131       -0.7480    0.2300    5.8590 hx        1 ILL      0.122700
     21 H132        0.7920    0.7480    5.0100 hx        1 ILL      0.122700
     22 H14         1.0930   -1.3430    6.1400 hn        1 ILL      0.464800
     23 H5         -0.1980   -2.0610    5.3590 hn        1 ILL      0.464800
     24 H143        1.1560   -1.6300    4.4900 hn        1 ILL      0.464800
@<TRIPOS>BOND
     1    1    2 ar  
     2    1    7 ar  
     3    1   15 1   
     4    2    3 ar  
     5    2   16 1   
     6    3    4 ar  
     7    3    5 1   
     8    4    6 ar  
     9    4   17 1   
    10    6    7 ar  
    11    6   11 1   
    12    7    8 1   
    13    8    9 1   
    14    8   18 1   
    15    9   10 1   
    16    9   12 2   
    17   10   11 2   
    18   10   19 1   
    19   11   13 1   
    20   13   14 1   
    21   13   20 1   
    22   13   21 1   
    23   14   22 1   
    24   14   23 1   
    25   14   24 1   
@<TRIPOS>SUBSTRUCTURE
     1 ILL         1 TEMP              0 ****  ****    0 ROOT
