@<TRIPOS>MOLECULE
ILO
   28    27     1     0     0
SMALL
bcc


@<TRIPOS>ATOM
      1 N           1.2060   -1.0330   -0.0700 n4        1 ILO     -0.826600
      2 CA          0.8900    0.3130    0.5030 c3        1 ILO     -0.035500
      3 CB         -0.1730    0.2410    1.6030 c3        1 ILO     -0.085400
      4 CG         -0.1690    1.4910    2.4680 c3        1 ILO     -0.098400
      5 CD          0.8300    1.3910    3.6250 c3        1 ILO      0.103800
      6 NE          1.7830    2.5320    3.7070 n4        1 ILO     -0.818000
      7 CZ          3.0030    2.1800    4.5610 c2        1 ILO      0.548200
      8 CH1         2.9000    2.7750    5.9440 c3        1 ILO     -0.157400
      9 NH2         3.9850    1.4930    4.1520 n2        1 ILO     -0.685100
     10 C           2.2080    0.9140    1.1080 c         1 ILO      0.903600
     11 OA1         2.9390    0.1190    1.7560 o         1 ILO     -0.784800
     12 OA2         2.3880    2.1460    0.9600 o         1 ILO     -0.784800
     13 HN1         0.3690   -1.6100   -0.1520 hn        1 ILO      0.460467
     14 HN2A        1.8890   -1.4860    0.5620 hn        1 ILO      0.460467
     15 HCA         0.5340    0.9790   -0.3350 hx        1 ILO      0.120700
     16 HCB1       -1.1860    0.1390    1.1280 hc        1 ILO      0.067700
     17 HCB2       -0.0110   -0.6620    2.2520 hc        1 ILO      0.067700
     18 HCG1        0.0340    2.3850    1.8160 hc        1 ILO      0.087700
     19 HCG2       -1.1970    1.6240    2.9010 hc        1 ILO      0.087700
     20 HCD1        0.2780    1.3370    4.6060 hx        1 ILO      0.106200
     21 HCD2        1.4480    0.4480    3.5160 hx        1 ILO      0.106200
     22 HNE         2.1030    2.7890    2.7490 hn        1 ILO      0.464800
     23 HC11        2.9070    3.8920    5.8840 hc        1 ILO      0.087700
     24 HC12        3.7740    2.4520    6.5660 hc        1 ILO      0.087700
     25 HC13        1.9630    2.4300    6.4460 hc        1 ILO      0.087700
     26 HN2         4.0460    1.0990    3.2290 hn        1 ILO      0.502400
     27 HN3         1.6400   -0.9160   -0.9890 hn        1 ILO      0.460467
     28 HE3         1.3130    3.3440    4.1120 hn        1 ILO      0.464800
@<TRIPOS>BOND
     1    1    2 1   
     2    1   13 1   
     3    1   14 1   
     4    1   27 1   
     5    2    3 1   
     6    2   10 1   
     7    2   15 1   
     8    3    4 1   
     9    3   16 1   
    10    3   17 1   
    11    4    5 1   
    12    4   18 1   
    13    4   19 1   
    14    5    6 1   
    15    5   20 1   
    16    5   21 1   
    17    6    7 1   
    18    6   22 1   
    19    6   28 1   
    20    7    8 1   
    21    7    9 2   
    22    8   23 1   
    23    8   24 1   
    24    8   25 1   
    25    9   26 1   
    26   10   11 1   
    27   10   12 1   
@<TRIPOS>SUBSTRUCTURE
     1 ILO         1 TEMP              0 ****  ****    0 ROOT
