@<TRIPOS>MOLECULE
ILO
   28    27     1     0     0
SMALL
bcc


@<TRIPOS>ATOM
      1 N           0.9970   -0.8460   -0.1830 nz        1 ILO     -0.826600
      2 CA          0.6710    0.4280    0.5320 c3        1 ILO     -0.035500
      3 CB         -0.2320    0.1970    1.7470 c3        1 ILO     -0.085400
      4 CG         -0.1980    1.3780    2.7030 c3        1 ILO     -0.098400
      5 CD          0.9480    1.2710    3.7150 c3        1 ILO      0.103800
      6 NE          1.8260    2.4720    3.7690 ny        1 ILO     -0.818000
      7 CZ          3.1680    2.1530    4.4320 c2        1 ILO      0.548200
      8 CH1         3.2070    2.6370    5.8610 c3        1 ILO     -0.157400
      9 NH2         4.1310    1.5740    3.8490 n2        1 ILO     -0.685100
     10 C           2.0140    1.0810    1.0150 c         1 ILO      0.903600
     11 OA1         2.8740    0.2990    1.5000 o         1 ILO     -0.784800
     12 OA2         2.0920    2.3310    0.9450 o         1 ILO     -0.784800
     13 HN1         0.1970   -1.4770   -0.2060 hn        1 ILO      0.460467
     14 HN2A        1.7860   -1.2900    0.3200 hn        1 ILO      0.460467
     15 HCA         0.1650    1.1230   -0.1970 hx        1 ILO      0.120700
     16 HCB1        0.0720   -0.7360    2.2950 hc        1 ILO      0.067700
     17 HCB2       -1.2890    0.0530    1.3960 hc        1 ILO      0.067700
     18 HCG1       -1.1680    1.4010    3.2710 hc        1 ILO      0.087700
     19 HCG2       -0.1410    2.3290    2.1050 hc        1 ILO      0.087700
     20 HCD1        1.6070    0.3880    3.4530 hx        1 ILO      0.106200
     21 HCD2        0.5330    1.1050    4.7490 hx        1 ILO      0.106200
     22 HNE         2.0000    2.8210    2.8030 hn        1 ILO      0.464800
     23 HC11        4.1750    2.3380    6.3410 hc        1 ILO      0.087700
     24 HC12        3.1330    3.7530    5.8910 hc        1 ILO      0.087700
     25 HC13        2.3680    2.1870    6.4470 hc        1 ILO      0.087700
     26 HN2         4.0970    1.2540    2.8960 hn        1 ILO      0.502400
     27 HN3         1.3000   -0.6310   -1.1360 hn        1 ILO      0.460467
     28 HE3         1.3610    3.2140    4.2940 hn        1 ILO      0.464800
@<TRIPOS>BOND
     1    1    2 1   
     2    1   13 1   
     3    1   14 1   
     4    1   27 1   
     5    2    3 1   
     6    2   10 1   
     7    2   15 1   
     8    3    4 1   
     9    3   16 1   
    10    3   17 1   
    11    4    5 1   
    12    4   18 1   
    13    4   19 1   
    14    5    6 1   
    15    5   20 1   
    16    5   21 1   
    17    6    7 1   
    18    6   22 1   
    19    6   28 1   
    20    7    8 1   
    21    7    9 2   
    22    8   23 1   
    23    8   24 1   
    24    8   25 1   
    25    9   26 1   
    26   10   11 1   
    27   10   12 1   
@<TRIPOS>SUBSTRUCTURE
     1 ILO         1 TEMP              0 ****  ****    0 ROOT
