@<TRIPOS>MOLECULE
ILO
   26    25     1     0     0
SMALL
bcc


@<TRIPOS>ATOM
      1 N          -1.9170   -0.3530   -2.2110 n3        1 ILO     -0.893800
      2 CA         -0.5850    0.2370   -2.1690 c3        1 ILO      0.016500
      3 CB          0.2000   -0.1340   -0.9100 c3        1 ILO     -0.063400
      4 CG         -0.4340    0.4270    0.3440 c3        1 ILO     -0.084400
      5 CD          0.4200    0.0830    1.5640 c3        1 ILO      0.179800
      6 NE         -0.1400    0.5570    2.8080 nh        1 ILO     -0.863200
      7 CZ          0.3240    0.0240    4.0300 c2        1 ILO      0.606200
      8 CH1        -0.6070    0.2870    5.2050 c3        1 ILO     -0.140400
      9 NH2         1.4530   -0.5760    4.2580 n2        1 ILO     -0.859100
     10 C           0.3080   -0.0930   -3.4130 c         1 ILO      0.888600
     11 OA1        -0.2050   -0.7770   -4.3450 o         1 ILO     -0.842300
     12 OA2         1.4840    0.3630   -3.4230 o         1 ILO     -0.842300
     13 HN1        -1.8280   -1.3460   -2.0850 hn        1 ILO      0.331300
     14 HN2A       -2.2680   -0.2220   -3.1460 hn        1 ILO      0.331300
     15 HCA        -0.7310    1.3570   -2.1740 h1        1 ILO      0.040700
     16 HCB1        1.2380    0.2770   -1.0360 hc        1 ILO      0.049700
     17 HCB2        0.2870   -1.2480   -0.8250 hc        1 ILO      0.049700
     18 HCG1       -1.4670    0.0070    0.4670 hc        1 ILO      0.043700
     19 HCG2       -0.5330    1.5400    0.2480 hc        1 ILO      0.043700
     20 HCD1        1.4380    0.5530    1.4430 h1        1 ILO      0.035700
     21 HCD2        0.5700   -1.0370    1.5890 h1        1 ILO      0.035700
     22 HNE        -1.1200    0.7340    2.7760 hn        1 ILO      0.400800
     23 HC11       -0.1660   -0.0900    6.1590 hc        1 ILO      0.050033
     24 HC12       -0.7880    1.3840    5.3060 hc        1 ILO      0.050033
     25 HC13       -1.5820   -0.2320    5.0340 hc        1 ILO      0.050033
     26 HN2         2.0390   -0.7370    3.4660 hn        1 ILO      0.385400
@<TRIPOS>BOND
     1    1    2 1   
     2    1   13 1   
     3    1   14 1   
     4    2    3 1   
     5    2   10 1   
     6    2   15 1   
     7    3    4 1   
     8    3   16 1   
     9    3   17 1   
    10    4    5 1   
    11    4   18 1   
    12    4   19 1   
    13    5    6 1   
    14    5   20 1   
    15    5   21 1   
    16    6    7 1   
    17    6   22 1   
    18    7    8 1   
    19    7    9 2   
    20    8   23 1   
    21    8   24 1   
    22    8   25 1   
    23    9   26 1   
    24   10   11 1   
    25   10   12 1   
@<TRIPOS>SUBSTRUCTURE
     1 ILO         1 TEMP              0 ****  ****    0 ROOT
