@<TRIPOS>MOLECULE
ILO
   28    27     1     0     0
SMALL
bcc


@<TRIPOS>ATOM
      1 N           1.2490   -1.0400   -0.0690 n4        1 ILO     -0.826600
      2 CA          0.9950    0.3340    0.4690 c3        1 ILO     -0.035500
      3 CB         -0.1520    0.3560    1.4840 c3        1 ILO     -0.085400
      4 CG         -0.1200    1.6130    2.3380 c3        1 ILO     -0.098400
      5 CD          0.7770    1.4520    3.5700 c3        1 ILO      0.103800
      6 NE          1.8050    2.5200    3.7180 n4        1 ILO     -0.818000
      7 CZ          2.9260    2.0870    4.6660 c2        1 ILO      0.548200
      8 CH1         2.7620    2.7050    6.0320 c3        1 ILO     -0.157400
      9 NH2         3.8810    1.3240    4.3380 n2        1 ILO     -0.685100
     10 C           2.3030    0.8400    1.1700 c         1 ILO      0.903600
     11 OA1         2.9200    0.0000    1.8790 o         1 ILO     -0.784800
     12 OA2         2.5880    2.0540    1.0280 o         1 ILO     -0.784800
     13 HN1         0.3800   -1.5530   -0.2110 hn        1 ILO      0.460467
     14 HN2A        1.7600   -0.9680   -0.9520 hn        1 ILO      0.460467
     15 HCA         0.7550    1.0140   -0.3980 hx        1 ILO      0.120700
     16 HCB1       -1.1310    0.3250    0.9320 hc        1 ILO      0.067700
     17 HCB2       -0.1110   -0.5480    2.1490 hc        1 ILO      0.067700
     18 HCG1       -1.1650    1.8290    2.6890 hc        1 ILO      0.087700
     19 HCG2        0.2010    2.4810    1.6970 hc        1 ILO      0.087700
     20 HCD1        0.1480    1.4530    4.5050 hx        1 ILO      0.106200
     21 HCD2        1.3280    0.4650    3.5150 hx        1 ILO      0.106200
     22 HNE         2.2160    2.7400    2.7850 hn        1 ILO      0.464800
     23 HC11        1.7660    2.4370    6.4630 hc        1 ILO      0.087700
     24 HC12        2.8590    3.8170    5.9660 hc        1 ILO      0.087700
     25 HC13        3.5590    2.3250    6.7230 hc        1 ILO      0.087700
     26 HN2         3.9830    0.9150    3.4240 hn        1 ILO      0.502400
     27 HN3         1.8460   -1.5350    0.6170 hn        1 ILO      0.460467
     28 HE3         1.3680    3.3690    4.0800 hn        1 ILO      0.464800
@<TRIPOS>BOND
     1    1    2 1   
     2    1   13 1   
     3    1   14 1   
     4    1   27 1   
     5    2    3 1   
     6    2   10 1   
     7    2   15 1   
     8    3    4 1   
     9    3   16 1   
    10    3   17 1   
    11    4    5 1   
    12    4   18 1   
    13    4   19 1   
    14    5    6 1   
    15    5   20 1   
    16    5   21 1   
    17    6    7 1   
    18    6   22 1   
    19    6   28 1   
    20    7    8 1   
    21    7    9 2   
    22    8   23 1   
    23    8   24 1   
    24    8   25 1   
    25    9   26 1   
    26   10   11 1   
    27   10   12 1   
@<TRIPOS>SUBSTRUCTURE
     1 ILO         1 TEMP              0 ****  ****    0 ROOT
