@<TRIPOS>MOLECULE
ILO
   26    24     1     0     0
SMALL
bcc


@<TRIPOS>ATOM
      1 N           0.9850   -0.3240   -3.6340 n3        1 ILO     -0.893800
      2 CA          0.1810    0.5570   -2.8620 c3        1 ILO      0.016500
      3 CB          0.7100    0.6110   -1.4400 c3        1 ILO     -0.063400
      4 CG         -0.3220   -0.0150   -0.4830 c3        1 ILO     -0.084400
      5 CD          0.2000    0.0850    0.9740 c3        1 ILO      0.179800
      6 NE         -0.7480   -0.5470    1.8710 nh        1 ILO     -0.793000
      7 CZ         -0.4800   -0.5860    3.3110 c2        1 ILO      0.168800
      8 CH1        -0.6560   -1.9010    4.0900 c3        1 ILO     -0.060900
      9 NH2        -0.0900    0.5040    3.9390 n1        1 ILO     -0.327000
     10 C           0.2270    1.9340   -3.4660 c         1 ILO      0.888600
     11 OA1         1.3360    2.4790   -3.7060 o         1 ILO     -0.842300
     12 OA2        -0.8420    2.5080   -3.8050 o         1 ILO     -0.842300
     13 HN1         0.6080   -1.1600   -3.6360 hn        1 ILO      0.331300
     14 HN2A        1.0410   -0.0110   -4.4960 hn        1 ILO      0.331300
     15 HCA        -0.7410    0.2340   -2.8540 h1        1 ILO      0.040700
     16 HCB1        0.8670    1.5430   -1.1860 hc        1 ILO      0.049700
     17 HCB2        1.5500    0.1120   -1.3860 hc        1 ILO      0.049700
     18 HCG1       -1.1670    0.4630   -0.5590 hc        1 ILO      0.043700
     19 HCG2       -0.4570   -0.9540   -0.7180 hc        1 ILO      0.043700
     20 HCD1        1.0630   -0.3670    1.0410 h1        1 ILO      0.035700
     21 HCD2        0.3040    1.0290    1.2200 h1        1 ILO      0.035700
     22 HNE        -1.5020   -0.9400    1.5360 hn        1 ILO      0.400800
     23 HC11       -0.0080   -2.5620    3.7670 hc        1 ILO      0.050033
     24 HC12       -1.5680   -2.2430    3.9550 hc        1 ILO      0.050033
     25 HC13       -0.5060   -1.7360    5.0510 hc        1 ILO      0.050033
     26 HN2         0.0130    1.2850    3.4770 DU        1 ILO      0.141000
@<TRIPOS>BOND
     1    1    2 1   
     2    1   13 1   
     3    1   14 1   
     4    2    3 1   
     5    2   10 1   
     6    2   15 1   
     7    3    4 1   
     8    3   16 1   
     9    3   17 1   
    10    4    5 1   
    11    4   18 1   
    12    4   19 1   
    13    5    6 1   
    14    5   20 1   
    15    5   21 1   
    16    6    7 1   
    17    6   22 1   
    18    7    8 1   
    19    7    9 2   
    20    8   23 1   
    21    8   24 1   
    22    8   25 1   
    23   10   11 1   
    24   10   12 1   
@<TRIPOS>SUBSTRUCTURE
     1 ILO         1 TEMP              0 ****  ****    0 ROOT
