@<TRIPOS>MOLECULE
ILP
   45    45     1     0     0
SMALL
bcc


@<TRIPOS>ATOM
      1 P           0.8350   -1.0540   -1.7860 p5        1 ILP      1.431800
      2 O1P         2.2220   -1.5000   -1.5600 o         1 ILP     -0.841000
      3 O2P         0.2320    0.2210   -1.3400 o         1 ILP     -0.841000
      4 O3P         0.4770   -1.0820   -3.3800 oh        1 ILP     -0.783400
      5 O4P        -0.1670   -2.2630   -1.2690 os        1 ILP     -0.580200
      6 C5A        -1.5300   -1.9730   -1.2100 c3        1 ILP      0.241700
      7 C5         -2.3640   -3.1590   -1.5940 ca        1 ILP     -0.145600
      8 N1         -2.3850   -5.4940   -2.2870 nb        1 ILP     -0.674000
      9 C6         -1.7330   -4.3670   -1.9660 ca        1 ILP      0.362200
     10 C2         -3.7360   -5.4760   -2.2450 ca        1 ILP      0.325600
     11 C2A        -4.5170   -6.7020   -2.5840 c3        1 ILP     -0.117400
     12 C3         -4.4630   -4.3030   -1.8840 ca        1 ILP      0.039800
     13 O3         -5.8210   -4.4550   -1.8650 oh        1 ILP     -0.538100
     14 C4         -3.7670   -3.1200   -1.5580 ca        1 ILP     -0.120300
     15 C4A        -4.5020   -1.8720   -1.1510 c3        1 ILP      0.191100
     16 N          -4.8160   -0.9910   -2.2650 n3        1 ILP     -0.800200
     17 CA         -6.0890   -1.2720   -2.9190 c3        1 ILP      0.042500
     18 CB         -6.3160   -0.4000   -4.1700 c3        1 ILP     -0.033700
     19 CG2        -6.1240    1.0760   -3.8970 c3        1 ILP     -0.093100
     20 CG1        -5.4250   -0.8720   -5.3110 c3        1 ILP     -0.083400
     21 CD1        -5.7920   -0.2430   -6.6300 c3        1 ILP     -0.085100
     22 C          -7.3190   -1.1810   -1.9620 c         1 ILP      0.881600
     23 O          -7.6380   -2.2480   -1.3510 o         1 ILP     -0.845300
     24 OXT        -7.9300   -0.0890   -1.8070 o         1 ILP     -0.845300
     25 H5A1       -1.7960   -1.6950   -0.1460 h1        1 ILP      0.037200
     26 H5A2       -1.7680   -1.0970   -1.8790 h1        1 ILP      0.037200
     27 HG         -0.6280   -4.4100   -2.0020 h4        1 ILP      0.044100
     28 H2A1       -3.8630   -7.5550   -2.8840 hc        1 ILP      0.033033
     29 H2A2       -5.1270   -7.0040   -1.6960 hc        1 ILP      0.033033
     30 H2A3       -5.2200   -6.4670   -3.4210 hc        1 ILP      0.033033
     31 HO3        -6.2620   -3.6030   -1.6490 ho        1 ILP      0.485000
     32 H4A1       -5.4280   -2.1720   -0.5690 h1        1 ILP      0.049700
     33 H4A2       -3.8440   -1.2980   -0.4350 h1        1 ILP      0.049700
     34 HN2        -0.2180   -0.4730   -3.5990 ho        1 ILP      0.426000
     35 HA         -6.0370   -2.3480   -3.2710 h1        1 ILP      0.047700
     36 HB         -7.3930   -0.5620   -4.4620 hc        1 ILP      0.043700
     37 HG21       -6.5440    1.6810   -4.7380 hc        1 ILP      0.032367
     38 HG22       -6.6620    1.3510   -2.9550 hc        1 ILP      0.032367
     39 HG23       -5.0420    1.3330   -3.7950 hc        1 ILP      0.032367
     40 HG11       -5.5070   -1.9880   -5.4030 hc        1 ILP      0.046200
     41 HG12       -4.3550   -0.6400   -5.0640 hc        1 ILP      0.046200
     42 HD11       -6.8670   -0.4260   -6.8710 hc        1 ILP      0.015367
     43 HD12       -5.6250    0.8610   -6.6030 hc        1 ILP      0.015367
     44 HD13       -5.1690   -0.6710   -7.4530 hc        1 ILP      0.015367
     45 H2         -4.8300   -0.0430   -1.9310 hn        1 ILP      0.355800
@<TRIPOS>BOND
     1    1    2 1   
     2    1    3 1   
     3    1    4 1   
     4    1    5 1   
     5    4   34 1   
     6    5    6 1   
     7    6    7 1   
     8    6   25 1   
     9    6   26 1   
    10    7    9 ar  
    11    7   14 ar  
    12    8    9 ar  
    13    8   10 ar  
    14    9   27 1   
    15   10   11 1   
    16   10   12 ar  
    17   11   28 1   
    18   11   29 1   
    19   11   30 1   
    20   12   13 1   
    21   12   14 ar  
    22   13   31 1   
    23   14   15 1   
    24   15   16 1   
    25   15   32 1   
    26   15   33 1   
    27   16   17 1   
    28   16   45 1   
    29   17   18 1   
    30   17   22 1   
    31   17   35 1   
    32   18   19 1   
    33   18   20 1   
    34   18   36 1   
    35   19   37 1   
    36   19   38 1   
    37   19   39 1   
    38   20   21 1   
    39   20   40 1   
    40   20   41 1   
    41   21   42 1   
    42   21   43 1   
    43   21   44 1   
    44   22   23 1   
    45   22   24 1   
@<TRIPOS>SUBSTRUCTURE
     1 ILP         1 TEMP              0 ****  ****    0 ROOT
