@<TRIPOS>MOLECULE
ILP
   45    45     1     0     0
SMALL
bcc


@<TRIPOS>ATOM
      1 P           0.7620   -0.7740   -1.7370 p5        1 ILP      1.431800
      2 O1P         2.1760   -1.1350   -1.5320 o         1 ILP     -0.841000
      3 O2P         0.0750    0.4340   -1.2290 o         1 ILP     -0.841000
      4 O3P         0.4020   -0.7470   -3.3300 oh        1 ILP     -0.783400
      5 O4P        -0.1550   -2.0720   -1.2810 os        1 ILP     -0.580200
      6 C5A        -1.5350   -1.8780   -1.2080 c3        1 ILP      0.241700
      7 C5         -2.2880   -3.0970   -1.6520 ca        1 ILP     -0.145600
      8 N1         -2.1520   -5.3910   -2.4600 nb        1 ILP     -0.674000
      9 C6         -1.5780   -4.2400   -2.0830 ca        1 ILP      0.362200
     10 C2         -3.5010   -5.4660   -2.4190 ca        1 ILP      0.325600
     11 C2A        -4.1990   -6.7230   -2.8190 c3        1 ILP     -0.117400
     12 C3         -4.3050   -4.3640   -2.0000 ca        1 ILP      0.039800
     13 O3         -5.6500   -4.6080   -1.9900 oh        1 ILP     -0.538100
     14 C4         -3.6890   -3.1550   -1.6150 ca        1 ILP     -0.120300
     15 C4A        -4.5060   -1.9820   -1.1460 c3        1 ILP      0.191100
     16 N          -4.8820   -1.0690   -2.2140 n7        1 ILP     -0.800200
     17 CA         -6.1350   -1.4020   -2.8840 c3        1 ILP      0.042500
     18 CB         -6.4220   -0.4850   -4.0900 c3        1 ILP     -0.033700
     19 CG2        -6.3290    0.9850   -3.7430 c3        1 ILP     -0.093100
     20 CG1        -5.5040   -0.8380   -5.2510 c3        1 ILP     -0.083400
     21 CD1        -5.9160   -0.1700   -6.5380 c3        1 ILP     -0.085100
     22 C          -7.3650   -1.4420   -1.9250 c         1 ILP      0.881600
     23 O          -7.6110   -2.5580   -1.3690 o         1 ILP     -0.845300
     24 OXT        -8.0480   -0.4030   -1.7150 o         1 ILP     -0.845300
     25 H5A1       -1.8150   -1.6720   -0.1320 h1        1 ILP      0.037200
     26 H5A2       -1.8330   -0.9880   -1.8330 h1        1 ILP      0.037200
     27 HG         -0.4720   -4.2060   -2.1200 h4        1 ILP      0.044100
     28 H2A1       -4.7840   -7.1100   -1.9480 hc        1 ILP      0.033033
     29 H2A2       -3.4900   -7.5140   -3.1620 hc        1 ILP      0.033033
     30 H2A3       -4.9190   -6.4950   -3.6430 hc        1 ILP      0.033033
     31 HO3        -6.1460   -3.8000   -1.7320 ho        1 ILP      0.485000
     32 H4A1       -5.4080   -2.3720   -0.5810 h1        1 ILP      0.049700
     33 H4A2       -3.8870   -1.4010   -0.4010 h1        1 ILP      0.049700
     34 HN2        -0.3340   -0.1770   -3.5200 ho        1 ILP      0.426000
     35 HA         -6.0100   -2.4530   -3.2890 h1        1 ILP      0.047700
     36 HB         -7.4860   -0.7050   -4.3900 hc        1 ILP      0.043700
     37 HG21       -5.2670    1.3080   -3.6270 hc        1 ILP      0.032367
     38 HG22       -6.8820    1.1750   -2.7880 hc        1 ILP      0.032367
     39 HG23       -6.7920    1.6010   -4.5530 hc        1 ILP      0.032367
     40 HG11       -4.4520   -0.5480   -4.9920 hc        1 ILP      0.046200
     41 HG12       -5.5110   -1.9510   -5.4000 hc        1 ILP      0.046200
     42 HD11       -5.2670   -0.5140   -7.3800 hc        1 ILP      0.015367
     43 HD12       -5.8240    0.9400   -6.4550 hc        1 ILP      0.015367
     44 HD13       -6.9770   -0.4140   -6.7890 hc        1 ILP      0.015367
     45 H2         -4.9580   -0.1420   -1.8330 hn        1 ILP      0.355800
@<TRIPOS>BOND
     1    1    2 1   
     2    1    3 1   
     3    1    4 1   
     4    1    5 1   
     5    4   34 1   
     6    5    6 1   
     7    6    7 1   
     8    6   25 1   
     9    6   26 1   
    10    7    9 ar  
    11    7   14 ar  
    12    8    9 ar  
    13    8   10 ar  
    14    9   27 1   
    15   10   11 1   
    16   10   12 ar  
    17   11   28 1   
    18   11   29 1   
    19   11   30 1   
    20   12   13 1   
    21   12   14 ar  
    22   13   31 1   
    23   14   15 1   
    24   15   16 1   
    25   15   32 1   
    26   15   33 1   
    27   16   17 1   
    28   16   45 1   
    29   17   18 1   
    30   17   22 1   
    31   17   35 1   
    32   18   19 1   
    33   18   20 1   
    34   18   36 1   
    35   19   37 1   
    36   19   38 1   
    37   19   39 1   
    38   20   21 1   
    39   20   40 1   
    40   20   41 1   
    41   21   42 1   
    42   21   43 1   
    43   21   44 1   
    44   22   23 1   
    45   22   24 1   
@<TRIPOS>SUBSTRUCTURE
     1 ILP         1 TEMP              0 ****  ****    0 ROOT
