@<TRIPOS>MOLECULE
ILP
   45    45     1     0     0
SMALL
bcc


@<TRIPOS>ATOM
      1 P           0.9250   -1.2880   -1.2420 p5        1 ILP      1.430800
      2 O1P         2.2350   -1.8750   -1.5780 o         1 ILP     -0.839500
      3 O2P         0.3530   -1.1220    0.1130 o         1 ILP     -0.839500
      4 O3P         0.8030    0.2310   -1.8410 oh        1 ILP     -0.784400
      5 O4P        -0.2090   -2.0120   -2.2000 os        1 ILP     -0.579200
      6 C5A        -1.5520   -1.7940   -1.8860 c3        1 ILP      0.215700
      7 C5         -2.3610   -3.0490   -2.0060 ca        1 ILP     -0.134600
      8 N1         -2.3840   -5.4250   -2.5450 nb        1 ILP     -0.674000
      9 C6         -1.7440   -4.2540   -2.4100 ca        1 ILP      0.361200
     10 C2         -3.7100   -5.4540   -2.2810 ca        1 ILP      0.328600
     11 C2A        -4.4710   -6.7320   -2.4020 c3        1 ILP     -0.118400
     12 C3         -4.4230   -4.2880   -1.8740 ca        1 ILP      0.035800
     13 O3         -5.7500   -4.4850   -1.6070 oh        1 ILP     -0.534100
     14 C4         -3.7380   -3.0630   -1.7320 ca        1 ILP     -0.120300
     15 C4A        -4.4470   -1.8250   -1.2610 c3        1 ILP      0.195100
     16 N          -4.8520   -0.9320   -2.3370 n3        1 ILP     -0.797200
     17 CA         -6.0910   -1.3390   -2.9920 c3        1 ILP      0.036500
     18 CB         -6.3900   -0.5210   -4.2630 c3        1 ILP     -0.032700
     19 CG2        -6.3430    0.9710   -4.0190 c3        1 ILP     -0.096100
     20 CG1        -5.4480   -0.9290   -5.3870 c3        1 ILP     -0.082400
     21 CD1        -5.8610   -0.3630   -6.7220 c3        1 ILP     -0.085100
     22 C          -7.3240   -1.3020   -2.0330 c         1 ILP      0.880600
     23 O          -7.8140   -2.4220   -1.6970 o         1 ILP     -0.843800
     24 OXT        -7.7510   -0.1950   -1.6050 o         1 ILP     -0.843800
     25 H5A1       -1.6340   -1.3890   -0.8340 h1        1 ILP      0.052200
     26 H5A2       -1.9820   -1.0420   -2.6130 h1        1 ILP      0.052200
     27 HG         -0.6610   -4.2560   -2.6390 h4        1 ILP      0.042100
     28 H2A1       -5.4130   -6.5440   -2.9750 hc        1 ILP      0.034033
     29 H2A2       -4.7530   -7.0890   -1.3800 hc        1 ILP      0.034033
     30 H2A3       -3.8830   -7.5310   -2.9140 hc        1 ILP      0.034033
     31 HO3        -6.2310   -3.6290   -1.6110 ho        1 ILP      0.481000
     32 H4A1       -3.7370   -1.2530   -0.5940 h1        1 ILP      0.044700
     33 H4A2       -5.3250   -2.1340   -0.6160 h1        1 ILP      0.044700
     34 HN2        -4.9920   -0.0120   -1.9510 hn        1 ILP      0.355800
     35 HA         -5.9550   -2.4160   -3.3130 h1        1 ILP      0.048700
     36 HB         -7.4420   -0.7950   -4.5610 hc        1 ILP      0.039700
     37 HG21       -6.8240    1.5170   -4.8670 hc        1 ILP      0.033367
     38 HG22       -5.2900    1.3310   -3.9290 hc        1 ILP      0.033367
     39 HG23       -6.8940    1.2110   -3.0740 hc        1 ILP      0.033367
     40 HG11       -5.4240   -2.0490   -5.4570 hc        1 ILP      0.046700
     41 HG12       -4.4070   -0.5930   -5.1380 hc        1 ILP      0.046700
     42 HD11       -5.1880   -0.7410   -7.5300 hc        1 ILP      0.015033
     43 HD12       -5.8050    0.7520   -6.7140 hc        1 ILP      0.015033
     44 HD13       -6.9090   -0.6580   -6.9700 hc        1 ILP      0.015033
     45 H2          0.2260    0.7680   -1.3100 ho        1 ILP      0.420000
@<TRIPOS>BOND
     1    1    2 1   
     2    1    3 1   
     3    1    4 1   
     4    1    5 1   
     5    4   45 1   
     6    5    6 1   
     7    6    7 1   
     8    6   25 1   
     9    6   26 1   
    10    7    9 ar  
    11    7   14 ar  
    12    8    9 ar  
    13    8   10 ar  
    14    9   27 1   
    15   10   11 1   
    16   10   12 ar  
    17   11   28 1   
    18   11   29 1   
    19   11   30 1   
    20   12   13 1   
    21   12   14 ar  
    22   13   31 1   
    23   14   15 1   
    24   15   16 1   
    25   15   32 1   
    26   15   33 1   
    27   16   17 1   
    28   16   34 1   
    29   17   18 1   
    30   17   22 1   
    31   17   35 1   
    32   18   19 1   
    33   18   20 1   
    34   18   36 1   
    35   19   37 1   
    36   19   38 1   
    37   19   39 1   
    38   20   21 1   
    39   20   40 1   
    40   20   41 1   
    41   21   42 1   
    42   21   43 1   
    43   21   44 1   
    44   22   23 1   
    45   22   24 1   
@<TRIPOS>SUBSTRUCTURE
     1 ILP         1 TEMP              0 ****  ****    0 ROOT
