@<TRIPOS>MOLECULE
ILP
   44    44     1     0     0
SMALL
bcc


@<TRIPOS>ATOM
      1 P          -4.8440    0.3800   -0.4080 p5        1 ILP      1.316900
      2 O1P        -5.7170   -0.2620   -1.4480 o         1 ILP     -0.926167
      3 O2P        -4.7690    1.8890   -0.4450 o         1 ILP     -0.926167
      4 O3P        -4.8960   -0.2220    0.9710 o         1 ILP     -0.926167
      5 O4P        -3.2410   -0.0150   -0.9410 os        1 ILP     -0.566200
      6 C5A        -2.2770   -0.1630    0.0230 c3        1 ILP      0.241700
      7 C5         -1.2870    0.9810    0.0470 ca        1 ILP     -0.144600
      8 N1         -1.0520    3.3770   -0.3710 nb        1 ILP     -0.687000
      9 C6         -1.7850    2.2660   -0.3340 ca        1 ILP      0.371200
     10 C2          0.2600    3.2880   -0.0070 ca        1 ILP      0.300600
     11 C2A         1.1160    4.5090   -0.0240 c3        1 ILP     -0.104400
     12 C3          0.8250    2.0660    0.4140 ca        1 ILP     -0.009200
     13 O3          2.1440    2.1220    0.8270 oh        1 ILP     -0.552100
     14 C4          0.0480    0.8810    0.4470 ca        1 ILP     -0.134300
     15 C4A         0.6580   -0.3950    0.9750 c3        1 ILP      0.214100
     16 N           1.6620   -0.9730    0.0950 n3        1 ILP     -0.837200
     17 CA          2.9330   -1.3250    0.7110 c3        1 ILP      0.058500
     18 CB          4.1040   -1.2310   -0.3010 c3        1 ILP     -0.044700
     19 CG2         3.8310   -2.0590   -1.5380 c3        1 ILP     -0.089100
     20 CG1         4.4140    0.2150   -0.6510 c3        1 ILP     -0.085400
     21 CD1         5.6580    0.3540   -1.4910 c3        1 ILP     -0.081100
     22 C           3.0280   -2.7530    1.3410 c         1 ILP      0.890600
     23 O           2.4060   -3.7110    0.8020 o         1 ILP     -0.853800
     24 OXT         3.7750   -2.8810    2.3560 o         1 ILP     -0.853800
     25 H5A1       -2.7500   -0.2350    1.0500 h1        1 ILP      0.024200
     26 H5A2       -1.7000   -1.1140   -0.1850 h1        1 ILP      0.024200
     27 HG         -2.8950    2.3250   -0.5930 h4        1 ILP      0.148100
     28 H2A1        1.2130    4.9150    1.0140 hc        1 ILP      0.016367
     29 H2A2        2.1390    4.2440   -0.3890 hc        1 ILP      0.016367
     30 H2A3        0.6940    5.3100   -0.6790 hc        1 ILP      0.016367
     31 HO3         2.5120    1.2300    0.7600 ho        1 ILP      0.429000
     32 H4A1        1.1080   -0.1490    1.9830 h1        1 ILP      0.040700
     33 H4A2       -0.1750   -1.1310    1.1700 h1        1 ILP      0.040700
     34 HN2         1.2890   -1.7840   -0.3670 hn        1 ILP      0.382800
     35 HA          3.1560   -0.5950    1.5440 h1        1 ILP      0.033700
     36 HB          4.9990   -1.6660    0.2300 hc        1 ILP      0.040700
     37 HG21        3.1160   -1.5360   -2.2190 hc        1 ILP      0.030033
     38 HG22        4.7790   -2.2470   -2.1010 hc        1 ILP      0.030033
     39 HG23        3.3850   -3.0410   -1.2360 hc        1 ILP      0.030033
     40 HG11        3.5390    0.6640   -1.1930 hc        1 ILP      0.047200
     41 HG12        4.5520    0.7980    0.2990 hc        1 ILP      0.047200
     42 HD11        6.5320   -0.1270   -0.9880 hc        1 ILP      0.010367
     43 HD12        5.5180   -0.1340   -2.4860 hc        1 ILP      0.010367
     44 HD13        5.8980    1.4320   -1.6600 hc        1 ILP      0.010367
@<TRIPOS>BOND
     1    1    2 1   
     2    1    3 1   
     3    1    4 1   
     4    1    5 1   
     5    5    6 1   
     6    6    7 1   
     7    6   25 1   
     8    6   26 1   
     9    7    9 ar  
    10    7   14 ar  
    11    8    9 ar  
    12    8   10 ar  
    13    9   27 1   
    14   10   11 1   
    15   10   12 ar  
    16   11   28 1   
    17   11   29 1   
    18   11   30 1   
    19   12   13 1   
    20   12   14 ar  
    21   13   31 1   
    22   14   15 1   
    23   15   16 1   
    24   15   32 1   
    25   15   33 1   
    26   16   17 1   
    27   16   34 1   
    28   17   18 1   
    29   17   22 1   
    30   17   35 1   
    31   18   19 1   
    32   18   20 1   
    33   18   36 1   
    34   19   37 1   
    35   19   38 1   
    36   19   39 1   
    37   20   21 1   
    38   20   40 1   
    39   20   41 1   
    40   21   42 1   
    41   21   43 1   
    42   21   44 1   
    43   22   23 1   
    44   22   24 1   
@<TRIPOS>SUBSTRUCTURE
     1 ILP         1 TEMP              0 ****  ****    0 ROOT
