@<TRIPOS>MOLECULE
ILT
   60    61     1     0     0
SMALL
bcc


@<TRIPOS>ATOM
      1 N1          0.7810   -0.7600    1.0720 nz        1 ILT     -0.865600
      2 N2          1.7150   -0.9680   -1.2390 n2        1 ILT     -0.603100
      3 C1          1.6240   -0.3800   -0.1150 c2        1 ILT      0.619100
      4 N3          2.4550    0.8680    0.0840 ny        1 ILT     -0.722000
      5 C2          3.8660    0.5720    0.5000 c3        1 ILT      0.011800
      6 C3          3.9810    0.3730    2.0320 c         1 ILT      0.647100
      7 O1          2.9080    0.1890    2.6710 o         1 ILT     -0.707100
      8 N4          5.2210    0.4290    2.5610 ns        1 ILT     -0.407400
      9 C4          5.5110    0.3010    3.9350 cc        1 ILT      0.329200
     10 N5          5.3650    0.1280    6.1700 na        1 ILT     -0.121900
     11 C6          6.7170    0.1780    5.7700 cd        1 ILT      0.369000
     12 C7          4.5950    0.2050    5.0250 cd        1 ILT     -0.171600
     13 C8          4.8740    0.0260    7.5140 c3        1 ILT      0.004600
     14 N11         6.8330    0.2800    4.4190 nc        1 ILT     -0.637000
     15 C9          7.8480    0.1340    6.7550 c         1 ILT      0.623600
     16 O2          7.6240    0.0800    7.9790 o         1 ILT     -0.594100
     17 N6          9.1280    0.1580    6.2310 ns        1 ILT     -0.422100
     18 C10        10.2860    0.1330    6.9980 cc        1 ILT     -0.004400
     19 C11        10.4500    0.1130    8.4040 cc        1 ILT     -0.109000
     20 C12        11.8600    0.0950    8.6630 cd        1 ILT     -0.293900
     21 C13        11.6140    0.1250    6.4190 cd        1 ILT     -0.064300
     22 N7         12.5380    0.1020    7.4180 na        1 ILT      0.050900
     23 C14        13.9660    0.0880    7.2500 c3        1 ILT     -0.017400
     24 C15        12.5830    0.0720    9.8890 c         1 ILT      0.601700
     25 O3         13.7920    0.0500   10.0960 o         1 ILT     -0.463100
     26 N8         11.7120    0.0780   11.1670 ny        1 ILT     -0.673800
     27 C16        12.5620    0.0680   12.3900 c3        1 ILT      0.098800
     28 C17        11.7810    0.0770   13.7040 c3        1 ILT     -0.190700
     29 C18        12.7400    0.0670   14.8810 c2        1 ILT      0.517200
     30 N9         14.0120    0.0480   14.9480 n2        1 ILT     -0.666100
     31 N10        12.0330    0.0820   16.2080 nz        1 ILT     -0.822600
     32 H1         -0.0040   -0.1000    1.1840 hn        1 ILT      0.509467
     33 H2          1.3500   -0.7610    1.9510 hn        1 ILT      0.509467
     34 H3          1.2150   -1.7950   -1.5160 hn        1 ILT      0.548400
     35 H4          2.4810    1.3800   -0.8240 hn        1 ILT      0.511300
     36 H5          4.4880    1.4620    0.1690 hx        1 ILT      0.160700
     37 H6          4.2390   -0.3480   -0.0400 hx        1 ILT      0.160700
     38 H7          6.0150    0.5700    1.9620 hn        1 ILT      0.369500
     39 H8          3.5020    0.1920    5.0290 h4        1 ILT      0.215000
     40 H9          5.2320    0.9110    8.1100 h1        1 ILT      0.088700
     41 H10         5.2790   -0.9090    7.9900 h1        1 ILT      0.088700
     42 H11         3.7530   -0.0010    7.5060 h1        1 ILT      0.088700
     43 H12         9.2570    0.1990    5.2420 hn        1 ILT      0.358500
     44 H13         9.6450    0.1110    9.1370 ha        1 ILT      0.182000
     45 H14        11.8970    0.1360    5.3590 h4        1 ILT      0.217000
     46 H15        14.4130    0.9920    7.7490 h1        1 ILT      0.099033
     47 H16        14.3920   -0.8380    7.7260 h1        1 ILT      0.099033
     48 H17        14.2180    0.0990    6.1550 h1        1 ILT      0.099033
     49 H18        11.1050   -0.7480   11.1450 hn        1 ILT      0.461800
     50 H19        13.2140   -0.8560   12.3310 hx        1 ILT      0.130700
     51 H20        13.2370    0.9750   12.3310 hx        1 ILT      0.130700
     52 H21        11.1330    0.9970   13.7620 hc        1 ILT      0.102700
     53 H22        11.1130   -0.8270   13.7640 hc        1 ILT      0.102700
     54 H23        14.5870    0.0360   14.1320 hn        1 ILT      0.500400
     55 H24        12.7110    0.0730   16.9930 hn        1 ILT      0.487467
     56 H25        11.4330   -0.7470   16.2840 hn        1 ILT      0.487467
     57 H131        0.3910   -1.7070    0.9380 hn        1 ILT      0.509467
     58 H32         2.0190    1.4780    0.7990 hn        1 ILT      0.511300
     59 H82        11.1200    0.9140   11.1480 hn        1 ILT      0.461800
     60 H103       11.4610    0.9320   16.2800 hn        1 ILT      0.487467
@<TRIPOS>BOND
     1    1    3 1   
     2    1   32 1   
     3    1   33 1   
     4    1   57 1   
     5    2    3 2   
     6    2   34 1   
     7    3    4 1   
     8    4    5 1   
     9    4   35 1   
    10    4   58 1   
    11    5    6 1   
    12    5   36 1   
    13    5   37 1   
    14    6    7 2   
    15    6    8 1   
    16    8    9 1   
    17    8   38 1   
    18    9   12 2   
    19    9   14 1   
    20   10   11 1   
    21   10   12 1   
    22   10   13 1   
    23   11   14 2   
    24   11   15 1   
    25   12   39 1   
    26   13   40 1   
    27   13   41 1   
    28   13   42 1   
    29   15   16 2   
    30   15   17 1   
    31   17   18 1   
    32   17   43 1   
    33   18   19 1   
    34   18   21 2   
    35   19   20 2   
    36   19   44 1   
    37   20   22 1   
    38   20   24 1   
    39   21   22 1   
    40   21   45 1   
    41   22   23 1   
    42   23   46 1   
    43   23   47 1   
    44   23   48 1   
    45   24   25 2   
    46   24   26 1   
    47   26   27 1   
    48   26   49 1   
    49   26   59 1   
    50   27   28 1   
    51   27   50 1   
    52   27   51 1   
    53   28   29 1   
    54   28   52 1   
    55   28   53 1   
    56   29   30 2   
    57   29   31 1   
    58   30   54 1   
    59   31   55 1   
    60   31   56 1   
    61   31   60 1   
@<TRIPOS>SUBSTRUCTURE
     1 ILT         1 TEMP              0 ****  ****    0 ROOT
