@<TRIPOS>MOLECULE
ILT
   56    57     1     0     0
SMALL
bcc


@<TRIPOS>ATOM
      1 N1        -10.9400    0.4360    0.8290 nh        1 ILT     -0.932800
      2 N2        -10.0020   -1.6150   -0.0890 n2        1 ILT     -0.881100
      3 C1         -9.8630   -0.4010    0.3860 c2        1 ILT      0.752100
      4 N3         -8.5550    0.1920    0.4900 nh        1 ILT     -0.792200
      5 C2         -7.4730   -0.5090   -0.1670 c3        1 ILT      0.124800
      6 C3         -6.2180    0.3740   -0.2600 c         1 ILT      0.658100
      7 O1         -6.3010    1.6030   -0.4550 o         1 ILT     -0.611100
      8 N4         -5.0080   -0.2860   -0.1620 n         1 ILT     -0.518400
      9 C4         -3.7670    0.3470   -0.2790 cc        1 ILT      0.402200
     10 N5         -2.1500    1.8900   -0.5500 na        1 ILT     -0.141900
     11 C6         -1.5820    0.6190   -0.3510 cd        1 ILT      0.341000
     12 C7         -3.5270    1.7350   -0.5070 cd        1 ILT     -0.232600
     13 C8         -1.4450    3.1160   -0.7560 c3        1 ILT      0.019600
     14 N11        -2.5410   -0.3350   -0.1840 nc        1 ILT     -0.679000
     15 C9         -0.1030    0.3980   -0.3320 c         1 ILT      0.612600
     16 O2          0.6790    1.3600   -0.4730 o         1 ILT     -0.618100
     17 N6          0.3180   -0.9030   -0.1530 n         1 ILT     -0.419100
     18 C10         1.6520   -1.2960   -0.1080 cc        1 ILT     -0.028400
     19 C11         2.8280   -0.4870   -0.2660 cc        1 ILT     -0.149000
     20 C12         3.9380   -1.3470   -0.1380 cd        1 ILT     -0.185900
     21 C13         2.0900   -2.6320    0.1120 cd        1 ILT     -0.181300
     22 N7          3.4730   -2.6480    0.0910 na        1 ILT     -0.005100
     23 C14         4.2930   -3.8060    0.2760 c3        1 ILT      0.018600
     24 C15         5.3750   -1.0140   -0.2110 c         1 ILT      0.699700
     25 O3          6.2660   -1.8690   -0.0060 o         1 ILT     -0.631100
     26 N8          5.6970    0.2860   -0.5520 n         1 ILT     -0.557900
     27 C16         7.0540    0.7550   -0.5550 c3        1 ILT      0.096000
     28 C17         7.5230    1.3510    0.7770 c3        1 ILT     -0.196700
     29 C18         8.9640    1.8290    0.6180 c2        1 ILT      0.583200
     30 N9         10.0070    1.0690    0.7710 n2        1 ILT     -0.835100
     31 N10         9.0910    3.1710    0.1930 nh        1 ILT     -0.891800
     32 H1        -11.6910   -0.0730    1.2430 hn        1 ILT      0.393800
     33 H2        -10.6750    1.2240    1.3800 hn        1 ILT      0.393800
     34 H3        -10.9240   -1.9900   -0.0490 hn        1 ILT      0.395400
     35 H4         -8.5530    1.1720    0.2660 hn        1 ILT      0.414800
     36 H5         -7.2740   -1.4480    0.4230 h1        1 ILT      0.079200
     37 H6         -7.7190   -0.8110   -1.2290 h1        1 ILT      0.079200
     38 H7         -4.9990   -1.2660    0.0090 hn        1 ILT      0.337500
     39 H8         -4.2380    2.5550   -0.6310 h4        1 ILT      0.217000
     40 H9         -0.7860    3.3260    0.1300 h1        1 ILT      0.069367
     41 H10        -0.7880    3.0250   -1.6650 h1        1 ILT      0.069367
     42 H11        -2.1790    3.9520   -0.8960 h1        1 ILT      0.069367
     43 H12        -0.3580   -1.6270   -0.0430 hn        1 ILT      0.343500
     44 H13         2.8330    0.5850   -0.4500 ha        1 ILT      0.181000
     45 H14         1.5060   -3.5380    0.2750 h4        1 ILT      0.174000
     46 H15         4.9420   -3.6680    1.1840 h1        1 ILT      0.066033
     47 H16         3.6450   -4.7120    0.4020 h1        1 ILT      0.066033
     48 H17         4.9670   -3.9370   -0.6150 h1        1 ILT      0.066033
     49 H18         4.9760    0.9670   -0.5870 hn        1 ILT      0.316500
     50 H19         7.7310   -0.1070   -0.8210 h1        1 ILT      0.073200
     51 H20         7.1450    1.5430   -1.3570 h1        1 ILT      0.073200
     52 H21         6.8480    2.1900    1.0890 hc        1 ILT      0.059700
     53 H22         7.4760    0.5720    1.5830 hc        1 ILT      0.059700
     54 H23         9.7950    0.1140    0.9620 hn        1 ILT      0.397400
     55 H24         8.4540    3.7850    0.6500 hn        1 ILT      0.392300
     56 H25        10.0250    3.5250    0.1820 hn        1 ILT      0.392300
@<TRIPOS>BOND
     1    1    3 1   
     2    1   32 1   
     3    1   33 1   
     4    2    3 2   
     5    2   34 1   
     6    3    4 1   
     7    4    5 1   
     8    4   35 1   
     9    5    6 1   
    10    5   36 1   
    11    5   37 1   
    12    6    7 2   
    13    6    8 1   
    14    8    9 1   
    15    8   38 1   
    16    9   12 2   
    17    9   14 1   
    18   10   11 1   
    19   10   12 1   
    20   10   13 1   
    21   11   14 2   
    22   11   15 1   
    23   12   39 1   
    24   13   40 1   
    25   13   41 1   
    26   13   42 1   
    27   15   16 2   
    28   15   17 1   
    29   17   18 1   
    30   17   43 1   
    31   18   19 1   
    32   18   21 2   
    33   19   20 2   
    34   19   44 1   
    35   20   22 1   
    36   20   24 1   
    37   21   22 1   
    38   21   45 1   
    39   22   23 1   
    40   23   46 1   
    41   23   47 1   
    42   23   48 1   
    43   24   25 2   
    44   24   26 1   
    45   26   27 1   
    46   26   49 1   
    47   27   28 1   
    48   27   50 1   
    49   27   51 1   
    50   28   29 1   
    51   28   52 1   
    52   28   53 1   
    53   29   30 2   
    54   29   31 1   
    55   30   54 1   
    56   31   55 1   
    57   31   56 1   
@<TRIPOS>SUBSTRUCTURE
     1 ILT         1 TEMP              0 ****  ****    0 ROOT
