@<TRIPOS>MOLECULE
ILT
   60    61     1     0     0
SMALL
bcc


@<TRIPOS>ATOM
      1 N1          0.8150    0.7030    1.0040 n4        1 ILT     -0.865600
      2 N2          1.7580    0.7360   -1.3120 n2        1 ILT     -0.603100
      3 C1          1.6510    0.2260   -0.1520 c2        1 ILT      0.619100
      4 N3          2.4510   -1.0260    0.1310 n4        1 ILT     -0.722000
      5 C2          3.8680   -0.7380    0.5320 c3        1 ILT      0.011800
      6 C3          3.9850   -0.4420    2.0470 c         1 ILT      0.647100
      7 O1          2.9150   -0.1900    2.6690 o         1 ILT     -0.707100
      8 N4          5.2220   -0.4920    2.5840 n         1 ILT     -0.407400
      9 C4          5.5120   -0.2810    3.9470 cc        1 ILT      0.329200
     10 N5          5.3650    0.0420    6.1650 na        1 ILT     -0.121900
     11 C6          6.7170   -0.0660    5.7740 cd        1 ILT      0.369000
     12 C7          4.5960   -0.0930    5.0260 cd        1 ILT     -0.171600
     13 C8          4.8750    0.2420    7.4990 c3        1 ILT      0.004600
     14 N11         6.8330   -0.2580    4.4330 nc        1 ILT     -0.637000
     15 C9          7.8470    0.0170    6.7580 c         1 ILT      0.623600
     16 O2          7.6220    0.1530    7.9760 o         1 ILT     -0.594100
     17 N6          9.1270   -0.0680    6.2410 n         1 ILT     -0.422100
     18 C10        10.2840   -0.0190    7.0080 cc        1 ILT     -0.004400
     19 C11        10.4450    0.0850    8.4110 cc        1 ILT     -0.109000
     20 C12        11.8550    0.0910    8.6730 cd        1 ILT     -0.293900
     21 C13        11.6130   -0.0740    6.4340 cd        1 ILT     -0.064300
     22 N7         12.5350   -0.0080    7.4330 na        1 ILT      0.050900
     23 C14        13.9640   -0.0330    7.2690 c3        1 ILT     -0.017400
     24 C15        12.5760    0.1750    9.8970 c         1 ILT      0.601700
     25 O3         13.7850    0.1850   10.1060 o         1 ILT     -0.463100
     26 N8         11.7040    0.2660   11.1710 n4        1 ILT     -0.673800
     27 C16        12.5510    0.3350   12.3930 c3        1 ILT      0.098800
     28 C17        11.7680    0.4220   13.7020 c3        1 ILT     -0.190700
     29 C18        12.7250    0.4850   14.8790 c2        1 ILT      0.517200
     30 N9         13.9970    0.4830   14.9500 n2        1 ILT     -0.666100
     31 N10        12.0150    0.5670   16.2030 n4        1 ILT     -0.822600
     32 H1          0.4490    1.6490    0.8070 hn        1 ILT      0.509467
     33 H2          1.3820    0.7480    1.8830 hn        1 ILT      0.509467
     34 H3          1.2790    1.5560   -1.6440 hn        1 ILT      0.548400
     35 H4          1.9990   -1.5770    0.8830 hn        1 ILT      0.511300
     36 H5          4.2640    0.1350   -0.0660 hx        1 ILT      0.160700
     37 H6          4.4680   -1.6630    0.2620 hx        1 ILT      0.160700
     38 H7          6.0130   -0.6910    1.9980 hn        1 ILT      0.369500
     39 H8          3.5040   -0.0540    5.0250 h4        1 ILT      0.215000
     40 H9          3.7550    0.2960    7.4850 h1        1 ILT      0.089033
     41 H10         5.3010    1.1970    7.9140 h1        1 ILT      0.089033
     42 H11         5.2100   -0.6110    8.1520 h1        1 ILT      0.089033
     43 H12         9.2570   -0.1740    5.2560 hn        1 ILT      0.358500
     44 H13         9.6390    0.1500    9.1400 ha        1 ILT      0.182000
     45 H14        11.8970   -0.1560    5.3770 h4        1 ILT      0.217000
     46 H15        14.4080    0.9120    7.6880 h1        1 ILT      0.099033
     47 H16        14.3920   -0.9130    7.8240 h1        1 ILT      0.099033
     48 H17        14.2170   -0.1170    6.1770 h1        1 ILT      0.099033
     49 H18        11.0950   -0.5580   11.2020 hn        1 ILT      0.461800
     50 H19        13.2230    1.2390   12.2790 hx        1 ILT      0.130700
     51 H20        13.2070   -0.5880   12.3920 hx        1 ILT      0.130700
     52 H21        11.1180    1.3420   13.7040 hc        1 ILT      0.102700
     53 H22        11.1020   -0.4790   13.8150 hc        1 ILT      0.102700
     54 H23        14.5730    0.4320   14.1360 hn        1 ILT      0.500400
     55 H24        12.6920    0.6110   16.9880 hn        1 ILT      0.487467
     56 H25        11.4260   -0.2650   16.3250 hn        1 ILT      0.487467
     57 H131        0.0130    0.0710    1.1560 hn        1 ILT      0.509467
     58 H32         2.4660   -1.5980   -0.7410 hn        1 ILT      0.511300
     59 H82        11.1140    1.1010   11.0960 hn        1 ILT      0.461800
     60 H103       11.4320    1.4120   16.2260 hn        1 ILT      0.487467
@<TRIPOS>BOND
     1    1    3 1   
     2    1   32 1   
     3    1   33 1   
     4    1   57 1   
     5    2    3 2   
     6    2   34 1   
     7    3    4 1   
     8    4    5 1   
     9    4   35 1   
    10    4   58 1   
    11    5    6 1   
    12    5   36 1   
    13    5   37 1   
    14    6    7 2   
    15    6    8 1   
    16    8    9 1   
    17    8   38 1   
    18    9   12 2   
    19    9   14 1   
    20   10   11 1   
    21   10   12 1   
    22   10   13 1   
    23   11   14 2   
    24   11   15 1   
    25   12   39 1   
    26   13   40 1   
    27   13   41 1   
    28   13   42 1   
    29   15   16 2   
    30   15   17 1   
    31   17   18 1   
    32   17   43 1   
    33   18   19 1   
    34   18   21 2   
    35   19   20 2   
    36   19   44 1   
    37   20   22 1   
    38   20   24 1   
    39   21   22 1   
    40   21   45 1   
    41   22   23 1   
    42   23   46 1   
    43   23   47 1   
    44   23   48 1   
    45   24   25 2   
    46   24   26 1   
    47   26   27 1   
    48   26   49 1   
    49   26   59 1   
    50   27   28 1   
    51   27   50 1   
    52   27   51 1   
    53   28   29 1   
    54   28   52 1   
    55   28   53 1   
    56   29   30 2   
    57   29   31 1   
    58   30   54 1   
    59   31   55 1   
    60   31   56 1   
    61   31   60 1   
@<TRIPOS>SUBSTRUCTURE
     1 ILT         1 TEMP              0 ****  ****    0 ROOT
