@<TRIPOS>MOLECULE
ILT
   62    63     1     0     0
SMALL
bcc


@<TRIPOS>ATOM
      1 N1          0.1480    1.0140   -1.3130 n4        1 ILT     -0.857600
      2 N2          2.5120    1.7870   -1.5750 n2        1 ILT     -0.606100
      3 C1          1.5930    1.1980   -0.9300 c2        1 ILT      0.634100
      4 N3          1.9510    0.5790    0.4270 n4        1 ILT     -0.747000
      5 C2          3.4120    0.7080    0.7920 c3        1 ILT      0.048800
      6 C3          3.7330    0.0520    2.1490 c         1 ILT      0.516100
      7 O1          2.8910   -0.4620    2.8660 o         1 ILT     -0.352100
      8 N4          5.1850    0.0510    2.5530 n4        1 ILT     -0.582500
      9 C4          5.4750   -0.4560    3.8900 cc        1 ILT      0.276200
     10 N5          5.5070   -1.7140    5.7520 na        1 ILT     -0.075900
     11 C6          6.5250   -0.7200    5.8010 cd        1 ILT      0.339000
     12 C7          4.8480   -1.5610    4.5620 cd        1 ILT     -0.068600
     13 C8          5.2100   -2.6980    6.7680 c3        1 ILT     -0.029400
     14 N11         6.5150    0.0590    4.6840 nc        1 ILT     -0.583000
     15 C9          7.4290   -0.6190    6.9750 c         1 ILT      0.470600
     16 O2          7.2890   -1.2610    8.0020 o         1 ILT     -0.345100
     17 N6          8.5890    0.3540    6.8940 n4        1 ILT     -0.472200
     18 C10         9.7350   -0.0350    7.6830 cc        1 ILT     -0.191400
     19 C11        10.0470    0.3320    9.0350 cc        1 ILT     -0.027000
     20 C12        11.2780   -0.2900    9.3470 cd        1 ILT     -0.227900
     21 C13        10.8020   -0.8720    7.2110 cd        1 ILT     -0.007300
     22 N7         11.7130   -1.0230    8.2110 na        1 ILT      0.057900
     23 C14        12.9170   -1.8190    8.1270 c3        1 ILT     -0.033400
     24 C15        12.0370   -0.3970   10.5930 c         1 ILT      0.589700
     25 O3         12.7490   -1.3360   10.9160 o         1 ILT     -0.369100
     26 N8         11.9860    0.7600   11.5850 n4        1 ILT     -0.667800
     27 C16        12.8920    0.5100   12.7600 c3        1 ILT      0.101800
     28 C17        12.9590    1.6650   13.7610 c3        1 ILT     -0.192700
     29 C18        13.9110    1.3250   14.9010 c2        1 ILT      0.515200
     30 N9         14.5680    0.2700   15.1760 n2        1 ILT     -0.650100
     31 N10        14.0910    2.4550   15.8750 n4        1 ILT     -0.819600
     32 H1         -0.0960    0.0130   -1.4380 hn        1 ILT      0.525467
     33 H2         -0.0280    1.4860   -2.2310 hn        1 ILT      0.525467
     34 H3          2.4380    2.2450   -2.4750 hn        1 ILT      0.589400
     35 H4          1.3840    1.0470    1.1600 hn        1 ILT      0.504300
     36 H5          3.6770    1.8140    0.8410 hx        1 ILT      0.188200
     37 H6          4.0340    0.2200   -0.0250 hx        1 ILT      0.188200
     38 H7          5.7100   -0.5480    1.8840 hn        1 ILT      0.504300
     39 H8          4.0010   -2.1970    4.2640 h4        1 ILT      0.251000
     40 H9          4.8990   -2.1750    7.7170 h1        1 ILT      0.125033
     41 H10         6.1290   -3.3180    6.9700 h1        1 ILT      0.125033
     42 H11         4.3770   -3.3690    6.4170 h1        1 ILT      0.125033
     43 H12         8.8910    0.4590    5.9130 hn        1 ILT      0.488800
     44 H13         9.4430    0.9530    9.6960 ha        1 ILT      0.189000
     45 H14        10.9410   -1.3400    6.2250 h4        1 ILT      0.231000
     46 H15        12.8450   -2.6860    8.8450 h1        1 ILT      0.119033
     47 H16        13.0430   -2.2110    7.0800 h1        1 ILT      0.119033
     48 H17        13.8080   -1.1860    8.3940 h1        1 ILT      0.119033
     49 H18        11.0210    0.8810   11.9150 hn        1 ILT      0.471800
     50 H19        12.5150   -0.4290   13.2700 hx        1 ILT      0.137700
     51 H20        13.9240    0.3000   12.3440 hx        1 ILT      0.137700
     52 H21        13.3170    2.6010   13.2480 hc        1 ILT      0.107200
     53 H22        11.9390    1.8670   14.1930 hc        1 ILT      0.107200
     54 H23        14.5360   -0.5520   14.6130 hn        1 ILT      0.497400
     55 H24        14.4990    3.2670   15.3940 hn        1 ILT      0.494800
     56 H25        13.1830    2.7110   16.2820 hn        1 ILT      0.494800
     57 H131       -0.4980    1.4420   -0.6250 hn        1 ILT      0.525467
     58 H32         1.7010   -0.4270    0.4070 hn        1 ILT      0.504300
     59 H42         5.5550    1.0200    2.4820 hn        1 ILT      0.504300
     60 H62         8.2540    1.2720    7.2340 hn        1 ILT      0.488800
     61 H82        12.2770    1.6210   11.1030 hn        1 ILT      0.471800
     62 H103       14.7300    2.1800   16.6490 hn        1 ILT      0.494800
@<TRIPOS>BOND
     1    1    3 1   
     2    1   32 1   
     3    1   33 1   
     4    1   57 1   
     5    2    3 2   
     6    2   34 1   
     7    3    4 1   
     8    4    5 1   
     9    4   35 1   
    10    4   58 1   
    11    5    6 1   
    12    5   36 1   
    13    5   37 1   
    14    6    7 2   
    15    6    8 1   
    16    8    9 1   
    17    8   38 1   
    18    8   59 1   
    19    9   12 2   
    20    9   14 1   
    21   10   11 1   
    22   10   12 1   
    23   10   13 1   
    24   11   14 2   
    25   11   15 1   
    26   12   39 1   
    27   13   40 1   
    28   13   41 1   
    29   13   42 1   
    30   15   16 2   
    31   15   17 1   
    32   17   18 1   
    33   17   43 1   
    34   17   60 1   
    35   18   19 1   
    36   18   21 2   
    37   19   20 2   
    38   19   44 1   
    39   20   22 1   
    40   20   24 1   
    41   21   22 1   
    42   21   45 1   
    43   22   23 1   
    44   23   46 1   
    45   23   47 1   
    46   23   48 1   
    47   24   25 2   
    48   24   26 1   
    49   26   27 1   
    50   26   49 1   
    51   26   61 1   
    52   27   28 1   
    53   27   50 1   
    54   27   51 1   
    55   28   29 1   
    56   28   52 1   
    57   28   53 1   
    58   29   30 2   
    59   29   31 1   
    60   30   54 1   
    61   31   55 1   
    62   31   56 1   
    63   31   62 1   
@<TRIPOS>SUBSTRUCTURE
     1 ILT         1 TEMP              0 ****  ****    0 ROOT
