@<TRIPOS>MOLECULE
ILT
   56    43     1     0     0
SMALL
bcc


@<TRIPOS>ATOM
      1 N1          0.0450    9.4730    0.3830 n3        1 ILT     -0.371000
      2 N2         -2.0560    9.6740    1.3300 n1        1 ILT     -0.349000
      3 C1         -1.1230    8.9150    0.8360 c1        1 ILT      0.160000
      4 N3         -1.3160    7.4490    0.7680 n2        1 ILT     -0.277000
      5 C2         -2.5610    6.8960    0.2580 c3        1 ILT     -0.061000
      6 C3         -2.6360    5.3850    0.6100 c1        1 ILT      0.302000
      7 O1         -2.1670    4.9790    1.6670 o         1 ILT     -0.372000
      8 N4         -3.2370    4.4810   -0.2870 n2        1 ILT     -0.285000
      9 C4         -3.2980    3.0980    0.0350 c2        1 ILT     -0.006000
     10 N5         -4.0730    1.0350    0.2620 n2        1 ILT     -0.097000
     11 C6         -2.7230    1.0090    0.4310 c1        1 ILT     -0.100000
     12 C7         -4.4390    2.3120    0.0180 c1        1 ILT     -0.143000
     13 C8         -4.9510   -0.0740    0.3900 c2        1 ILT     -0.079500
     14 N11        -2.2500    2.2990    0.2870 n2        1 ILT     -0.153000
     15 C9         -1.8750   -0.2350    0.7130 c1        1 ILT      0.384500
     16 O2         -2.3960   -1.3070    0.8040 o         1 ILT     -0.385500
     17 N6         -0.4530   -0.1090    0.8690 n2        1 ILT     -0.273000
     18 C10         0.3580   -1.2960    1.1380 c2        1 ILT     -0.021000
     19 C11         1.0030   -2.0710    0.1900 c1        1 ILT     -0.149000
     20 C12         1.7760   -3.0290    0.8650 c1        1 ILT     -0.141000
     21 C13         0.7260   -1.7660    2.3980 c1        1 ILT     -0.157000
     22 N7          1.6020   -2.8370    2.2210 n2        1 ILT     -0.073000
     23 C14         2.1450   -3.6290    3.2380 c2        1 ILT     -0.079500
     24 C15         2.7380   -4.0580    0.2020 c1        1 ILT      0.384500
     25 O3          3.3610   -4.8460    0.8960 o         1 ILT     -0.385500
     26 N8          2.9470   -4.0340   -1.2100 n2        1 ILT     -0.367000
     27 C16         2.7930   -5.2560   -1.9840 c3        1 ILT     -0.020000
     28 C17         4.1610   -5.9130   -2.1820 c3        1 ILT     -0.200000
     29 C18         4.0280   -7.0860   -3.1470 c1        1 ILT      0.068000
     30 N9          3.3740   -8.1750   -2.7780 n1        1 ILT     -0.303000
     31 N10         4.5990   -7.0120   -4.4110 n2        1 ILT     -0.330000
     32 H1          0.4450    9.1440   -0.3760 hn        1 ILT      0.189000
     33 H2          0.3850   10.2480    0.7960 hn        1 ILT      0.189000
     34 H3         -1.9280   10.6200    1.3750 DU        1 ILT      0.175200
     35 H4         -0.6550    6.8820    1.0820 hn        1 ILT      0.210000
     36 H5         -2.5950    7.0060   -0.7210 h1        1 ILT      0.118500
     37 H6         -3.3120    7.3610    0.6640 h1        1 ILT      0.118500
     38 H7         -3.5190    4.7760   -1.1250 hn        1 ILT      0.251000
     39 H8         -5.3730    2.6350   -0.1460 DU        1 ILT      0.175200
     40 H9         -5.8830    0.2480    0.4410 ha        1 ILT      0.107000
     41 H10        -4.7350   -0.5660    1.2030 ha        1 ILT      0.107000
     42 H11        -4.8460   -0.6820   -0.4100 ha        1 ILT      0.107000
     43 H12        -0.0680    0.7480    0.9480 hn        1 ILT      0.257000
     44 H13         0.9310   -1.9660   -0.8060 DU        1 ILT      0.175200
     45 H14         0.4230   -1.4060    3.2550 DU        1 ILT      0.175200
     46 H15         1.8320   -4.5350    3.1430 ha        1 ILT      0.107000
     47 H16         1.8660   -3.2740    4.1160 ha        1 ILT      0.107000
     48 H17         3.1190   -3.6140    3.1770 ha        1 ILT      0.107000
     49 H18         3.2710   -3.2810   -1.6090 hn        1 ILT      0.230000
     50 H19         2.4130   -5.0480   -2.8370 h1        1 ILT      0.112500
     51 H20         2.2060   -5.8680   -1.5070 h1        1 ILT      0.112500
     52 H21         4.4940   -6.2380   -1.3190 hc        1 ILT      0.099000
     53 H22         4.8000   -5.2430   -2.5580 hc        1 ILT      0.099000
     54 H23         3.0040   -8.2220   -1.9540 DU        1 ILT      0.175200
     55 H24         5.1670   -6.3110   -4.6210 hn        1 ILT      0.187500
     56 H25         4.4590   -7.6890   -5.0200 hn        1 ILT      0.187500
@<TRIPOS>BOND
     1    1    3 1   
     2    1   32 1   
     3    1   33 1   
     4    2    3 1   
     5    4    5 1   
     6    4   35 1   
     7    5    6 1   
     8    5   36 1   
     9    5   37 1   
    10    6    7 1   
    11    8    9 1   
    12    8   38 1   
    13    9   12 1   
    14    9   14 1   
    15   10   11 1   
    16   10   12 1   
    17   11   14 1   
    18   13   40 1   
    19   13   41 1   
    20   13   42 1   
    21   15   16 1   
    22   17   18 1   
    23   17   43 1   
    24   18   19 1   
    25   18   21 1   
    26   19   20 1   
    27   20   22 1   
    28   21   22 1   
    29   23   46 1   
    30   23   47 1   
    31   23   48 1   
    32   24   25 1   
    33   26   27 1   
    34   26   49 1   
    35   27   28 1   
    36   27   50 1   
    37   27   51 1   
    38   28   29 1   
    39   28   52 1   
    40   28   53 1   
    41   29   30 1   
    42   31   55 1   
    43   31   56 1   
@<TRIPOS>SUBSTRUCTURE
     1 ILT         1 TEMP              0 ****  ****    0 ROOT
