@<TRIPOS>MOLECULE
ILX
   23    22     1     0     0
SMALL
bcc


@<TRIPOS>ATOM
      1 N          -0.3520    2.5560    4.8700 n3        1 ILX     -0.890800
      2 CA          0.8310    2.0940    4.1520 c3        1 ILX      0.015500
      3 C           2.0540    3.0670    4.2450 c         1 ILX      0.890600
      4 O           1.9040    4.1450    4.8870 o         1 ILX     -0.842300
      5 CB          0.5170    1.7660    2.6780 c3        1 ILX     -0.056700
      6 CG1         1.5020    0.7030    2.1840 c3        1 ILX      0.086100
      7 OG1         1.3210   -0.5460    2.8450 oh        1 ILX     -0.615800
      8 CG2         0.5810    3.0110    1.8210 c3        1 ILX     -0.092100
      9 CD1         1.3590    0.4620    0.6770 c3        1 ILX      0.106400
     10 OD1         2.0420   -0.6980    0.2400 oh        1 ILX     -0.626800
     11 OXT         3.1350    2.7150    3.6930 o         1 ILX     -0.842300
     12 H          -0.7070    3.3710    4.4010 hn        1 ILX      0.332300
     13 H2         -0.0430    2.8690    5.7760 hn        1 ILX      0.332300
     14 HA          1.1520    1.1320    4.6520 h1        1 ILX      0.054700
     15 HB         -0.5210    1.3310    2.6020 hc        1 ILX      0.020700
     16 HG11        2.5590    1.0180    2.4490 h1        1 ILX      0.150700
     17 HG1         0.3750   -0.6640    2.9880 ho        1 ILX      0.390000
     18 HG21        1.6360    3.3800    1.7640 hc        1 ILX      0.037033
     19 HG22        0.2050    2.8060    0.7900 hc        1 ILX      0.037033
     20 HG23       -0.0470    3.8180    2.2710 hc        1 ILX      0.037033
     21 HD12        1.8040    1.3160    0.1020 h1        1 ILX      0.032200
     22 HD13        0.2750    0.3490    0.4010 h1        1 ILX      0.032200
     23 HD1         2.1400   -1.2860    1.0010 ho        1 ILX      0.414000
@<TRIPOS>BOND
     1    1    2 1   
     2    1   12 1   
     3    1   13 1   
     4    2    3 1   
     5    2    5 1   
     6    2   14 1   
     7    3    4 1   
     8    3   11 1   
     9    5    6 1   
    10    5    8 1   
    11    5   15 1   
    12    6    7 1   
    13    6    9 1   
    14    6   16 1   
    15    7   17 1   
    16    8   18 1   
    17    8   19 1   
    18    8   20 1   
    19    9   10 1   
    20    9   21 1   
    21    9   22 1   
    22   10   23 1   
@<TRIPOS>SUBSTRUCTURE
     1 ILX         1 TEMP              0 ****  ****    0 ROOT
