@<TRIPOS>MOLECULE
ILY
   34    33     1     0     0
SMALL
bcc


@<TRIPOS>ATOM
      1 CH1         1.7140   -1.3330    0.5850 c3        1 ILY     -0.127100
      2 C1          2.2800   -0.4280   -0.5020 c3        1 ILY      0.135500
      3 CH2         3.7360   -0.0970   -0.1930 c3        1 ILY     -0.127100
      4 NZ          2.1580   -1.0510   -1.8670 n4        1 ILY     -0.789000
      5 CE          0.7990   -0.8930   -2.4540 c3        1 ILY      0.117800
      6 CD          0.5280   -1.8330   -3.6250 c3        1 ILY     -0.112400
      7 CG          1.1140   -1.3540   -4.9420 c3        1 ILY     -0.089400
      8 CB          1.5820   -2.5070   -5.8150 c3        1 ILY     -0.081400
      9 CA          3.0600   -2.8490   -5.5930 c3        1 ILY     -0.021500
     10 N           3.3490   -4.2990   -5.8430 n4        1 ILY     -0.828600
     11 C           3.4780   -2.5150   -4.1250 c         1 ILY      0.904600
     12 O           3.1840   -3.3660   -3.2360 o         1 ILY     -0.795800
     13 OXT         4.0190   -1.4020   -3.9220 o         1 ILY     -0.795800
     14 H1          0.6360   -1.5650    0.4100 hc        1 ILY      0.072867
     15 H2          2.2850   -2.2910    0.6520 hc        1 ILY      0.072867
     16 H3          1.8020   -0.8030    1.5660 hc        1 ILY      0.072867
     17 H4          1.6840    0.5340   -0.5330 hx        1 ILY      0.090700
     18 H5          3.7780    0.4070    0.8040 hc        1 ILY      0.072867
     19 H6          4.3620   -1.0220   -0.1500 hc        1 ILY      0.072867
     20 H7          4.1690    0.5960   -0.9560 hc        1 ILY      0.072867
     21 H8          0.6840    0.1790   -2.7810 hx        1 ILY      0.091700
     22 H9         -0.5890   -1.9120   -3.7250 hc        1 ILY      0.083200
     23 H10         0.9090   -2.8640   -3.3810 hc        1 ILY      0.083200
     24 H11         0.3250   -0.7850   -5.5050 hc        1 ILY      0.074200
     25 H12         1.9630   -0.6390   -4.7700 hc        1 ILY      0.074200
     26 H13         1.4440   -2.2240   -6.8940 hc        1 ILY      0.061200
     27 H14         0.9290   -3.3990   -5.6190 hc        1 ILY      0.061200
     28 H15         3.7000   -2.2400   -6.2960 hx        1 ILY      0.118700
     29 H16         4.3460   -4.4200   -6.0290 hn        1 ILY      0.457800
     30 H17         3.1100   -4.8140   -4.9780 hn        1 ILY      0.457800
     31 H18         2.8620   -0.6210   -2.4990 hn        1 ILY      0.484300
     32 H19         0.0460   -1.1020   -1.6400 hx        1 ILY      0.091700
     33 HZ3         2.4060   -2.0580   -1.8160 hn        1 ILY      0.484300
     34 HN3         2.8030   -4.6580   -6.6250 hn        1 ILY      0.457800
@<TRIPOS>BOND
     1    1    2 1   
     2    1   14 1   
     3    1   15 1   
     4    1   16 1   
     5    2    3 1   
     6    2    4 1   
     7    2   17 1   
     8    3   18 1   
     9    3   19 1   
    10    3   20 1   
    11    4    5 1   
    12    4   31 1   
    13    4   33 1   
    14    5    6 1   
    15    5   21 1   
    16    5   32 1   
    17    6    7 1   
    18    6   22 1   
    19    6   23 1   
    20    7    8 1   
    21    7   24 1   
    22    7   25 1   
    23    8    9 1   
    24    8   26 1   
    25    8   27 1   
    26    9   10 1   
    27    9   11 1   
    28    9   28 1   
    29   10   29 1   
    30   10   30 1   
    31   10   34 1   
    32   11   12 1   
    33   11   13 1   
@<TRIPOS>SUBSTRUCTURE
     1 ILY         1 TEMP              0 ****  ****    0 ROOT
