@<TRIPOS>MOLECULE
ILY
   34    33     1     0     0
SMALL
bcc


@<TRIPOS>ATOM
      1 CH1         2.1310   -1.0890    0.5800 c3        1 ILY     -0.127100
      2 C1          2.4490   -0.2240   -0.6330 c3        1 ILY      0.135500
      3 CH2         3.8870    0.2800   -0.5480 c3        1 ILY     -0.127100
      4 NZ          2.2250   -0.9660   -1.9230 n4        1 ILY     -0.789000
      5 CE          0.7930   -0.9980   -2.3300 c3        1 ILY      0.117800
      6 CD          0.4820   -2.0540   -3.3860 c3        1 ILY     -0.112400
      7 CG          0.8380   -1.6290   -4.8000 c3        1 ILY     -0.089400
      8 CB          1.3180   -2.7960   -5.6480 c3        1 ILY     -0.081400
      9 CA          2.8410   -2.9650   -5.6060 c3        1 ILY     -0.021500
     10 N           3.2570   -4.3930   -5.7930 n4        1 ILY     -0.828600
     11 C           3.4020   -2.4690   -4.2340 c         1 ILY      0.904600
     12 O           3.3220   -3.2690   -3.2580 o         1 ILY     -0.795800
     13 OXT         3.8360   -1.2940   -4.1830 o         1 ILY     -0.795800
     14 H1          2.8110   -1.9740    0.6340 hc        1 ILY      0.072867
     15 H2          2.2840   -0.4730    1.5010 hc        1 ILY      0.072867
     16 H3          1.0730   -1.4430    0.5690 hc        1 ILY      0.072867
     17 H4          1.7500    0.6660   -0.6500 hx        1 ILY      0.090700
     18 H5          3.9990    0.8660    0.3970 hc        1 ILY      0.072867
     19 H6          4.6120   -0.5700   -0.5260 hc        1 ILY      0.072867
     20 H7          4.1390    0.9470   -1.4080 hc        1 ILY      0.072867
     21 H8          0.1790   -1.2150   -1.4090 hx        1 ILY      0.091700
     22 H9          1.0060   -3.0170   -3.1250 hc        1 ILY      0.083200
     23 H10        -0.6220   -2.2560   -3.3280 hc        1 ILY      0.083200
     24 H11         1.6160   -0.8180   -4.7940 hc        1 ILY      0.074200
     25 H12        -0.0760   -1.1930   -5.2880 hc        1 ILY      0.074200
     26 H13         0.8000   -3.7310   -5.3030 hc        1 ILY      0.061200
     27 H14         1.0130   -2.6190   -6.7140 hc        1 ILY      0.061200
     28 H15         3.3130   -2.3540   -6.4290 hx        1 ILY      0.118700
     29 H16         2.6600   -4.8700   -6.4670 hn        1 ILY      0.457800
     30 H17         3.1900   -4.8570   -4.8700 hn        1 ILY      0.457800
     31 H18         2.5900   -1.9350   -1.8380 hn        1 ILY      0.484300
     32 H19         0.5180    0.0260   -2.7110 hx        1 ILY      0.091700
     33 HZ3         2.7900   -0.5200   -2.6730 hn        1 ILY      0.484300
     34 HN3         4.2300   -4.4260   -6.1040 hn        1 ILY      0.457800
@<TRIPOS>BOND
     1    1    2 1   
     2    1   14 1   
     3    1   15 1   
     4    1   16 1   
     5    2    3 1   
     6    2    4 1   
     7    2   17 1   
     8    3   18 1   
     9    3   19 1   
    10    3   20 1   
    11    4    5 1   
    12    4   31 1   
    13    4   33 1   
    14    5    6 1   
    15    5   21 1   
    16    5   32 1   
    17    6    7 1   
    18    6   22 1   
    19    6   23 1   
    20    7    8 1   
    21    7   24 1   
    22    7   25 1   
    23    8    9 1   
    24    8   26 1   
    25    8   27 1   
    26    9   10 1   
    27    9   11 1   
    28    9   28 1   
    29   10   29 1   
    30   10   30 1   
    31   10   34 1   
    32   11   12 1   
    33   11   13 1   
@<TRIPOS>SUBSTRUCTURE
     1 ILY         1 TEMP              0 ****  ****    0 ROOT
