@<TRIPOS>MOLECULE
ILY
   34    33     1     0     0
SMALL
bcc


@<TRIPOS>ATOM
      1 CH1         1.9670   -1.1600    0.5860 c3        1 ILY     -0.127100
      2 C1          2.2880   -0.2590   -0.6000 c3        1 ILY      0.135500
      3 CH2         3.6950    0.3110   -0.4510 c3        1 ILY     -0.127100
      4 NZ          2.1470   -0.9860   -1.9100 ny        1 ILY     -0.789000
      5 CE          0.7350   -1.0780   -2.3710 c3        1 ILY      0.117800
      6 CD          0.5140   -2.1280   -3.4550 c3        1 ILY     -0.112400
      7 CG          0.9000   -1.6590   -4.8480 c3        1 ILY     -0.089400
      8 CB          1.4670   -2.7860   -5.6960 c3        1 ILY     -0.081400
      9 CA          2.9940   -2.8840   -5.5990 c3        1 ILY     -0.021500
     10 N           3.4850   -4.2870   -5.7950 nz        1 ILY     -0.828600
     11 C           3.4800   -2.3880   -4.1990 c         1 ILY      0.904600
     12 O           3.4020   -3.2090   -3.2410 o         1 ILY     -0.795800
     13 OXT         3.8540   -1.1940   -4.1120 o         1 ILY     -0.795800
     14 H1          2.0560   -0.5550    1.5220 hc        1 ILY      0.072867
     15 H2          2.6860   -2.0140    0.6500 hc        1 ILY      0.072867
     16 H3          0.9280   -1.5640    0.5290 hc        1 ILY      0.072867
     17 H4          1.5480    0.5980   -0.6270 hx        1 ILY      0.090700
     18 H5          4.4590   -0.5040   -0.4170 hc        1 ILY      0.072867
     19 H6          3.9460    1.0050   -1.2900 hc        1 ILY      0.072867
     20 H7          3.7440    0.8840    0.5070 hc        1 ILY      0.072867
     21 H8          0.0980   -1.3410   -1.4770 hx        1 ILY      0.091700
     22 H9         -0.5810   -2.3820   -3.4430 hc        1 ILY      0.083200
     23 H10         1.0730   -3.0690   -3.1920 hc        1 ILY      0.083200
     24 H11         1.6380   -0.8130   -4.7980 hc        1 ILY      0.074200
     25 H12        -0.0140   -1.2580   -5.3630 hc        1 ILY      0.074200
     26 H13         1.1930   -2.6040   -6.7700 hc        1 ILY      0.061200
     27 H14         0.9820   -3.7520   -5.3880 hc        1 ILY      0.061200
     28 H15         3.4660   -2.2360   -6.3940 hx        1 ILY      0.118700
     29 H16         2.9360   -4.7780   -6.5000 hn        1 ILY      0.457800
     30 H17         4.4690   -4.2680   -6.0700 hn        1 ILY      0.457800
     31 H18         2.7180   -0.5000   -2.6300 hn        1 ILY      0.484300
     32 H19         0.4240   -0.0610   -2.7440 hx        1 ILY      0.091700
     33 HZ3         2.5540   -1.9380   -1.8270 hn        1 ILY      0.484300
     34 HN3         3.4060   -4.7700   -4.8840 hn        1 ILY      0.457800
@<TRIPOS>BOND
     1    1    2 1   
     2    1   14 1   
     3    1   15 1   
     4    1   16 1   
     5    2    3 1   
     6    2    4 1   
     7    2   17 1   
     8    3   18 1   
     9    3   19 1   
    10    3   20 1   
    11    4    5 1   
    12    4   31 1   
    13    4   33 1   
    14    5    6 1   
    15    5   21 1   
    16    5   32 1   
    17    6    7 1   
    18    6   22 1   
    19    6   23 1   
    20    7    8 1   
    21    7   24 1   
    22    7   25 1   
    23    8    9 1   
    24    8   26 1   
    25    8   27 1   
    26    9   10 1   
    27    9   11 1   
    28    9   28 1   
    29   10   29 1   
    30   10   30 1   
    31   10   34 1   
    32   11   12 1   
    33   11   13 1   
@<TRIPOS>SUBSTRUCTURE
     1 ILY         1 TEMP              0 ****  ****    0 ROOT
