@<TRIPOS>MOLECULE
ILY
   32    31     1     0     0
SMALL
bcc


@<TRIPOS>ATOM
      1 CH1        -4.8000    1.3240   -0.4370 c3        1 ILY     -0.108600
      2 C1         -4.5900   -0.0290    0.2500 c3        1 ILY      0.173500
      3 CH2        -5.8060   -0.9090   -0.0510 c3        1 ILY     -0.108600
      4 NZ         -3.3520   -0.7170   -0.0880 n3        1 ILY     -0.822200
      5 CE         -2.1640   -0.1290    0.5030 c3        1 ILY      0.158800
      6 CD         -0.8690   -0.5100   -0.2110 c3        1 ILY     -0.086400
      7 CG          0.3170    0.1410    0.4710 c3        1 ILY     -0.075400
      8 CB          1.6050   -0.1730   -0.2570 c3        1 ILY     -0.063400
      9 CA          2.8320    0.4120    0.4440 c3        1 ILY      0.018500
     10 N           2.8410    1.8700    0.4700 n3        1 ILY     -0.892800
     11 C           4.1090   -0.2290   -0.1950 c         1 ILY      0.887600
     12 O           5.0190    0.5450   -0.6110 o         1 ILY     -0.844800
     13 OXT         4.1680   -1.4890   -0.2410 o         1 ILY     -0.844800
     14 H1         -5.7530    1.7820   -0.0800 hc        1 ILY      0.033200
     15 H2         -3.9630    2.0250   -0.2040 hc        1 ILY      0.033200
     16 H3         -4.8600    1.2000   -1.5440 hc        1 ILY      0.033200
     17 H4         -4.5670    0.1540    1.3670 h1        1 ILY      0.051700
     18 H5         -5.7220   -1.8910    0.4720 hc        1 ILY      0.033200
     19 H6         -6.7290   -0.3910    0.3040 hc        1 ILY      0.033200
     20 H7         -5.9010   -1.0950   -1.1470 hc        1 ILY      0.033200
     21 H8         -2.2230    1.0000    0.5430 h1        1 ILY      0.027700
     22 H9         -0.7420   -1.6240   -0.2070 hc        1 ILY      0.040200
     23 H10        -0.9100   -0.1820   -1.2830 hc        1 ILY      0.040200
     24 H11         0.1640    1.2520    0.5120 hc        1 ILY      0.037200
     25 H12         0.3870   -0.2220    1.5300 hc        1 ILY      0.037200
     26 H13         1.7560   -1.2850   -0.3110 hc        1 ILY      0.046200
     27 H14         1.5460    0.2080   -1.3100 hc        1 ILY      0.046200
     28 H15         2.8140    0.0760    1.5220 h1        1 ILY      0.040700
     29 H16         3.7740    2.1550    0.7260 hn        1 ILY      0.329800
     30 H17         2.6950    2.2060   -0.4660 hn        1 ILY      0.329800
     31 H18        -3.2580   -0.7870   -1.0840 hn        1 ILY      0.353800
     32 H19        -2.1150   -0.4920    1.5690 h1        1 ILY      0.027700
@<TRIPOS>BOND
     1    1    2 1   
     2    1   14 1   
     3    1   15 1   
     4    1   16 1   
     5    2    3 1   
     6    2    4 1   
     7    2   17 1   
     8    3   18 1   
     9    3   19 1   
    10    3   20 1   
    11    4    5 1   
    12    4   31 1   
    13    5    6 1   
    14    5   21 1   
    15    5   32 1   
    16    6    7 1   
    17    6   22 1   
    18    6   23 1   
    19    7    8 1   
    20    7   24 1   
    21    7   25 1   
    22    8    9 1   
    23    8   26 1   
    24    8   27 1   
    25    9   10 1   
    26    9   11 1   
    27    9   28 1   
    28   10   29 1   
    29   10   30 1   
    30   11   12 1   
    31   11   13 1   
@<TRIPOS>SUBSTRUCTURE
     1 ILY         1 TEMP              0 ****  ****    0 ROOT
