@<TRIPOS>MOLECULE
IM1
   81    83     1     0     0
SMALL
bcc


@<TRIPOS>ATOM
      1 C1         -3.3980    1.2730   -3.4940 c3        1 IM1      0.185800
      2 C2         -3.8740    2.1460   -4.6550 c3        1 IM1     -0.114100
      3 C3         -3.9710   -0.1280   -3.6150 c3        1 IM1     -0.114100
      4 C4         -3.7590    1.9150   -2.1660 c3        1 IM1     -0.114100
      5 O5         -1.9580    1.2520   -3.6840 os        1 IM1     -0.443900
      6 C6         -1.1670    0.6070   -2.7680 c         1 IM1      0.739100
      7 O7         -1.6590   -0.0740   -1.8510 o         1 IM1     -0.602000
      8 N8          0.1840    0.8710   -2.9720 n         1 IM1     -0.521900
      9 C9          1.1610   -0.0220   -2.3760 c3        1 IM1      0.063700
     10 C10         2.2480   -0.4710   -3.3710 c3        1 IM1     -0.057100
     11 C11         1.6810   -1.0740   -4.6060 ca        1 IM1     -0.094300
     12 C12         1.5910   -0.3210   -5.7830 ca        1 IM1     -0.126500
     13 C13         1.0700   -0.8900   -6.9440 ca        1 IM1     -0.124500
     14 C14         0.6360   -2.2160   -6.9390 ca        1 IM1     -0.126000
     15 C15         0.7240   -2.9710   -5.7700 ca        1 IM1     -0.124500
     16 C16         1.2450   -2.4040   -4.6080 ca        1 IM1     -0.126500
     17 C17         1.8770    0.6280   -1.1550 c3        1 IM1      0.141100
     18 O18         2.6760    1.7250   -1.5550 oh        1 IM1     -0.597800
     19 C19         0.8810    1.0100   -0.0630 c3        1 IM1     -0.119400
     20 C20         1.4120    0.7260    1.3360 c3        1 IM1     -0.121700
     21 C21         2.5820    1.6410    1.6860 c3        1 IM1     -0.043100
     22 C22         3.4370    1.0740    2.7650 ca        1 IM1     -0.088300
     23 C23         4.5890    0.3460    2.4480 ca        1 IM1     -0.125500
     24 C24         5.3970   -0.1670    3.4610 ca        1 IM1     -0.133000
     25 C25         5.0610    0.0420    4.7980 ca        1 IM1     -0.132000
     26 C26         3.9140    0.7680    5.1210 ca        1 IM1     -0.133000
     27 C27         3.1050    1.2830    4.1100 ca        1 IM1     -0.125500
     28 C28         0.2590    0.9240    2.3250 c         1 IM1      0.661100
     29 O29         0.1120    1.9790    2.9710 o         1 IM1     -0.595100
     30 N30        -0.6110   -0.1440    2.4830 n         1 IM1     -0.575900
     31 C31        -1.8370   -0.0320    3.2450 c3        1 IM1      0.074400
     32 C32        -3.0800   -0.4270    2.4070 c3        1 IM1     -0.075700
     33 C33        -3.2120   -1.9250    2.2450 c3        1 IM1     -0.092100
     34 C34        -4.3380    0.1590    3.0100 c3        1 IM1     -0.092100
     35 C35        -1.7790   -0.8340    4.5320 cc        1 IM1      0.391800
     36 N36        -0.9190   -1.9230    4.7500 na        1 IM1     -0.303900
     37 C37        -1.1430   -2.3690    6.0510 cc        1 IM1     -0.266600
     38 C38        -2.1510   -1.5420    6.5790 cd        1 IM1      0.292200
     39 N39        -2.5360   -0.5940    5.6360 nd        1 IM1     -0.669000
     40 H1         -4.9860    2.2220   -4.6190 hc        1 IM1      0.052811
     41 H2         -3.4300    3.1670   -4.5770 hc        1 IM1      0.052811
     42 H3         -3.5650    1.6950   -5.6270 hc        1 IM1      0.052811
     43 H4         -3.6120   -0.6090   -4.5560 hc        1 IM1      0.052811
     44 H5         -3.6570   -0.7560   -2.7470 hc        1 IM1      0.052811
     45 H6         -5.0860   -0.0720   -3.6380 hc        1 IM1      0.052811
     46 H7         -3.2360    2.8950   -2.0580 hc        1 IM1      0.052811
     47 H8         -4.8610    2.0860   -2.1250 hc        1 IM1      0.052811
     48 H9         -3.4630    1.2530   -1.3170 hc        1 IM1      0.052811
     49 H10         0.4250    1.2460   -3.8650 hn        1 IM1      0.317500
     50 H11         0.6270   -0.9440   -1.9890 h1        1 IM1      0.077700
     51 H12         2.8980    0.4100   -3.6240 hc        1 IM1      0.069200
     52 H13         2.8960   -1.2230   -2.8460 hc        1 IM1      0.069200
     53 H14         1.9410    0.7230   -5.7940 ha        1 IM1      0.131500
     54 H15         1.0040   -0.2930   -7.8650 ha        1 IM1      0.134000
     55 H16         0.2260   -2.6640   -7.8560 ha        1 IM1      0.134000
     56 H17         0.3840   -4.0170   -5.7640 ha        1 IM1      0.134000
     57 H18         1.3150   -3.0020   -3.6880 ha        1 IM1      0.131500
     58 H19         2.6270   -0.1220   -0.7680 h1        1 IM1      0.077700
     59 H20         2.0850    2.4420   -1.8160 ho        1 IM1      0.409000
     60 H21        -0.0750    0.4380   -0.2180 hc        1 IM1      0.072700
     61 H22         0.6340    2.1020   -0.1470 hc        1 IM1      0.072700
     62 H23         1.7680   -0.3420    1.3850 hc        1 IM1      0.063700
     63 H24         3.1970    1.8020    0.7580 hc        1 IM1      0.076200
     64 H25         2.1830    2.6420    2.0060 hc        1 IM1      0.076200
     65 H26         4.8620    0.1870    1.3940 ha        1 IM1      0.142500
     66 H27         6.3030   -0.7350    3.2040 ha        1 IM1      0.130500
     67 H28         5.7000   -0.3610    5.5970 ha        1 IM1      0.129000
     68 H29         3.6470    0.9370    6.1740 ha        1 IM1      0.130500
     69 H30         2.1950    1.8550    4.3580 ha        1 IM1      0.142500
     70 H31        -0.5690   -0.8830    1.8210 hn        1 IM1      0.305500
     71 H32        -1.9560    1.0570    3.5530 h1        1 IM1      0.116700
     72 H33        -2.9540    0.0280    1.3800 hc        1 IM1      0.056700
     73 H34        -4.0820   -2.1600    1.5860 hc        1 IM1      0.040533
     74 H35        -2.2950   -2.3600    1.7800 hc        1 IM1      0.040533
     75 H36        -3.3770   -2.4170    3.2340 hc        1 IM1      0.040533
     76 H37        -4.5840   -0.3250    3.9860 hc        1 IM1      0.040533
     77 H38        -4.2190    1.2560    3.1790 hc        1 IM1      0.040533
     78 H39        -5.1970   -0.0030    2.3130 hc        1 IM1      0.040533
     79 H40        -0.2250   -2.2540    4.1360 hn        1 IM1      0.299700
     80 H41        -0.5970   -3.2040    6.4840 h4        1 IM1      0.174000
     81 H42        -2.6070   -1.5760    7.5670 h4        1 IM1      0.040100
@<TRIPOS>BOND
     1    1    2 1   
     2    1    3 1   
     3    1    4 1   
     4    1    5 1   
     5    2   40 1   
     6    2   41 1   
     7    2   42 1   
     8    3   43 1   
     9    3   44 1   
    10    3   45 1   
    11    4   46 1   
    12    4   47 1   
    13    4   48 1   
    14    5    6 1   
    15    6    7 2   
    16    6    8 1   
    17    8    9 1   
    18    8   49 1   
    19    9   10 1   
    20    9   17 1   
    21    9   50 1   
    22   10   11 1   
    23   10   51 1   
    24   10   52 1   
    25   11   12 ar  
    26   11   16 ar  
    27   12   13 ar  
    28   12   53 1   
    29   13   14 ar  
    30   13   54 1   
    31   14   15 ar  
    32   14   55 1   
    33   15   16 ar  
    34   15   56 1   
    35   16   57 1   
    36   17   18 1   
    37   17   19 1   
    38   17   58 1   
    39   18   59 1   
    40   19   20 1   
    41   19   60 1   
    42   19   61 1   
    43   20   21 1   
    44   20   28 1   
    45   20   62 1   
    46   21   22 1   
    47   21   63 1   
    48   21   64 1   
    49   22   23 ar  
    50   22   27 ar  
    51   23   24 ar  
    52   23   65 1   
    53   24   25 ar  
    54   24   66 1   
    55   25   26 ar  
    56   25   67 1   
    57   26   27 ar  
    58   26   68 1   
    59   27   69 1   
    60   28   29 2   
    61   28   30 1   
    62   30   31 1   
    63   30   70 1   
    64   31   32 1   
    65   31   35 1   
    66   31   71 1   
    67   32   33 1   
    68   32   34 1   
    69   32   72 1   
    70   33   73 1   
    71   33   74 1   
    72   33   75 1   
    73   34   76 1   
    74   34   77 1   
    75   34   78 1   
    76   35   36 1   
    77   35   39 2   
    78   36   37 1   
    79   36   79 1   
    80   37   38 2   
    81   37   80 1   
    82   38   39 1   
    83   38   81 1   
@<TRIPOS>SUBSTRUCTURE
     1 IM1         1 TEMP              0 ****  ****    0 ROOT
