@<TRIPOS>MOLECULE
IM1
   83    85     1     0     0
SMALL
bcc


@<TRIPOS>ATOM
      1 C1          0.9870    0.5280    0.2620 c3        1 IM1      0.204800
      2 C2          2.2320    1.3100    0.6480 c3        1 IM1     -0.130433
      3 C3          0.2340    0.0190    1.4700 c3        1 IM1     -0.130433
      4 C4          1.2830   -0.5550   -0.7500 c3        1 IM1     -0.130433
      5 O5          0.1740    1.6030   -0.4010 os        1 IM1     -0.417900
      6 C6         -1.0340    1.3180   -0.8840 c         1 IM1      0.641100
      7 O7         -1.6270    0.2460   -0.9000 o         1 IM1     -0.466000
      8 N8         -1.6380    2.5630   -1.4730 ny        1 IM1     -0.647800
      9 C9         -3.1420    2.5950   -1.4070 c3        1 IM1      0.101500
     10 C10        -3.6440    4.0110   -1.0710 c3        1 IM1     -0.051100
     11 C11        -2.9790    4.5800    0.1310 ca        1 IM1     -0.170300
     12 C12        -1.9640    5.5350   -0.0120 ca        1 IM1     -0.130500
     13 C13        -1.3730    6.1030    1.1150 ca        1 IM1     -0.110500
     14 C14        -1.7930    5.7230    2.3920 ca        1 IM1     -0.091000
     15 C15        -2.8070    4.7750    2.5380 ca        1 IM1     -0.110500
     16 C16        -3.4000    4.2060    1.4130 ca        1 IM1     -0.130500
     17 C17        -3.7990    2.1300   -2.7410 c3        1 IM1      0.130100
     18 O18        -3.0810    2.6820   -3.8320 oh        1 IM1     -0.612800
     19 C19        -3.7690    0.6080   -2.8780 c3        1 IM1     -0.098400
     20 C20        -4.7670    0.0970   -3.9180 c3        1 IM1     -0.120700
     21 C21        -4.1750    0.1890   -5.3180 c3        1 IM1     -0.060100
     22 C22        -5.1610   -0.0080   -6.4150 ca        1 IM1     -0.171300
     23 C23        -6.3110    0.7870   -6.5030 ca        1 IM1     -0.145000
     24 C24        -7.1810    0.6490   -7.5830 ca        1 IM1     -0.111000
     25 C25        -6.9060   -0.2790   -8.5900 ca        1 IM1     -0.100000
     26 C26        -5.7590   -1.0690   -8.5120 ca        1 IM1     -0.111000
     27 C27        -4.8900   -0.9370   -7.4290 ca        1 IM1     -0.145000
     28 C28        -5.2060   -1.3050   -3.5280 c         1 IM1      0.539100
     29 O29        -5.2380   -1.7460   -2.3870 o         1 IM1     -0.424100
     30 N30        -5.6750   -2.1960   -4.6390 ny        1 IM1     -0.674800
     31 C31        -6.1520   -3.5740   -4.1920 c3        1 IM1      0.144200
     32 C32        -7.5920   -3.5070   -3.6510 c3        1 IM1     -0.085700
     33 C33        -8.6450   -3.2770   -4.7140 c3        1 IM1     -0.111100
     34 C34        -7.8880   -4.7380   -2.8170 c3        1 IM1     -0.111100
     35 C35        -5.8980   -4.5290   -5.3170 cc        1 IM1      0.267800
     36 N36        -6.8140   -5.4240   -5.8850 na        1 IM1     -0.257900
     37 C37        -6.1270   -6.1610   -6.8360 cc        1 IM1     -0.194600
     38 C38        -4.7960   -5.6700   -6.8390 cd        1 IM1      0.314200
     39 N39        -4.6640   -4.6700   -5.9000 nd        1 IM1     -0.670000
     40 H1          1.9750    2.1440    1.3430 hc        1 IM1      0.074478
     41 H2          2.7310    1.7320   -0.2570 hc        1 IM1      0.074478
     42 H3          2.9390    0.6120    1.1620 hc        1 IM1      0.074478
     43 H4         -0.0510    0.8630    2.1430 hc        1 IM1      0.074478
     44 H5          0.8950   -0.6810    2.0390 hc        1 IM1      0.074478
     45 H6         -0.6870   -0.5350    1.1630 hc        1 IM1      0.074478
     46 H7          1.7520   -0.1220   -1.6670 hc        1 IM1      0.074478
     47 H8          0.3520   -1.1020   -1.0340 hc        1 IM1      0.074478
     48 H9          1.9990   -1.2860   -0.2980 hc        1 IM1      0.074478
     49 H10        -1.3450    2.6270   -2.4600 hn        1 IM1      0.484800
     50 H11        -3.4560    1.8910   -0.5790 hx        1 IM1      0.126700
     51 H12        -3.4930    4.6830   -1.9580 hc        1 IM1      0.084700
     52 H13        -4.7510    3.9330   -0.8880 hc        1 IM1      0.084700
     53 H14        -1.6590    5.8750   -1.0140 ha        1 IM1      0.135000
     54 H15        -0.5860    6.8650    0.9980 ha        1 IM1      0.161000
     55 H16        -1.3330    6.1830    3.2820 ha        1 IM1      0.165000
     56 H17        -3.1510    4.4870    3.5450 ha        1 IM1      0.161000
     57 H18        -4.2160    3.4770    1.5350 ha        1 IM1      0.135000
     58 H19        -4.8650    2.4960   -2.7250 h1        1 IM1      0.084700
     59 H20        -3.4940    3.5220   -4.0740 ho        1 IM1      0.442000
     60 H21        -3.9940    0.1590   -1.8710 hc        1 IM1      0.092700
     61 H22        -2.7330    0.2820   -3.1640 hc        1 IM1      0.092700
     62 H23        -5.7100    0.7210   -3.8740 hc        1 IM1      0.104700
     63 H24        -3.7260    1.2200   -5.4280 hc        1 IM1      0.089700
     64 H25        -3.3220   -0.5370   -5.4160 hc        1 IM1      0.089700
     65 H26        -6.5170    1.5500   -5.7380 ha        1 IM1      0.138500
     66 H27        -8.0770    1.2870   -7.6520 ha        1 IM1      0.161500
     67 H28        -7.5850   -0.3730   -9.4540 ha        1 IM1      0.166000
     68 H29        -5.5280   -1.7880   -9.3150 ha        1 IM1      0.161500
     69 H30        -3.9670   -1.5400   -7.3990 ha        1 IM1      0.138500
     70 H31        -4.8890   -2.3010   -5.3070 hn        1 IM1      0.479800
     71 H32        -5.4720   -3.8750   -3.3300 hx        1 IM1      0.135700
     72 H33        -7.6220   -2.6300   -2.9340 hc        1 IM1      0.065700
     73 H34        -9.2480   -4.2030   -4.8950 hc        1 IM1      0.059700
     74 H35        -8.2050   -2.9540   -5.6880 hc        1 IM1      0.059700
     75 H36        -9.3630   -2.4880   -4.3770 hc        1 IM1      0.059700
     76 H37        -7.1580   -4.8260   -1.9750 hc        1 IM1      0.059700
     77 H38        -8.9150   -4.6480   -2.3840 hc        1 IM1      0.059700
     78 H39        -7.8460   -5.6770   -3.4160 hc        1 IM1      0.059700
     79 H40        -7.7560   -5.5490   -5.6070 hn        1 IM1      0.323700
     80 H41        -6.5970   -6.9520   -7.4240 h4        1 IM1      0.212000
     81 H42        -3.9590   -6.0000   -7.4590 h4        1 IM1      0.072100
     82 H82        -1.2570    3.3820   -0.9630 hn        1 IM1      0.484800
     83 H302       -6.4340   -1.7170   -5.1440 hn        1 IM1      0.479800
@<TRIPOS>BOND
     1    1    2 1   
     2    1    3 1   
     3    1    4 1   
     4    1    5 1   
     5    2   40 1   
     6    2   41 1   
     7    2   42 1   
     8    3   43 1   
     9    3   44 1   
    10    3   45 1   
    11    4   46 1   
    12    4   47 1   
    13    4   48 1   
    14    5    6 1   
    15    6    7 2   
    16    6    8 1   
    17    8    9 1   
    18    8   49 1   
    19    8   82 1   
    20    9   10 1   
    21    9   17 1   
    22    9   50 1   
    23   10   11 1   
    24   10   51 1   
    25   10   52 1   
    26   11   12 ar  
    27   11   16 ar  
    28   12   13 ar  
    29   12   53 1   
    30   13   14 ar  
    31   13   54 1   
    32   14   15 ar  
    33   14   55 1   
    34   15   16 ar  
    35   15   56 1   
    36   16   57 1   
    37   17   18 1   
    38   17   19 1   
    39   17   58 1   
    40   18   59 1   
    41   19   20 1   
    42   19   60 1   
    43   19   61 1   
    44   20   21 1   
    45   20   28 1   
    46   20   62 1   
    47   21   22 1   
    48   21   63 1   
    49   21   64 1   
    50   22   23 ar  
    51   22   27 ar  
    52   23   24 ar  
    53   23   65 1   
    54   24   25 ar  
    55   24   66 1   
    56   25   26 ar  
    57   25   67 1   
    58   26   27 ar  
    59   26   68 1   
    60   27   69 1   
    61   28   29 2   
    62   28   30 1   
    63   30   31 1   
    64   30   70 1   
    65   30   83 1   
    66   31   32 1   
    67   31   35 1   
    68   31   71 1   
    69   32   33 1   
    70   32   34 1   
    71   32   72 1   
    72   33   73 1   
    73   33   74 1   
    74   33   75 1   
    75   34   76 1   
    76   34   77 1   
    77   34   78 1   
    78   35   36 1   
    79   35   39 2   
    80   36   37 1   
    81   36   79 1   
    82   37   38 2   
    83   37   80 1   
    84   38   39 1   
    85   38   81 1   
@<TRIPOS>SUBSTRUCTURE
     1 IM1         1 TEMP              0 ****  ****    0 ROOT
