@<TRIPOS>MOLECULE
IM1
   83    85     1     0     0
SMALL
bcc


@<TRIPOS>ATOM
      1 C1          0.9960    0.5320    0.2430 c3        1 IM1      0.204800
      2 C2          2.2450    1.3120    0.6220 c3        1 IM1     -0.130433
      3 C3          0.2450    0.0320    1.4560 c3        1 IM1     -0.130433
      4 C4          1.2860   -0.5580   -0.7630 c3        1 IM1     -0.130433
      5 O5          0.1840    1.6050   -0.4230 os        1 IM1     -0.417900
      6 C6         -1.0260    1.3210   -0.9000 c         1 IM1      0.641100
      7 O7         -1.6220    0.2510   -0.9090 o         1 IM1     -0.466000
      8 N8         -1.6280    2.5650   -1.4940 n4        1 IM1     -0.647800
      9 C9         -3.1320    2.6020   -1.4250 c3        1 IM1      0.101500
     10 C10        -3.6280    4.0210   -1.0950 c3        1 IM1     -0.051100
     11 C11        -2.9600    4.5940    0.1020 ca        1 IM1     -0.170300
     12 C12        -1.9420    5.5450   -0.0490 ca        1 IM1     -0.130500
     13 C13        -1.3470    6.1180    1.0740 ca        1 IM1     -0.110500
     14 C14        -1.7650    5.7460    2.3530 ca        1 IM1     -0.091000
     15 C15        -2.7810    4.8020    2.5080 ca        1 IM1     -0.110500
     16 C16        -3.3790    4.2290    1.3860 ca        1 IM1     -0.130500
     17 C17        -3.7940    2.1310   -2.7550 c3        1 IM1      0.130100
     18 O18        -3.0760    2.6750   -3.8510 oh        1 IM1     -0.612800
     19 C19        -3.7680    0.6090   -2.8830 c3        1 IM1     -0.098400
     20 C20        -4.7690    0.0940   -3.9190 c3        1 IM1     -0.120700
     21 C21        -4.1790    0.1760   -5.3210 c3        1 IM1     -0.060100
     22 C22        -5.1670   -0.0250   -6.4150 ca        1 IM1     -0.171300
     23 C23        -6.3140    0.7740   -6.5060 ca        1 IM1     -0.145000
     24 C24        -7.1860    0.6320   -7.5850 ca        1 IM1     -0.111000
     25 C25        -6.9170   -0.3030   -8.5860 ca        1 IM1     -0.100000
     26 C26        -5.7720   -1.0970   -8.5040 ca        1 IM1     -0.111000
     27 C27        -4.9010   -0.9610   -7.4230 ca        1 IM1     -0.145000
     28 C28        -5.2130   -1.3040   -3.5190 c         1 IM1      0.539100
     29 O29        -5.2480   -1.7360   -2.3750 o         1 IM1     -0.424100
     30 N30        -5.6840   -2.2010   -4.6240 n4        1 IM1     -0.674800
     31 C31        -6.1640   -3.5740   -4.1690 c3        1 IM1      0.144200
     32 C32        -7.6040   -3.5010   -3.6290 c3        1 IM1     -0.085700
     33 C33        -8.6570   -3.2770   -4.6940 c3        1 IM1     -0.111100
     34 C34        -7.9020   -4.7260   -2.7860 c3        1 IM1     -0.111100
     35 C35        -5.9110   -4.5380   -5.2860 cc        1 IM1      0.267800
     36 N36        -6.8280   -5.4360   -5.8490 na        1 IM1     -0.257900
     37 C37        -6.1420   -6.1800   -6.7940 cc        1 IM1     -0.194600
     38 C38        -4.8100   -5.6910   -6.8010 cd        1 IM1      0.314200
     39 N39        -4.6780   -4.6840   -5.8690 nd        1 IM1     -0.671000
     40 H1          2.7420    1.7280   -0.2870 hc        1 IM1      0.074478
     41 H2          2.9510    0.6150    1.1370 hc        1 IM1      0.074478
     42 H3          1.9920    2.1510    1.3130 hc        1 IM1      0.074478
     43 H4         -0.6780   -0.5210    1.1560 hc        1 IM1      0.074478
     44 H5         -0.0350    0.8810    2.1250 hc        1 IM1      0.074478
     45 H6          0.9060   -0.6670    2.0280 hc        1 IM1      0.074478
     46 H7          0.3520   -1.1030   -1.0420 hc        1 IM1      0.074478
     47 H8          1.7530   -0.1320   -1.6840 hc        1 IM1      0.074478
     48 H9          2.0010   -1.2890   -0.3090 hc        1 IM1      0.074478
     49 H10        -1.3370    2.6230   -2.4830 hn        1 IM1      0.484800
     50 H11        -3.4460    1.9030   -0.5930 hx        1 IM1      0.126700
     51 H12        -4.7360    3.9470   -0.9090 hc        1 IM1      0.084700
     52 H13        -3.4780    4.6880   -1.9870 hc        1 IM1      0.084700
     53 H14        -1.6370    5.8790   -1.0530 ha        1 IM1      0.135000
     54 H15        -0.5570    6.8770    0.9510 ha        1 IM1      0.161000
     55 H16        -1.3020    6.2090    3.2410 ha        1 IM1      0.165000
     56 H17        -3.1240    4.5210    3.5170 ha        1 IM1      0.161000
     57 H18        -4.1970    3.5030    1.5140 ha        1 IM1      0.135000
     58 H19        -4.8580    2.5010   -2.7380 h1        1 IM1      0.084700
     59 H20        -3.4870    3.5150   -4.0970 ho        1 IM1      0.442000
     60 H21        -3.9930    0.1650   -1.8740 hc        1 IM1      0.092700
     61 H22        -2.7340    0.2780   -3.1700 hc        1 IM1      0.092700
     62 H23        -5.7100    0.7220   -3.8770 hc        1 IM1      0.104700
     63 H24        -3.3290   -0.5530   -5.4150 hc        1 IM1      0.089700
     64 H25        -3.7270    1.2050   -5.4380 hc        1 IM1      0.089700
     65 H26        -6.5170    1.5420   -5.7460 ha        1 IM1      0.138500
     66 H27        -8.0800    1.2730   -7.6560 ha        1 IM1      0.161500
     67 H28        -7.5970   -0.4010   -9.4470 ha        1 IM1      0.166000
     68 H29        -5.5450   -1.8220   -9.3030 ha        1 IM1      0.161500
     69 H30        -3.9800   -1.5670   -7.3910 ha        1 IM1      0.138500
     70 H31        -4.8990   -2.3120   -5.2920 hn        1 IM1      0.479800
     71 H32        -5.4850   -3.8710   -3.3040 hx        1 IM1      0.135700
     72 H33        -7.6320   -2.6190   -2.9170 hc        1 IM1      0.065700
     73 H34        -9.3730   -2.4840   -4.3620 hc        1 IM1      0.059700
     74 H35        -9.2600   -4.2030   -4.8690 hc        1 IM1      0.059700
     75 H36        -8.2150   -2.9610   -5.6690 hc        1 IM1      0.059700
     76 H37        -7.8610   -5.6690   -3.3780 hc        1 IM1      0.059700
     77 H38        -8.9300   -4.6310   -2.3540 hc        1 IM1      0.059700
     78 H39        -7.1730   -4.8100   -1.9430 hc        1 IM1      0.059700
     79 H40        -7.7710   -5.5570   -5.5700 hn        1 IM1      0.323700
     80 H41        -6.6130   -6.9750   -7.3770 h4        1 IM1      0.212000
     81 H42        -3.9740   -6.0270   -7.4180 h4        1 IM1      0.072100
     82 H82        -1.2440    3.3860   -0.9900 hn        1 IM1      0.484800
     83 H302       -6.4430   -1.7230   -5.1330 hn        1 IM1      0.479800
@<TRIPOS>BOND
     1    1    2 1   
     2    1    3 1   
     3    1    4 1   
     4    1    5 1   
     5    2   40 1   
     6    2   41 1   
     7    2   42 1   
     8    3   43 1   
     9    3   44 1   
    10    3   45 1   
    11    4   46 1   
    12    4   47 1   
    13    4   48 1   
    14    5    6 1   
    15    6    7 2   
    16    6    8 1   
    17    8    9 1   
    18    8   49 1   
    19    8   82 1   
    20    9   10 1   
    21    9   17 1   
    22    9   50 1   
    23   10   11 1   
    24   10   51 1   
    25   10   52 1   
    26   11   12 ar  
    27   11   16 ar  
    28   12   13 ar  
    29   12   53 1   
    30   13   14 ar  
    31   13   54 1   
    32   14   15 ar  
    33   14   55 1   
    34   15   16 ar  
    35   15   56 1   
    36   16   57 1   
    37   17   18 1   
    38   17   19 1   
    39   17   58 1   
    40   18   59 1   
    41   19   20 1   
    42   19   60 1   
    43   19   61 1   
    44   20   21 1   
    45   20   28 1   
    46   20   62 1   
    47   21   22 1   
    48   21   63 1   
    49   21   64 1   
    50   22   23 ar  
    51   22   27 ar  
    52   23   24 ar  
    53   23   65 1   
    54   24   25 ar  
    55   24   66 1   
    56   25   26 ar  
    57   25   67 1   
    58   26   27 ar  
    59   26   68 1   
    60   27   69 1   
    61   28   29 2   
    62   28   30 1   
    63   30   31 1   
    64   30   70 1   
    65   30   83 1   
    66   31   32 1   
    67   31   35 1   
    68   31   71 1   
    69   32   33 1   
    70   32   34 1   
    71   32   72 1   
    72   33   73 1   
    73   33   74 1   
    74   33   75 1   
    75   34   76 1   
    76   34   77 1   
    77   34   78 1   
    78   35   36 1   
    79   35   39 2   
    80   36   37 1   
    81   36   79 1   
    82   37   38 2   
    83   37   80 1   
    84   38   39 1   
    85   38   81 1   
@<TRIPOS>SUBSTRUCTURE
     1 IM1         1 TEMP              0 ****  ****    0 ROOT
