@<TRIPOS>MOLECULE
IM1
   81    76     1     0     0
SMALL
bcc


@<TRIPOS>ATOM
      1 C1          3.8360    5.2260    2.9820 c3        1 IM1      0.114000
      2 C2          3.7140    6.5660    3.7880 c3        1 IM1     -0.232000
      3 C3          4.3670    4.1070    3.9160 c3        1 IM1     -0.232000
      4 C4          4.7910    5.4170    1.8380 c3        1 IM1     -0.232000
      5 O5          2.5040    4.8430    2.4570 os        1 IM1     -0.288000
      6 C6          2.4790    3.5490    1.8130 c2        1 IM1      0.391000
      7 O7          3.5010    2.8990    1.7200 o         1 IM1     -0.392000
      8 N8          1.2450    3.0760    1.1580 n         1 IM1     -0.337000
      9 C9          0.9290    1.6780    1.1570 c3        1 IM1     -0.019000
     10 C10        -0.0930    1.3860    2.2560 c3        1 IM1     -0.147000
     11 C11         0.6350    0.8390    3.5060 c2        1 IM1     -0.089000
     12 C12         0.6530    1.5890    4.6800 c2        1 IM1     -0.126000
     13 C13         1.1680    1.0440    5.8400 c1        1 IM1     -0.127000
     14 C14         1.6690   -0.2520    5.8360 c1        1 IM1     -0.127750
     15 C15         1.6520   -0.9990    4.6690 c1        1 IM1     -0.127750
     16 C16         1.1340   -0.4520    3.5030 c1        1 IM1     -0.119000
     17 C17         0.3530    1.2900   -0.1850 c3        1 IM1      0.036000
     18 O18         0.8990    2.1070   -1.1820 oh        1 IM1     -0.323000
     19 C19         0.6960   -0.1890   -0.4840 c3        1 IM1     -0.162000
     20 C20        -0.0670   -0.6550   -1.7430 c3        1 IM1     -0.114000
     21 C21         0.8450   -0.5810   -2.9380 c3        1 IM1     -0.124000
     22 C22        -0.0050   -0.6330   -4.2510 c2        1 IM1     -0.081000
     23 C23         0.1550   -1.6970   -5.1340 c2        1 IM1     -0.119000
     24 C24        -0.4210   -1.6450   -6.3980 c1        1 IM1     -0.128000
     25 C25        -1.1530   -0.5360   -6.7790 c1        1 IM1     -0.127750
     26 C26        -1.3150    0.5240   -5.9010 c1        1 IM1     -0.127750
     27 C27        -0.7390    0.4750   -4.6350 c1        1 IM1     -0.130000
     28 C28        -0.5430   -2.0910   -1.5520 c2        1 IM1      0.306000
     29 O29         0.2270   -3.0040   -1.6950 o         1 IM1     -0.372000
     30 N30        -1.9430   -2.3580   -1.2950 n         1 IM1     -0.358000
     31 C31        -2.4460   -3.7000   -1.3760 c3        1 IM1      0.100000
     32 C32        -2.8360   -4.1880    0.0330 c3        1 IM1     -0.104000
     33 C33        -4.3100   -3.7780    0.3390 c3        1 IM1     -0.213000
     34 C34        -2.7090   -5.6770    0.1000 c3        1 IM1     -0.213000
     35 C35        -3.6460   -3.7270   -2.2680 c2        1 IM1     -0.079000
     36 N36        -3.9230   -4.6670   -3.1910 n2        1 IM1     -0.169500
     37 C37        -5.0100   -4.2710   -3.8760 c1        1 IM1     -0.170000
     38 C38        -5.4100   -3.0720   -3.3710 c1        1 IM1     -0.170000
     39 N39        -4.5720   -2.7390   -2.3850 n2        1 IM1     -0.169500
     40 H1          4.3460    6.5580    4.5350 hc        1 IM1      0.091444
     41 H2          2.7960    6.6560    4.1360 hc        1 IM1      0.091444
     42 H3          3.9180    7.3290    3.1910 hc        1 IM1      0.091444
     43 H4          3.6200    3.7340    4.4400 hc        1 IM1      0.091444
     44 H5          4.7770    3.3930    3.3730 hc        1 IM1      0.091444
     45 H6          5.0400    4.4820    4.5250 hc        1 IM1      0.091444
     46 H7          5.1690    4.5560    1.5840 hc        1 IM1      0.091444
     47 H8          4.3130    5.8020    1.0740 hc        1 IM1      0.091444
     48 H9          5.5110    6.0230    2.1120 hc        1 IM1      0.091444
     49 H10         0.7330    3.6570    0.6800 hn        1 IM1      0.225000
     50 H11         1.7600    1.1500    1.3270 h1        1 IM1      0.140000
     51 H12        -0.7370    0.7210    1.9350 hc        1 IM1      0.097500
     52 H13        -0.5600    2.2000    2.4860 hc        1 IM1      0.097500
     53 H14         0.2980    2.5080    4.6830 ha        1 IM1      0.129000
     54 H15         1.1800    1.5730    6.6660 ha        1 IM1      0.133000
     55 H16         2.0360   -0.6400    6.6630 ha        1 IM1      0.131500
     56 H17         2.0040   -1.9110    4.6670 ha        1 IM1      0.131500
     57 H18         1.1220   -0.9760    2.6860 ha        1 IM1      0.136000
     58 H19        -0.6160    1.4020   -0.1680 h1        1 IM1      0.074000
     59 H20         0.2780    2.6550   -1.4870 ho        1 IM1      0.214000
     60 H21         1.6660   -0.2740   -0.6380 hc        1 IM1      0.112500
     61 H22         0.4390   -0.7400    0.2720 hc        1 IM1      0.112500
     62 H23        -0.8580   -0.0620   -1.8910 hc        1 IM1      0.106000
     63 H24         1.3550    0.2650   -2.9110 hc        1 IM1      0.111500
     64 H25         1.4700   -1.3440   -2.9210 hc        1 IM1      0.111500
     65 H26         0.6560   -2.4560   -4.8740 ha        1 IM1      0.149000
     66 H27        -0.3070   -2.4000   -7.0250 ha        1 IM1      0.131000
     67 H28        -1.5530   -0.5000   -7.6550 ha        1 IM1      0.131500
     68 H29        -1.8250    1.2950   -6.1670 ha        1 IM1      0.131500
     69 H30        -0.8530    1.2210   -4.0190 ha        1 IM1      0.125000
     70 H31        -2.5170   -1.6640   -1.1240 hn        1 IM1      0.233000
     71 H32        -1.7610   -4.2820   -1.7410 h1        1 IM1      0.129000
     72 H33        -2.2470   -3.7870    0.6860 hc        1 IM1      0.098000
     73 H34        -4.3890   -2.8070    0.3100 hc        1 IM1      0.079167
     74 H35        -4.5630   -4.1040    1.2440 hc        1 IM1      0.079167
     75 H36        -4.9020   -4.1730   -0.3250 hc        1 IM1      0.079167
     76 H37        -3.5690   -6.0900   -0.1320 hc        1 IM1      0.079167
     77 H38        -2.4560   -5.9410    1.0060 hc        1 IM1      0.079167
     78 H39        -2.0190   -5.9780   -0.5350 hc        1 IM1      0.079167
     79 H40        -3.4430   -5.4570   -3.3300 DU        1 IM1      0.203000
     80 H41        -5.4390   -4.7590   -4.6110 DU        1 IM1      0.203000
     81 H42        -6.1840   -2.5400   -3.6800 DU        1 IM1      0.203000
@<TRIPOS>BOND
     1    1    2 1   
     2    1    3 1   
     3    1    4 1   
     4    1    5 1   
     5    2   40 1   
     6    2   41 1   
     7    2   42 1   
     8    3   43 1   
     9    3   44 1   
    10    3   45 1   
    11    4   46 1   
    12    4   47 1   
    13    4   48 1   
    14    5    6 1   
    15    6    7 1   
    16    6    8 1   
    17    8    9 1   
    18    8   49 1   
    19    9   10 1   
    20    9   17 1   
    21    9   50 1   
    22   10   11 1   
    23   10   51 1   
    24   10   52 1   
    25   11   12 1   
    26   11   16 1   
    27   12   13 1   
    28   12   53 1   
    29   13   54 1   
    30   14   15 1   
    31   14   55 1   
    32   15   56 1   
    33   16   57 1   
    34   17   18 1   
    35   17   19 1   
    36   17   58 1   
    37   18   59 1   
    38   19   20 1   
    39   19   60 1   
    40   19   61 1   
    41   20   21 1   
    42   20   28 1   
    43   20   62 1   
    44   21   22 1   
    45   21   63 1   
    46   21   64 1   
    47   22   23 1   
    48   22   27 1   
    49   23   24 1   
    50   23   65 1   
    51   24   66 1   
    52   25   26 1   
    53   25   67 1   
    54   26   68 1   
    55   27   69 1   
    56   28   29 1   
    57   28   30 1   
    58   30   31 1   
    59   30   70 1   
    60   31   32 1   
    61   31   35 1   
    62   31   71 1   
    63   32   33 1   
    64   32   34 1   
    65   32   72 1   
    66   33   73 1   
    67   33   74 1   
    68   33   75 1   
    69   34   76 1   
    70   34   77 1   
    71   34   78 1   
    72   35   36 1   
    73   35   39 1   
    74   36   37 1   
    75   37   38 1   
    76   38   39 1   
@<TRIPOS>SUBSTRUCTURE
     1 IM1         1 TEMP              0 ****  ****    0 ROOT
