@<TRIPOS>MOLECULE
IM1
   83    85     1     0     0
SMALL
bcc


@<TRIPOS>ATOM
      1 C1          1.0080    0.5690    0.2270 c3        1 IM1      0.204800
      2 C2          2.2490    1.3620    0.6050 c3        1 IM1     -0.130767
      3 C3          0.2680    0.0530    1.4400 c3        1 IM1     -0.130767
      4 C4          1.3070   -0.5110   -0.7870 c3        1 IM1     -0.130767
      5 O5          0.1800    1.6370   -0.4290 os        1 IM1     -0.417900
      6 C6         -1.0280    1.3410   -0.9030 c         1 IM1      0.641100
      7 O7         -1.6110    0.2640   -0.9160 o         1 IM1     -0.466000
      8 N8         -1.6480    2.5820   -1.4870 n4        1 IM1     -0.647800
      9 C9         -3.1510    2.6000   -1.4100 c3        1 IM1      0.101500
     10 C10        -3.6630    4.0110   -1.0680 c3        1 IM1     -0.051100
     11 C11        -2.9950    4.5840    0.1290 ca        1 IM1     -0.170300
     12 C12        -1.9890    5.5480   -0.0210 ca        1 IM1     -0.130500
     13 C13        -1.3950    6.1200    1.1040 ca        1 IM1     -0.110500
     14 C14        -1.8030    5.7360    2.3820 ca        1 IM1     -0.091000
     15 C15        -2.8080    4.7790    2.5350 ca        1 IM1     -0.110500
     16 C16        -3.4040    4.2060    1.4130 ca        1 IM1     -0.130500
     17 C17        -3.8140    2.1300   -2.7390 c3        1 IM1      0.130100
     18 O18        -3.1090    2.6900   -3.8350 oh        1 IM1     -0.612800
     19 C19        -3.7710    0.6090   -2.8780 c3        1 IM1     -0.098400
     20 C20        -4.7730    0.0890   -3.9090 c3        1 IM1     -0.120700
     21 C21        -4.1950    0.1900   -5.3160 c3        1 IM1     -0.060100
     22 C22        -5.1890   -0.0140   -6.4030 ca        1 IM1     -0.171300
     23 C23        -6.3470    0.7700   -6.4790 ca        1 IM1     -0.145000
     24 C24        -7.2260    0.6270   -7.5510 ca        1 IM1     -0.111000
     25 C25        -6.9520   -0.2950   -8.5630 ca        1 IM1     -0.100000
     26 C26        -5.7970   -1.0750   -8.4970 ca        1 IM1     -0.111000
     27 C27        -4.9190   -0.9380   -7.4230 ca        1 IM1     -0.145000
     28 C28        -5.1940   -1.3190   -3.5190 c         1 IM1      0.539100
     29 O29        -5.2060   -1.7640   -2.3790 o         1 IM1     -0.424100
     30 N30        -5.6690   -2.2100   -4.6270 n4        1 IM1     -0.674800
     31 C31        -6.1310   -3.5920   -4.1790 c3        1 IM1      0.144200
     32 C32        -7.5630   -3.5370   -3.6180 c3        1 IM1     -0.085700
     33 C33        -8.6330   -3.3120   -4.6660 c3        1 IM1     -0.111100
     34 C34        -7.8390   -4.7740   -2.7840 c3        1 IM1     -0.111100
     35 C35        -5.8850   -4.5420   -5.3100 cc        1 IM1      0.267800
     36 N36        -6.8020   -5.4410   -5.8700 na        1 IM1     -0.257900
     37 C37        -6.1230   -6.1700   -6.8320 cc        1 IM1     -0.194600
     38 C38        -4.7950   -5.6690   -6.8510 cd        1 IM1      0.314200
     39 N39        -4.6580   -4.6710   -5.9110 nd        1 IM1     -0.670000
     40 H1          2.7370    1.7890   -0.3030 hc        1 IM1      0.074478
     41 H2          2.9660    0.6690    1.1130 hc        1 IM1      0.074478
     42 H3          1.9900    2.1940    1.3030 hc        1 IM1      0.074478
     43 H4          0.9390   -0.6420    2.0050 hc        1 IM1      0.074478
     44 H5         -0.6500   -0.5090    1.1400 hc        1 IM1      0.074478
     45 H6         -0.0190    0.8940    2.1160 hc        1 IM1      0.074478
     46 H7          0.3780   -1.0660   -1.0650 hc        1 IM1      0.074478
     47 H8          1.7650   -0.0740   -1.7070 hc        1 IM1      0.074478
     48 H9          2.0320   -1.2360   -0.3400 hc        1 IM1      0.074478
     49 H10        -1.2700    3.4030   -0.9790 hn        1 IM1      0.484800
     50 H11        -3.4530    1.8920   -0.5800 hx        1 IM1      0.126700
     51 H12        -4.7680    3.9230   -0.8780 hc        1 IM1      0.084700
     52 H13        -3.5250    4.6850   -1.9560 hc        1 IM1      0.084700
     53 H14        -1.6940    5.8920   -1.0240 ha        1 IM1      0.135000
     54 H15        -0.6150    6.8900    0.9820 ha        1 IM1      0.161000
     55 H16        -1.3410    6.1990    3.2700 ha        1 IM1      0.165000
     56 H17        -3.1420    4.4880    3.5440 ha        1 IM1      0.161000
     57 H18        -4.2130    3.4700    1.5400 ha        1 IM1      0.135000
     58 H19        -4.8830    2.4860   -2.7150 h1        1 IM1      0.084700
     59 H20        -3.5310    3.5270   -4.0730 ho        1 IM1      0.442000
     60 H21        -3.9830    0.1560   -1.8700 hc        1 IM1      0.092700
     61 H22        -2.7340    0.2930   -3.1740 hc        1 IM1      0.092700
     62 H23        -5.7220    0.7030   -3.8560 hc        1 IM1      0.104700
     63 H24        -3.3370   -0.5280   -5.4230 hc        1 IM1      0.089700
     64 H25        -3.7560    1.2250   -5.4270 hc        1 IM1      0.089700
     65 H26        -6.5530    1.5300   -5.7100 ha        1 IM1      0.138500
     66 H27        -8.1280    1.2570   -7.6100 ha        1 IM1      0.161500
     67 H28        -7.6390   -0.3940   -9.4200 ha        1 IM1      0.166000
     68 H29        -5.5670   -1.7900   -9.3050 ha        1 IM1      0.161500
     69 H30        -3.9910   -1.5320   -7.4020 ha        1 IM1      0.138500
     70 H31        -6.4380   -1.7350   -5.1210 hn        1 IM1      0.479800
     71 H32        -5.4360   -3.8910   -3.3270 hx        1 IM1      0.135700
     72 H33        -7.5890   -2.6630   -2.8970 hc        1 IM1      0.065700
     73 H34        -9.2300   -4.2410   -4.8420 hc        1 IM1      0.059700
     74 H35        -8.2080   -2.9810   -5.6440 hc        1 IM1      0.059700
     75 H36        -9.3510   -2.5290   -4.3160 hc        1 IM1      0.059700
     76 H37        -8.8610   -4.6920   -2.3370 hc        1 IM1      0.059700
     77 H38        -7.7980   -5.7100   -3.3880 hc        1 IM1      0.059700
     78 H39        -7.0970   -4.8600   -1.9530 hc        1 IM1      0.059700
     79 H40        -7.7390   -5.5740   -5.5790 hn        1 IM1      0.323700
     80 H41        -6.5950   -6.9620   -7.4170 h4        1 IM1      0.212000
     81 H42        -3.9640   -5.9910   -7.4830 h4        1 IM1      0.072100
     82 H82        -1.3630    2.6490   -2.4760 hn        1 IM1      0.484800
     83 H302       -4.8910   -2.3060   -5.3040 hn        1 IM1      0.479800
@<TRIPOS>BOND
     1    1    2 1   
     2    1    3 1   
     3    1    4 1   
     4    1    5 1   
     5    2   40 1   
     6    2   41 1   
     7    2   42 1   
     8    3   43 1   
     9    3   44 1   
    10    3   45 1   
    11    4   46 1   
    12    4   47 1   
    13    4   48 1   
    14    5    6 1   
    15    6    7 2   
    16    6    8 1   
    17    8    9 1   
    18    8   49 1   
    19    8   82 1   
    20    9   10 1   
    21    9   17 1   
    22    9   50 1   
    23   10   11 1   
    24   10   51 1   
    25   10   52 1   
    26   11   12 ar  
    27   11   16 ar  
    28   12   13 ar  
    29   12   53 1   
    30   13   14 ar  
    31   13   54 1   
    32   14   15 ar  
    33   14   55 1   
    34   15   16 ar  
    35   15   56 1   
    36   16   57 1   
    37   17   18 1   
    38   17   19 1   
    39   17   58 1   
    40   18   59 1   
    41   19   20 1   
    42   19   60 1   
    43   19   61 1   
    44   20   21 1   
    45   20   28 1   
    46   20   62 1   
    47   21   22 1   
    48   21   63 1   
    49   21   64 1   
    50   22   23 ar  
    51   22   27 ar  
    52   23   24 ar  
    53   23   65 1   
    54   24   25 ar  
    55   24   66 1   
    56   25   26 ar  
    57   25   67 1   
    58   26   27 ar  
    59   26   68 1   
    60   27   69 1   
    61   28   29 2   
    62   28   30 1   
    63   30   31 1   
    64   30   70 1   
    65   30   83 1   
    66   31   32 1   
    67   31   35 1   
    68   31   71 1   
    69   32   33 1   
    70   32   34 1   
    71   32   72 1   
    72   33   73 1   
    73   33   74 1   
    74   33   75 1   
    75   34   76 1   
    76   34   77 1   
    77   34   78 1   
    78   35   36 1   
    79   35   39 2   
    80   36   37 1   
    81   36   79 1   
    82   37   38 2   
    83   37   80 1   
    84   38   39 1   
    85   38   81 1   
@<TRIPOS>SUBSTRUCTURE
     1 IM1         1 TEMP              0 ****  ****    0 ROOT
