@<TRIPOS>MOLECULE
IM2
   39    37     1     0     0
SMALL
bcc


@<TRIPOS>ATOM
      1 C7         -0.7820   -2.0890    0.1500 c         1 IM2      0.578900
      2 C2          1.8430    1.2260    4.9260 c3        1 IM2     -0.075400
      3 C6          0.4590   -1.5660   -0.4970 c3        1 IM2     -0.245400
      4 C5          1.9070   -0.4400    6.6980 c1        1 IM2      0.151900
      5 C3          1.5450   -0.1660    4.4410 c2        1 IM2      0.230800
      6 O7         -1.9270   -1.8510   -0.2480 o         1 IM2     -0.571100
      7 C61         0.2540   -0.3770   -1.4300 c3        1 IM2      0.160100
      8 O62        -0.5720   -0.7080   -2.5320 oh        1 IM2     -0.610800
      9 C62        -0.2840    0.8250   -0.6750 c3        1 IM2     -0.140100
     10 N4          1.5550   -1.0280    5.4910 nh        1 IM2     -0.486800
     11 C31         1.3280   -0.6110    2.9390 c         1 IM2      0.902600
     12 O31         1.7540    0.2090    2.1040 o         1 IM2     -0.715800
     13 O32         0.7880   -1.7240    2.8090 o         1 IM2     -0.715800
     14 C22         0.5420    2.9410    3.1380 c3        1 IM2     -0.080300
     15 C23        -0.8390    3.4650    2.7550 c3        1 IM2      0.168800
     16 N24        -1.7520    2.5390    2.1460 n3        1 IM2     -0.920800
     17 C25        -4.8500    4.4170    2.0200 c1        1 IM2      0.194300
     18 N26        -5.6570    5.1970    2.3160 n1        1 IM2     -0.394800
     19 C1          2.1290    1.0280    6.4300 c3        1 IM2     -0.234300
     20 H71        -0.6020   -2.7230    1.0500 h4        1 IM2      0.020200
     21 H61A        0.9220   -2.4100   -1.0740 hc        1 IM2      0.091700
     22 H51         1.1730   -1.2640    0.3210 hc        1 IM2      0.091700
     23 H61         1.2440   -0.1170   -1.9070 h1        1 IM2      0.068700
     24 HO6        -1.4460   -0.9300   -2.1830 ho        1 IM2      0.419000
     25 H621       -0.3530    1.7040   -1.3580 hc        1 IM2      0.045367
     26 H622        0.3960    1.0690    0.1780 hc        1 IM2      0.045367
     27 H623       -1.3050    0.5990   -0.2800 hc        1 IM2      0.045367
     28 H41         1.3260   -2.0000    5.3870 hn        1 IM2      0.510800
     29 H221        2.7030    1.6650    4.3620 h1        1 IM2      0.154700
     30 H222        1.2600    3.7910    3.2230 h1        1 IM2      0.098200
     31 H231        0.9420    2.2230    2.3750 h1        1 IM2      0.098200
     32 H232       -0.6850    4.3210    2.0340 h1        1 IM2      0.067200
     33 H241       -1.3360    3.8870    3.6780 h1        1 IM2      0.067200
     34 H25        -1.9600    1.7730    2.7560 hn        1 IM2      0.363300
     35 H26        -4.1020    3.6980    1.7500 ha        1 IM2      0.199500
     36 H11         1.4430    1.6390    7.0770 hc        1 IM2      0.134200
     37 H12         3.1810    1.3090    6.6980 hc        1 IM2      0.134200
     38 H242       -1.3860    2.1790    1.2840 hn        1 IM2      0.363300
     39 S21         0.3610    2.1610    4.7170 ss        1 IM2     -0.215200
@<TRIPOS>BOND
     1    1    3 1   
     2    1    6 2   
     3    1   20 1   
     4    2    5 1   
     5    2   19 1   
     6    2   29 1   
     7    2   39 1   
     8    3    7 1   
     9    3   21 1   
    10    3   22 1   
    11    4   10 3   
    12    4   19 1   
    13    5   10 1   
    14    5   11 2   
    15    7    8 1   
    16    7    9 1   
    17    7   23 1   
    18    8   24 1   
    19    9   25 1   
    20    9   26 1   
    21    9   27 1   
    22   10   28 1   
    23   11   12 1   
    24   11   13 1   
    25   14   15 1   
    26   14   30 1   
    27   14   31 1   
    28   14   39 1   
    29   15   16 1   
    30   15   32 1   
    31   15   33 1   
    32   16   34 1   
    33   16   38 1   
    34   17   18 3   
    35   17   35 1   
    36   19   36 1   
    37   19   37 1   
@<TRIPOS>SUBSTRUCTURE
     1 IM2         1 TEMP              0 ****  ****    0 ROOT
