@<TRIPOS>MOLECULE
IM2
   38    34     1     0     0
SMALL
bcc


@<TRIPOS>ATOM
      1 C7         -3.1600   -1.1120   -1.7710 c1        1 IM2      0.187000
      2 C2         -0.3200    0.0530    0.7630 c1        1 IM2     -0.420000
      3 C6         -1.7470   -1.7250   -1.4350 c2        1 IM2     -0.186000
      4 C5         -1.5290   -1.6530   -0.0960 c3        1 IM2     -0.019000
      5 C3         -1.6890    0.1910    1.1880 c1        1 IM2      0.004000
      6 O7         -3.2370   -0.0790   -2.4040 o         1 IM2     -0.300000
      7 C61        -1.7070   -3.2370   -1.8950 c3        1 IM2      0.044000
      8 O62        -0.4110   -3.7150   -1.8110 oh        1 IM2     -0.312000
      9 C62        -2.1850   -3.3410   -3.3070 c3        1 IM2     -0.259000
     10 N4         -2.4820   -0.5630    0.5730 n2        1 IM2     -0.259000
     11 C31        -2.1800    1.5140    1.7510 c2        1 IM2      0.380000
     12 O31        -2.4310    2.4730    0.9760 o         1 IM2     -0.554500
     13 O32        -2.3710    1.6390    2.9980 o         1 IM2     -0.554500
     14 S21         0.6110    1.4970    0.2770 s         1 IM2      0.195000
     15 C22         2.0710    1.6350    1.2870 c3        1 IM2     -0.331000
     16 C23         2.8420    2.9350    0.9070 c3        1 IM2     -0.043000
     17 N24         4.0630    3.0190    1.6810 n3        1 IM2     -0.344000
     18 C25         4.5420    4.2980    2.1270 c2        1 IM2      0.041000
     19 N26         5.6060    4.3700    2.8930 n1        1 IM2     -0.341000
     20 C1         -0.0520   -1.1370    0.2070 c3        1 IM2     -0.091000
     21 H71        -3.9740   -1.5280   -1.4120 ha        1 IM2      0.100000
     22 H61A       -1.0480   -1.2180   -1.9090 ha        1 IM2      0.137000
     23 H51        -1.6730   -2.5280    0.3180 h1        1 IM2      0.087000
     24 H61        -2.2870   -3.7680   -1.3150 h1        1 IM2      0.064000
     25 HO6        -0.4120   -4.6020   -1.9390 ho        1 IM2      0.190000
     26 H621       -3.1560   -3.2180   -3.3330 hc        1 IM2      0.086333
     27 H622       -1.9580   -4.2290   -3.6660 hc        1 IM2      0.086333
     28 H623       -1.7550   -2.6510   -3.8470 hc        1 IM2      0.086333
     29 H41        -3.3780   -0.6640    0.7500 hn        1 IM2      0.192000
     30 H221        2.6490    0.8570    1.1350 h1        1 IM2      0.121000
     31 H222        1.8140    1.6710    2.2240 h1        1 IM2      0.121000
     32 H231        3.0630    2.9170   -0.0540 h1        1 IM2      0.112500
     33 H232        2.2790    3.7170    1.0980 h1        1 IM2      0.112500
     34 H241        4.5350    2.2710    1.8620 hn        1 IM2      0.161000
     35 H25         4.0710    5.1240    1.8570 h5        1 IM2      0.228000
     36 H26         6.0320    3.6220    3.1380 DU        1 IM2      0.101000
     37 H11         0.4780   -1.1200   -0.6150 hc        1 IM2      0.088000
     38 H12         0.4870   -1.7140    0.7990 hc        1 IM2      0.088000
@<TRIPOS>BOND
     1    1    6 1   
     2    1   21 1   
     3    2    5 1   
     4    2   20 1   
     5    3    4 1   
     6    3    7 1   
     7    3   22 1   
     8    4   10 1   
     9    4   20 1   
    10    4   23 1   
    11    5   11 1   
    12    7    8 1   
    13    7    9 1   
    14    7   24 1   
    15    8   25 1   
    16    9   26 1   
    17    9   27 1   
    18    9   28 1   
    19   10   29 1   
    20   11   12 1   
    21   11   13 1   
    22   14   15 1   
    23   15   16 1   
    24   15   30 1   
    25   15   31 1   
    26   16   17 1   
    27   16   32 1   
    28   16   33 1   
    29   17   18 1   
    30   17   34 1   
    31   18   19 1   
    32   18   35 1   
    33   20   37 1   
    34   20   38 1   
@<TRIPOS>SUBSTRUCTURE
     1 IM2         1 TEMP              0 ****  ****    0 ROOT
