@<TRIPOS>MOLECULE
IM2
   39    37     1     0     0
SMALL
bcc


@<TRIPOS>ATOM
      1 C7         -1.1240   -0.2830   -1.3000 c         1 IM2      0.575700
      2 C2          0.4940    0.5480    2.9040 ce        1 IM2     -0.355500
      3 C6          3.3300   -0.0360    0.8470 c2        1 IM2     -0.336200
      4 C5          2.7760    0.3660    2.1660 c3        1 IM2      0.249700
      5 C3          1.0790   -0.6210    3.3820 cf        1 IM2      0.135800
      6 O7         -0.7950    0.4740   -0.3870 o         1 IM2     -0.546100
      7 C61         2.6920   -0.6830   -0.1470 c2        1 IM2      0.129900
      8 O62         1.3840   -1.0970   -0.1290 oh        1 IM2     -0.523100
      9 C62         3.3500   -1.0670   -1.4270 c3        1 IM2     -0.064900
     10 N4          2.3880   -0.7680    3.0370 nu        1 IM2     -0.705000
     11 C31         0.1480   -1.4560    4.2220 c         1 IM2      0.746800
     12 O31         0.3810   -2.5560    4.7190 o         1 IM2     -0.603500
     13 O32        -1.0140   -0.8330    4.3430 os        1 IM2     -0.409900
     14 C22        -1.1820    1.9540    4.2150 c2        1 IM2     -0.977200
     15 C23        -2.4950    2.4850    4.6940 c3        1 IM2      0.256000
     16 N24        -3.4480    2.6720    3.6180 n8        1 IM2     -0.929800
     17 C25        -4.3370    6.8620    4.3710 c1        1 IM2      0.205300
     18 N26        -4.2190    5.7440    4.0840 n1        1 IM2     -0.389800
     19 C1          1.4980    1.2840    2.0780 c3        1 IM2      0.016800
     20 H71        -0.7470   -1.3260   -1.3600 h4        1 IM2     -0.013300
     21 H61A       -1.8100    0.0400   -2.1110 h4        1 IM2     -0.013300
     22 H51         4.3870    0.2380    0.6980 ha        1 IM2      0.142000
     23 H61         3.5790    0.9280    2.7300 h1        1 IM2      0.071700
     24 HO6         0.9170   -0.6620    0.6060 ho        1 IM2      0.446000
     25 H621        3.0880   -2.1210   -1.6910 hc        1 IM2      0.059033
     26 H622        4.4590   -0.9750   -1.3400 hc        1 IM2      0.059033
     27 H623        2.9910   -0.3980   -2.2480 hc        1 IM2      0.059033
     28 H41         2.8470   -1.6440    2.9910 hn        1 IM2      0.457800
     29 H221       -3.2300   -0.3430    3.2940 ha        1 IM2      0.011000
     30 H222       -0.3420    2.5400    4.6120 h4        1 IM2      0.168000
     31 H231       -3.2960   -0.1630    3.9480 ha        1 IM2      0.011000
     32 H232       -2.9500    1.7560    5.4280 h1        1 IM2      0.027700
     33 H241       -2.3030    3.4410    5.2660 h1        1 IM2      0.027700
     34 H25        -4.3300    2.9650    3.9890 hn        1 IM2      0.352300
     35 H26        -4.4460    7.8920    4.6360 ha        1 IM2      0.184500
     36 H11         1.7320    2.2890    2.5050 hc        1 IM2      0.063200
     37 H12         1.1590    1.4120    1.0200 hc        1 IM2      0.063200
     38 H242       -3.1230    3.3710    2.9780 hn        1 IM2      0.352300
     39 S21        -1.0980    0.7430    3.3270 sx        1 IM2      0.994100
@<TRIPOS>BOND
     1    1    6 2   
     2    1   20 1   
     3    1   21 1   
     4    2    5 2   
     5    2   19 1   
     6    2   39 1   
     7    3    4 1   
     8    3    7 2   
     9    3   22 1   
    10    4   10 1   
    11    4   19 1   
    12    4   23 1   
    13    5   10 1   
    14    5   11 1   
    15    7    8 1   
    16    7    9 1   
    17    8   24 1   
    18    9   25 1   
    19    9   26 1   
    20    9   27 1   
    21   10   28 1   
    22   11   12 2   
    23   11   13 1   
    24   13   39 1   
    25   14   15 1   
    26   14   30 1   
    27   14   39 2   
    28   15   16 1   
    29   15   32 1   
    30   15   33 1   
    31   16   34 1   
    32   16   38 1   
    33   17   18 3   
    34   17   35 1   
    35   19   36 1   
    36   19   37 1   
    37   29   31 1   
@<TRIPOS>SUBSTRUCTURE
     1 IM2         1 TEMP              0 ****  ****    0 ROOT
