@<TRIPOS>MOLECULE
IM2
   38    38     1     0     0
SMALL
bcc


@<TRIPOS>ATOM
      1 C7         -2.4600    2.4570    0.3920 c         1 IM2      0.577900
      2 C2          0.4740    0.5670   -0.8670 c2        1 IM2     -0.200600
      3 C6         -2.9720    1.3270   -0.4670 c3        1 IM2     -0.236700
      4 C5         -1.9090    0.2530   -0.7210 c3        1 IM2      0.167500
      5 C3          0.1580   -0.0120    0.3350 ce        1 IM2      0.084800
      6 O7         -3.1830    3.3990    0.7280 o         1 IM2     -0.555100
      7 C61        -4.2880    0.7690    0.0950 c3        1 IM2      0.148100
      8 O62        -4.0970   -0.1280    1.1730 oh        1 IM2     -0.597800
      9 C62        -5.1240    0.1300   -1.0020 c3        1 IM2     -0.130100
     10 N4         -1.2240   -0.2920    0.4620 nh        1 IM2     -0.700000
     11 C31         1.0980   -0.3140    1.4950 c         1 IM2      0.914800
     12 O31         1.5540   -1.4780    1.6310 o         1 IM2     -0.814300
     13 O32         1.3930    0.6630    2.2430 o         1 IM2     -0.814300
     14 C22         2.8490    1.8430   -0.3420 c3        1 IM2     -0.076300
     15 C23         4.1980    1.1920   -0.0450 c3        1 IM2      0.211800
     16 N24         4.1610    0.0770    0.8650 nh        1 IM2     -0.819200
     17 C25         4.3110   -1.2370    0.4100 c2        1 IM2      0.624100
     18 N26         5.0240   -1.6080   -0.6120 n2        1 IM2     -0.894100
     19 C1         -0.7850    0.7880   -1.6620 c3        1 IM2     -0.019200
     20 H71        -1.3860    2.4100    0.6810 h4        1 IM2      0.039200
     21 H61A       -3.2180    1.7840   -1.4710 hc        1 IM2      0.078700
     22 H51        -2.4240   -0.6200   -1.2170 h1        1 IM2      0.049700
     23 H61        -4.8650    1.6230    0.5620 h1        1 IM2      0.086700
     24 HO6        -3.7140   -0.9410    0.8180 ho        1 IM2      0.412000
     25 H621       -4.5590   -0.6910   -1.5070 hc        1 IM2      0.040700
     26 H622       -6.0530   -0.3020   -0.5590 hc        1 IM2      0.040700
     27 H623       -5.4070    0.8930   -1.7640 hc        1 IM2      0.040700
     28 H41        -1.6220   -0.0280    1.3400 hn        1 IM2      0.400800
     29 H221        3.0380    2.8670   -0.7490 h1        1 IM2      0.082200
     30 H222        2.2440    1.9420    0.5980 h1        1 IM2      0.082200
     31 H231        4.6890    0.9040   -1.0160 h1        1 IM2      0.045200
     32 H232        4.8460    1.9810    0.4430 h1        1 IM2      0.045200
     33 H241        3.4340    0.1550    1.5590 hn        1 IM2      0.450800
     34 H25         3.7800   -1.9520    1.0960 h5        1 IM2      0.009800
     35 H26         5.0500   -2.6010   -0.7060 hn        1 IM2      0.363400
     36 H11        -0.9280    1.8680   -1.9070 hc        1 IM2      0.039700
     37 H12        -0.7790    0.2060   -2.6150 hc        1 IM2      0.039700
     38 S21         1.9320    0.9680   -1.5800 ss        1 IM2     -0.218700
@<TRIPOS>BOND
     1    1    3 1   
     2    1    6 2   
     3    1   20 1   
     4    2    5 2   
     5    2   19 1   
     6    2   38 1   
     7    3    4 1   
     8    3    7 1   
     9    3   21 1   
    10    4   10 1   
    11    4   19 1   
    12    4   22 1   
    13    5   10 1   
    14    5   11 1   
    15    7    8 1   
    16    7    9 1   
    17    7   23 1   
    18    8   24 1   
    19    9   25 1   
    20    9   26 1   
    21    9   27 1   
    22   10   28 1   
    23   11   12 1   
    24   11   13 1   
    25   14   15 1   
    26   14   29 1   
    27   14   30 1   
    28   14   38 1   
    29   15   16 1   
    30   15   31 1   
    31   15   32 1   
    32   16   17 1   
    33   16   33 1   
    34   17   18 2   
    35   17   34 1   
    36   18   35 1   
    37   19   36 1   
    38   19   37 1   
@<TRIPOS>SUBSTRUCTURE
     1 IM2         1 TEMP              0 ****  ****    0 ROOT
