@<TRIPOS>MOLECULE
IM3
   22    22     1     0     0
SMALL
bcc


@<TRIPOS>ATOM
      1 O           6.3860   -2.4600   -1.7540 o         1 IM3     -0.814800
      2 C           6.5440   -1.7500   -0.7260 c         1 IM3      0.839300
      3 OXT         7.5950   -1.6360   -0.0480 o         1 IM3     -0.814800
      4 CA          5.2820   -1.0100   -0.2050 ce        1 IM3      0.375300
      5 N           5.0230    0.2070   -0.5000 n2        1 IM3     -0.790100
      6 CB          4.4680   -1.9490    0.6570 c3        1 IM3     -0.153400
      7 CG          3.1120   -1.4670    1.0290 ca        1 IM3     -0.049300
      8 CD2         2.7430   -1.3600    2.3730 ca        1 IM3     -0.136000
      9 CE2         1.4550   -0.9240    2.7110 ca        1 IM3      0.100100
     10 O14         1.1380   -0.8500    4.0510 oh        1 IM3     -0.505100
     11 CZ          0.5370   -0.5930    1.6960 ca        1 IM3      0.010100
     12 OH         -0.7220   -0.1840    2.1060 oh        1 IM3     -0.530100
     13 CE1         0.9080   -0.6980    0.3520 ca        1 IM3     -0.169000
     14 CD1         2.1890   -1.1330    0.0270 ca        1 IM3     -0.129000
     15 HN          4.1710    0.5650   -0.1100 hn        1 IM3      0.333400
     16 HB1         4.3660   -2.9130    0.0820 hc        1 IM3      0.077700
     17 HB2         5.0780   -2.1670    1.5750 hc        1 IM3      0.077700
     18 HD1         2.4910   -1.2180   -1.0290 ha        1 IM3      0.156000
     19 HE1         0.1920   -0.4340   -0.4370 ha        1 IM3      0.124000
     20 HOH        -1.1720    0.1740    1.3290 ho        1 IM3      0.418000
     21 H14         0.2480   -0.4750    4.1200 ho        1 IM3      0.425000
     22 HD2         3.4520   -1.6100    3.1760 ha        1 IM3      0.152000
@<TRIPOS>BOND
     1    1    2 1   
     2    2    3 1   
     3    2    4 1   
     4    4    5 2   
     5    4    6 1   
     6    5   15 1   
     7    6    7 1   
     8    6   16 1   
     9    6   17 1   
    10    7    8 ar  
    11    7   14 ar  
    12    8    9 ar  
    13    8   22 1   
    14    9   10 1   
    15    9   11 ar  
    16   10   21 1   
    17   11   12 1   
    18   11   13 ar  
    19   12   20 1   
    20   13   14 ar  
    21   13   19 1   
    22   14   18 1   
@<TRIPOS>SUBSTRUCTURE
     1 IM3         1 TEMP              0 ****  ****    0 ROOT
