@<TRIPOS>MOLECULE
IM3
   22    22     1     0     0
SMALL
bcc


@<TRIPOS>ATOM
      1 O           1.0920    1.5510    0.3110 o         1 IM3     -0.827300
      2 C           1.2740    0.3160    0.1120 c         1 IM3      0.782300
      3 OXT         0.9380   -0.5930    0.9200 o         1 IM3     -0.827300
      4 CA          1.9560   -0.1330   -1.2000 ce        1 IM3      0.354300
      5 N           2.2750   -1.3500   -1.4690 n2        1 IM3     -0.805100
      6 CB          2.2140    0.9750   -2.1950 c3        1 IM3     -0.082400
      7 CG          3.5610    1.5840   -2.0080 ca        1 IM3     -0.041300
      8 CD2         3.8130    2.3290   -0.8490 ca        1 IM3     -0.158000
      9 CE2         5.0620    2.9250   -0.6700 ca        1 IM3      0.032100
     10 O14         5.3810    3.6760    0.4480 oh        1 IM3     -0.539100
     11 CZ          6.0690    2.7860   -1.6470 ca        1 IM3      0.079100
     12 OH          7.3140    3.3680   -1.5210 oh        1 IM3     -0.516100
     13 CE1         5.8120    2.0400   -2.8020 ca        1 IM3     -0.149000
     14 CD1         4.5630    1.4440   -2.9730 ca        1 IM3     -0.134000
     15 HN          2.0370   -1.9870   -0.7310 hn        1 IM3      0.388400
     16 HB1         1.4300    1.7650   -2.0170 hc        1 IM3      0.058700
     17 HB2         2.1050    0.6030   -3.2480 hc        1 IM3      0.058700
     18 HD1         4.3700    0.8470   -3.8760 ha        1 IM3      0.129000
     19 HE1         6.6010    1.9300   -3.5570 ha        1 IM3      0.132000
     20 HOH         7.3530    3.7770   -0.6440 ho        1 IM3      0.425000
     21 H14         4.6500    3.5760    1.0750 ho        1 IM3      0.434000
     22 HD2         3.0110    2.4170   -0.0880 ha        1 IM3      0.205000
@<TRIPOS>BOND
     1    1    2 1   
     2    2    3 1   
     3    2    4 1   
     4    4    5 2   
     5    4    6 1   
     6    5   15 1   
     7    6    7 1   
     8    6   16 1   
     9    6   17 1   
    10    7    8 ar  
    11    7   14 ar  
    12    8    9 ar  
    13    8   22 1   
    14    9   10 1   
    15    9   11 ar  
    16   10   21 1   
    17   11   12 1   
    18   11   13 ar  
    19   12   20 1   
    20   13   14 ar  
    21   13   19 1   
    22   14   18 1   
@<TRIPOS>SUBSTRUCTURE
     1 IM3         1 TEMP              0 ****  ****    0 ROOT
