@<TRIPOS>MOLECULE
IM3
   22    22     1     0     0
SMALL
bcc


@<TRIPOS>ATOM
      1 O           1.0690    1.6040    0.2710 o         1 IM3     -0.827300
      2 C           1.2240    0.3670    0.0650 c         1 IM3      0.782300
      3 OXT         0.8530   -0.5400    0.8600 o         1 IM3     -0.827300
      4 CA          1.9150   -0.0890   -1.2400 ce        1 IM3      0.354300
      5 N           2.2100   -1.3110   -1.5130 n2        1 IM3     -0.805100
      6 CB          2.2150    1.0200   -2.2230 c3        1 IM3     -0.082400
      7 CG          3.5720    1.5950   -2.0110 ca        1 IM3     -0.041300
      8 CD2         3.8250    2.3250   -0.8430 ca        1 IM3     -0.158000
      9 CE2         5.0850    2.8890   -0.6410 ca        1 IM3      0.032100
     10 O14         5.4050    3.6250    0.4870 oh        1 IM3     -0.539100
     11 CZ          6.1030    2.7330   -1.6030 ca        1 IM3      0.079100
     12 OH          7.3600    3.2850   -1.4550 oh        1 IM3     -0.516100
     13 CE1         5.8460    2.0020   -2.7680 ca        1 IM3     -0.149000
     14 CD1         4.5860    1.4380   -2.9620 ca        1 IM3     -0.134000
     15 HN          1.9450   -1.9480   -0.7840 hn        1 IM3      0.388400
     16 HB1         1.4480    1.8270   -2.0510 hc        1 IM3      0.058700
     17 HB2         2.1130    0.6570   -3.2800 hc        1 IM3      0.058700
     18 HD1         4.3920    0.8520   -3.8730 ha        1 IM3      0.129000
     19 HE1         6.6430    1.8790   -3.5120 ha        1 IM3      0.132000
     20 HOH         7.3940    3.6860   -0.5740 ho        1 IM3      0.425000
     21 H14         4.6620    3.5380    1.1020 ho        1 IM3      0.434000
     22 HD2         3.0130    2.4270   -0.0930 ha        1 IM3      0.205000
@<TRIPOS>BOND
     1    1    2 1   
     2    2    3 1   
     3    2    4 1   
     4    4    5 2   
     5    4    6 1   
     6    5   15 1   
     7    6    7 1   
     8    6   16 1   
     9    6   17 1   
    10    7    8 ar  
    11    7   14 ar  
    12    8    9 ar  
    13    8   22 1   
    14    9   10 1   
    15    9   11 ar  
    16   10   21 1   
    17   11   12 1   
    18   11   13 ar  
    19   12   20 1   
    20   13   14 ar  
    21   13   19 1   
    22   14   18 1   
@<TRIPOS>SUBSTRUCTURE
     1 IM3         1 TEMP              0 ****  ****    0 ROOT
