@<TRIPOS>MOLECULE
IM3
   22    18     1     0     0
SMALL
bcc


@<TRIPOS>ATOM
      1 O          -1.4320    2.0620    4.0620 o         1 IM3     -0.560500
      2 C          -1.7190    1.2340    3.1580 c1        1 IM3      0.321000
      3 OXT        -2.6320    0.3880    3.3460 o         1 IM3     -0.560500
      4 CA         -0.9590    1.2490    1.8500 c1        1 IM3     -0.079000
      5 N          -1.3860    1.9780    0.8530 n1        1 IM3     -0.272000
      6 CB          0.2970    0.4180    1.6960 c3        1 IM3     -0.096000
      7 CG          0.3570   -0.1510    0.2960 c2        1 IM3     -0.030000
      8 CD2         1.2450    0.3760   -0.6280 c1        1 IM3     -0.135000
      9 CE2         1.3480   -0.1890   -1.8900 c1        1 IM3      0.002500
     10 O14         2.2300    0.3640   -2.8380 oh        1 IM3     -0.276500
     11 CZ          0.5630   -1.2800   -2.2280 c1        1 IM3      0.002500
     12 OH          0.7040   -1.8830   -3.4910 oh        1 IM3     -0.276500
     13 CE1        -0.3250   -1.8060   -1.3040 c1        1 IM3     -0.174000
     14 CD1        -0.4290   -1.2420   -0.0420 c2        1 IM3     -0.115000
     15 HN         -2.1440    2.4790    0.9460 DU        1 IM3      0.144000
     16 HB1         1.0810    0.9810    1.8530 hc        1 IM3      0.100000
     17 HB2         0.2860   -0.3130    2.3460 hc        1 IM3      0.100000
     18 HD1        -1.0540   -1.6130    0.6090 ha        1 IM3      0.202000
     19 HE1        -0.8800   -2.5740   -1.5420 ha        1 IM3      0.124000
     20 HOH        -0.0100   -1.6990   -3.9880 ho        1 IM3      0.217000
     21 H14         3.0570    0.0810   -2.6740 ho        1 IM3      0.217000
     22 HD2         1.8020    1.1400   -0.3890 ha        1 IM3      0.146000
@<TRIPOS>BOND
     1    1    2 1   
     2    2    3 1   
     3    4    5 1   
     4    4    6 1   
     5    6    7 1   
     6    6   16 1   
     7    6   17 1   
     8    7    8 1   
     9    7   14 1   
    10    8   22 1   
    11    9   10 1   
    12    9   11 1   
    13   10   21 1   
    14   11   12 1   
    15   12   20 1   
    16   13   14 1   
    17   13   19 1   
    18   14   18 1   
@<TRIPOS>SUBSTRUCTURE
     1 IM3         1 TEMP              0 ****  ****    0 ROOT
