@<TRIPOS>MOLECULE
IM3
   22    22     1     0     0
SMALL
bcc


@<TRIPOS>ATOM
      1 O           1.0620    1.5760    0.2600 o         1 IM3     -0.827300
      2 C           1.2530    0.3380    0.0930 c         1 IM3      0.782300
      3 OXT         0.9060   -0.5540    0.9160 o         1 IM3     -0.827300
      4 CA          1.9620   -0.1390   -1.1950 ce        1 IM3      0.354300
      5 N           2.2920   -1.3600   -1.4280 n2        1 IM3     -0.805100
      6 CB          2.2330    0.9470   -2.2110 c3        1 IM3     -0.082400
      7 CG          3.5740    1.5670   -2.0130 ca        1 IM3     -0.041300
      8 CD2         3.8010    2.3400   -0.8680 ca        1 IM3     -0.158000
      9 CE2         5.0430    2.9460   -0.6790 ca        1 IM3      0.032100
     10 O14         5.3380    3.7260    0.4260 oh        1 IM3     -0.539100
     11 CZ          6.0690    2.7900   -1.6330 ca        1 IM3      0.079100
     12 OH          7.3090    3.3810   -1.4980 oh        1 IM3     -0.516100
     13 CE1         5.8370    2.0150   -2.7750 ca        1 IM3     -0.149000
     14 CD1         4.5950    1.4090   -2.9560 ca        1 IM3     -0.134000
     15 HN          2.0430   -1.9810   -0.6800 hn        1 IM3      0.388400
     16 HB1         1.4430    1.7360   -2.0670 hc        1 IM3      0.058700
     17 HB2         2.1470    0.5490   -3.2560 hc        1 IM3      0.058700
     18 HD1         4.4210    0.7900   -3.8480 ha        1 IM3      0.129000
     19 HE1         6.6410    1.8920   -3.5130 ha        1 IM3      0.132000
     20 HOH         7.3290    3.8110   -0.6310 ho        1 IM3      0.425000
     21 H14         4.5950    3.6370    1.0410 ho        1 IM3      0.434000
     22 HD2         2.9840    2.4420   -0.1240 ha        1 IM3      0.205000
@<TRIPOS>BOND
     1    1    2 1   
     2    2    3 1   
     3    2    4 1   
     4    4    5 2   
     5    4    6 1   
     6    5   15 1   
     7    6    7 1   
     8    6   16 1   
     9    6   17 1   
    10    7    8 ar  
    11    7   14 ar  
    12    8    9 ar  
    13    8   22 1   
    14    9   10 1   
    15    9   11 ar  
    16   10   21 1   
    17   11   12 1   
    18   11   13 ar  
    19   12   20 1   
    20   13   14 ar  
    21   13   19 1   
    22   14   18 1   
@<TRIPOS>SUBSTRUCTURE
     1 IM3         1 TEMP              0 ****  ****    0 ROOT
