@<TRIPOS>MOLECULE
IM4
   27    28     1     0     0
SMALL
bcc


@<TRIPOS>ATOM
      1 C5          1.8500    1.6380    0.4940 ca        1 IM4     -0.077000
      2 C6          3.0280    1.2010   -0.1110 ca        1 IM4     -0.243300
      3 C1          3.2060   -0.1870   -0.2950 ca        1 IM4      0.500300
      4 CL7         4.6490   -0.7220   -1.0380 cl        1 IM4     -0.140000
      5 N2          2.2950   -1.1150    0.0890 nb        1 IM4     -0.649000
      6 C3          1.1690   -0.6670    0.6690 ca        1 IM4      0.438200
      7 C4          0.8940    0.6990    0.8940 ca        1 IM4     -0.260600
      8 C8         -0.3710    1.1170    1.5780 c3        1 IM4      0.252100
      9 N9         -1.5080    1.3910    0.7300 nh        1 IM4     -0.694600
     10 C13        -1.4470    2.5400   -0.1800 c3        1 IM4      0.156800
     11 C12        -2.3700    2.1720   -1.3790 c3        1 IM4      0.180800
     12 N11        -2.7040    0.7740   -1.1660 nh        1 IM4     -0.837200
     13 C10        -2.2130    0.3330    0.0730 c2        1 IM4      0.856100
     14 N14        -2.3110   -0.8880    0.6470 n2        1 IM4     -0.782100
     15 N15        -3.1560   -1.8620    0.1530 no        1 IM4      0.480400
     16 O16        -3.9980   -1.6280   -0.6930 o         1 IM4     -0.235000
     17 O17        -3.0390   -2.9560    0.6360 o         1 IM4     -0.235000
     18 H5          1.6840    2.7130    0.6630 ha        1 IM4      0.139000
     19 H6          3.7990    1.9130   -0.4330 ha        1 IM4      0.159000
     20 H3          0.4470   -1.4510    0.9730 h4        1 IM4      0.056100
     21 H8         -0.6750    0.3200    2.3180 h1        1 IM4      0.087200
     22 H8A        -0.1800    2.0730    2.1510 h1        1 IM4      0.087200
     23 H13        -1.8330    3.4380    0.3700 h1        1 IM4      0.069700
     24 H7         -0.3990    2.7410   -0.5290 h1        1 IM4      0.069700
     25 H12        -3.2850    2.8220   -1.3930 h1        1 IM4      0.068200
     26 H9         -1.8300    2.2780   -2.3570 h1        1 IM4      0.068200
     27 H10        -3.5300    0.3750   -1.5570 hn        1 IM4      0.483800
@<TRIPOS>BOND
     1    1    2 ar  
     2    1    7 ar  
     3    1   18 1   
     4    2    3 ar  
     5    2   19 1   
     6    3    4 1   
     7    3    5 ar  
     8    5    6 ar  
     9    6    7 ar  
    10    6   20 1   
    11    7    8 1   
    12    8    9 1   
    13    8   21 1   
    14    8   22 1   
    15    9   10 1   
    16    9   13 1   
    17   10   11 1   
    18   10   23 1   
    19   10   24 1   
    20   11   12 1   
    21   11   25 1   
    22   11   26 1   
    23   12   13 1   
    24   12   27 1   
    25   13   14 2   
    26   14   15 1   
    27   15   16 1   
    28   15   17 1   
@<TRIPOS>SUBSTRUCTURE
     1 IM4         1 TEMP              0 ****  ****    0 ROOT
