@<TRIPOS>MOLECULE
IM4
   27    24     1     0     0
SMALL
bcc


@<TRIPOS>ATOM
      1 C5          1.8050   -1.0290   -1.2860 c1        1 IM4     -0.064000
      2 C6          3.1750   -1.0800   -1.2990 c2        1 IM4     -0.173000
      3 C1          3.8840   -0.9370   -0.1190 c1        1 IM4      0.002000
      4 CL7         5.6180   -0.8740   -0.1550 cl        1 IM4      0.028000
      5 N2          3.2260   -0.7490    1.0470 n1        1 IM4     -0.127000
      6 C3          1.8440   -0.6980    1.0630 c1        1 IM4     -0.047000
      7 C4          1.1390   -0.8380   -0.1060 c2        1 IM4     -0.156000
      8 C8         -0.4050   -1.0020   -0.0600 c3        1 IM4     -0.008000
      9 N9         -1.0400    0.3190   -0.0480 n3        1 IM4     -0.256000
     10 C13        -0.4890    1.5170   -0.6030 c3        1 IM4     -0.080000
     11 C12        -1.3460    2.6750   -0.0960 c3        1 IM4     -0.076000
     12 N11        -2.3300    2.1180    0.7480 n3        1 IM4     -0.275000
     13 C10        -2.2720    0.6640    0.6230 c2        1 IM4      0.245000
     14 N14        -3.1870   -0.1800    1.0500 n1        1 IM4     -0.296000
     15 N15        -3.0140   -1.5490    0.8730 n2        1 IM4      0.496400
     16 O16        -3.4090   -2.0910   -0.1620 o         1 IM4     -0.318200
     17 O17        -2.5430   -2.2990    1.8860 o         1 IM4     -0.318200
     18 H5          1.3230   -1.1260   -2.0860 DU        1 IM4      0.162500
     19 H6          3.6350   -1.2130   -2.1150 ha        1 IM4      0.162000
     20 H3          1.3910   -0.5670    1.8680 DU        1 IM4      0.162500
     21 H8         -0.6630   -1.5050    0.7660 h1        1 IM4      0.126000
     22 H8A        -0.7040   -1.5010   -0.8540 h1        1 IM4      0.126000
     23 H13        -0.6380    1.4660   -1.6080 h1        1 IM4      0.112000
     24 H7          0.4580    1.6380   -0.1780 h1        1 IM4      0.112000
     25 H12        -0.7450    3.2510    0.5040 h1        1 IM4      0.107500
     26 H9         -1.8100    3.0260   -0.8630 h1        1 IM4      0.107500
     27 H10        -2.9010    2.5600    1.2120 hn        1 IM4      0.245000
@<TRIPOS>BOND
     1    1    2 1   
     2    1    7 1   
     3    2    3 1   
     4    2   19 1   
     5    3    4 1   
     6    5    6 1   
     7    6    7 1   
     8    7    8 1   
     9    8    9 1   
    10    8   21 1   
    11    8   22 1   
    12    9   10 1   
    13    9   13 1   
    14   10   11 1   
    15   10   23 1   
    16   10   24 1   
    17   11   12 1   
    18   11   25 1   
    19   11   26 1   
    20   12   13 1   
    21   12   27 1   
    22   13   14 1   
    23   15   16 2   
    24   15   17 2   
@<TRIPOS>SUBSTRUCTURE
     1 IM4         1 TEMP              0 ****  ****    0 ROOT
