@<TRIPOS>MOLECULE
IM4
   27    28     1     0     0
SMALL
bcc


@<TRIPOS>ATOM
      1 C5         -0.0880   -0.0710   -0.0200 ca        1 IM4     -0.077000
      2 C6          1.3020   -0.1660   -0.0790 ca        1 IM4     -0.243300
      3 C1          2.0150   -0.2580    1.1360 ca        1 IM4      0.500300
      4 CL7         3.7190   -0.3760    1.0620 cl        1 IM4     -0.140000
      5 N2          1.4210   -0.2560    2.3530 nb        1 IM4     -0.649000
      6 C3          0.0810   -0.1630    2.3830 ca        1 IM4      0.438200
      7 C4         -0.7240   -0.0710    1.2250 ca        1 IM4     -0.260600
      8 C8         -2.2100    0.0630    1.3410 c3        1 IM4      0.252100
      9 N9         -2.9740   -1.1630    1.3460 nh        1 IM4     -0.694600
     10 C13        -2.9960   -1.9830    0.1300 c3        1 IM4      0.156800
     11 C12        -3.2200   -3.4450    0.6170 c3        1 IM4      0.180800
     12 N11        -3.0890   -3.3720    2.0620 nh        1 IM4     -0.837200
     13 C10        -2.9650   -2.0370    2.4790 c2        1 IM4      0.856100
     14 N14        -2.8260   -1.5400    3.7290 n2        1 IM4     -0.782100
     15 N15        -3.0270   -2.3190    4.8520 no        1 IM4      0.480400
     16 O16        -3.5240   -3.4280    4.7970 o         1 IM4     -0.235000
     17 O17        -2.7160   -1.8240    5.9010 o         1 IM4     -0.235000
     18 H5         -0.6730    0.0130   -0.9480 ha        1 IM4      0.139000
     19 H6          1.8320   -0.1660   -1.0420 ha        1 IM4      0.159000
     20 H3         -0.3740   -0.1610    3.3940 h4        1 IM4      0.056100
     21 H8         -2.4600    0.6300    2.2860 h1        1 IM4      0.087200
     22 H8A        -2.5950    0.6600    0.4620 h1        1 IM4      0.087200
     23 H13        -3.8480   -1.6320   -0.5100 h1        1 IM4      0.069700
     24 H7         -2.0370   -1.8970   -0.4490 h1        1 IM4      0.069700
     25 H12        -2.4340   -4.1360    0.2100 h1        1 IM4      0.068200
     26 H9         -4.2320   -3.8190    0.3070 h1        1 IM4      0.068200
     27 H10        -3.5150   -4.0520    2.6540 hn        1 IM4      0.483800
@<TRIPOS>BOND
     1    1    2 ar  
     2    1    7 ar  
     3    1   18 1   
     4    2    3 ar  
     5    2   19 1   
     6    3    4 1   
     7    3    5 ar  
     8    5    6 ar  
     9    6    7 ar  
    10    6   20 1   
    11    7    8 1   
    12    8    9 1   
    13    8   21 1   
    14    8   22 1   
    15    9   10 1   
    16    9   13 1   
    17   10   11 1   
    18   10   23 1   
    19   10   24 1   
    20   11   12 1   
    21   11   25 1   
    22   11   26 1   
    23   12   13 1   
    24   12   27 1   
    25   13   14 2   
    26   14   15 1   
    27   15   16 1   
    28   15   17 1   
@<TRIPOS>SUBSTRUCTURE
     1 IM4         1 TEMP              0 ****  ****    0 ROOT
