@<TRIPOS>MOLECULE
IM5
   38    40     1     0     0
SMALL
bcc


@<TRIPOS>ATOM
      1 N1          0.2130    0.0610    0.1140 ns        1 IM5     -0.494400
      2 C2          1.5400    0.4380    0.3950 cc        1 IM5      0.445800
      3 N2          2.3730    0.9120   -0.7540 nz        1 IM5     -0.788600
      4 N3          2.1520    0.4230    1.5760 nd        1 IM5     -0.448100
      5 C4          1.3830    0.0050    2.6360 cd        1 IM5      0.098400
      6 C5          0.0100   -0.4100    2.4690 cc        1 IM5     -0.188900
      7 C6         -0.6320   -0.3940    1.1610 c         1 IM5      0.744100
      8 O6         -1.7910   -0.7230    0.8890 o         1 IM5     -0.562500
      9 N7         -0.4930   -0.7680    3.7000 na        1 IM5     -0.096100
     10 C8          0.5060   -0.5910    4.6510 cc        1 IM5     -0.106300
     11 C9          1.6830   -0.1150    4.0380 cd        1 IM5     -0.071300
     12 N1'         3.6630    1.3100    4.1410 n3        1 IM5     -0.738600
     13 C10         2.9740    0.1680    4.7120 c3        1 IM5      0.240100
     14 C2'         3.2330    2.6100    4.6480 c3        1 IM5      0.131800
     15 C3'         4.4730    3.5320    4.7600 c3        1 IM5      0.133100
     16 O3'         4.4260    4.5640    3.7900 oh        1 IM5     -0.592800
     17 C4'         5.6880    2.6460    4.4290 c3        1 IM5     -0.076700
     18 C5'         6.7200    2.6890    5.5450 c3        1 IM5      0.135400
     19 O5'         7.7770    1.8200    5.1710 oh        1 IM5     -0.603800
     20 C6'         5.1240    1.2300    4.2140 c3        1 IM5      0.174800
     21 HN1        -0.1680    0.1060   -0.8050 hn        1 IM5      0.348500
     22 HN2         3.3110    1.1750   -0.4080 hn        1 IM5      0.479133
     23 HN2A        2.4680    0.1610   -1.4460 hn        1 IM5      0.479133
     24 H8          0.3250   -0.8150    5.7070 h4        1 IM5      0.202000
     25 H10         2.7780    0.2900    5.8210 h1        1 IM5      0.057700
     26 H10A        3.6280   -0.7480    4.5870 h1        1 IM5      0.057700
     27 H2'         2.7250    2.5380    5.6490 h1        1 IM5      0.045200
     28 H2'A        2.5000    3.0400    3.9130 h1        1 IM5      0.045200
     29 H3'         4.5440    3.9730    5.7900 h1        1 IM5      0.050700
     30 HO3'        3.7680    5.2020    4.0920 ho        1 IM5      0.406000
     31 H4'         6.1680    3.0070    3.4800 hc        1 IM5      0.095700
     32 H5'         7.1000    3.7390    5.6700 h1        1 IM5      0.031200
     33 H5'A        6.2760    2.3420    6.5170 h1        1 IM5      0.031200
     34 HO5'        8.4940    1.9690    5.7980 ho        1 IM5      0.412000
     35 H6'         5.4870    0.8100    3.2370 h1        1 IM5      0.052700
     36 H6'A        5.4840    0.5470    5.0340 h1        1 IM5      0.052700
     37 HN7        -1.4160   -1.0970    3.8650 hn        1 IM5      0.338700
     38 H23         1.9320    1.7330   -1.1830 hn        1 IM5      0.479133
@<TRIPOS>BOND
     1    1    2 1   
     2    1    7 1   
     3    1   21 1   
     4    2    3 1   
     5    2    4 2   
     6    3   22 1   
     7    3   23 1   
     8    3   38 1   
     9    4    5 1   
    10    5    6 2   
    11    5   11 1   
    12    6    7 1   
    13    6    9 1   
    14    7    8 2   
    15    9   10 1   
    16    9   37 1   
    17   10   11 2   
    18   10   24 1   
    19   11   13 1   
    20   12   13 1   
    21   12   14 1   
    22   12   20 1   
    23   13   25 1   
    24   13   26 1   
    25   14   15 1   
    26   14   27 1   
    27   14   28 1   
    28   15   16 1   
    29   15   17 1   
    30   15   29 1   
    31   16   30 1   
    32   17   18 1   
    33   17   20 1   
    34   17   31 1   
    35   18   19 1   
    36   18   32 1   
    37   18   33 1   
    38   19   34 1   
    39   20   35 1   
    40   20   36 1   
@<TRIPOS>SUBSTRUCTURE
     1 IM5         1 TEMP              0 ****  ****    0 ROOT
