@<TRIPOS>MOLECULE
IM5
   38    40     1     0     0
SMALL
bcc


@<TRIPOS>ATOM
      1 N1          0.2000    0.0470    0.1300 n         1 IM5     -0.494400
      2 C2          1.5250    0.4380    0.4020 cc        1 IM5      0.445800
      3 N2          2.3410    0.9300   -0.7520 n4        1 IM5     -0.788600
      4 N3          2.1480    0.4220    1.5770 nd        1 IM5     -0.448100
      5 C4          1.3930   -0.0130    2.6410 cd        1 IM5      0.098400
      6 C5          0.0240   -0.4430    2.4830 cc        1 IM5     -0.188900
      7 C6         -0.6290   -0.4260    1.1820 c         1 IM5      0.744100
      8 O6         -1.7880   -0.7670    0.9180 o         1 IM5     -0.562500
      9 N7         -0.4630   -0.8160    3.7160 na        1 IM5     -0.096100
     10 C8          0.5420   -0.6330    4.6590 cc        1 IM5     -0.106300
     11 C9          1.7080   -0.1380    4.0390 cd        1 IM5     -0.071300
     12 N1'         3.6700    1.3120    4.1350 n3        1 IM5     -0.738600
     13 C10         3.0020    0.1570    4.7030 c3        1 IM5      0.240100
     14 C2'         3.2260    2.6020    4.6550 c3        1 IM5      0.131800
     15 C3'         4.4550    3.5410    4.7650 c3        1 IM5      0.133100
     16 O3'         4.3850    4.5790    3.8040 oh        1 IM5     -0.592800
     17 C4'         5.6780    2.6740    4.4180 c3        1 IM5     -0.076700
     18 C5'         6.7190    2.7230    5.5260 c3        1 IM5      0.135400
     19 O5'         7.7840    1.8710    5.1360 oh        1 IM5     -0.603800
     20 C6'         5.1320    1.2520    4.1960 c3        1 IM5      0.174800
     21 HN1        -0.1900    0.0930   -0.7850 hn        1 IM5      0.348500
     22 HN2         2.4390    0.1840   -1.4490 hn        1 IM5      0.479133
     23 HN2A        3.2780    1.2030   -0.4130 hn        1 IM5      0.479133
     24 H8          0.3740   -0.8670    5.7150 h4        1 IM5      0.202000
     25 H10         2.8150    0.2670    5.8140 h1        1 IM5      0.057700
     26 H10A        3.6670   -0.7490    4.5640 h1        1 IM5      0.057700
     27 H2'         2.4820    3.0280    3.9290 h1        1 IM5      0.045200
     28 H2'A        2.7270    2.5150    5.6600 h1        1 IM5      0.045200
     29 H3'         4.5270    3.9740    5.7980 h1        1 IM5      0.050700
     30 HO3'        3.7210    5.2060    4.1170 ho        1 IM5      0.406000
     31 H4'         6.1460    3.0490    3.4670 hc        1 IM5      0.095700
     32 H5'         6.2870    2.3620    6.4990 h1        1 IM5      0.031200
     33 H5'A        7.0860    3.7760    5.6560 h1        1 IM5      0.031200
     34 HO5'        8.5050    2.0260    5.7590 ho        1 IM5      0.412000
     35 H6'         5.4930    0.8450    3.2130 h1        1 IM5      0.052700
     36 H6'A        5.5090    0.5680    5.0080 h1        1 IM5      0.052700
     37 HN7        -1.3800   -1.1570    3.8880 hn        1 IM5      0.338700
     38 H23         1.8860    1.7480   -1.1720 hn        1 IM5      0.479133
@<TRIPOS>BOND
     1    1    2 1   
     2    1    7 1   
     3    1   21 1   
     4    2    3 1   
     5    2    4 2   
     6    3   22 1   
     7    3   23 1   
     8    3   38 1   
     9    4    5 1   
    10    5    6 2   
    11    5   11 1   
    12    6    7 1   
    13    6    9 1   
    14    7    8 2   
    15    9   10 1   
    16    9   37 1   
    17   10   11 2   
    18   10   24 1   
    19   11   13 1   
    20   12   13 1   
    21   12   14 1   
    22   12   20 1   
    23   13   25 1   
    24   13   26 1   
    25   14   15 1   
    26   14   27 1   
    27   14   28 1   
    28   15   16 1   
    29   15   17 1   
    30   15   29 1   
    31   16   30 1   
    32   17   18 1   
    33   17   20 1   
    34   17   31 1   
    35   18   19 1   
    36   18   32 1   
    37   18   33 1   
    38   19   34 1   
    39   20   35 1   
    40   20   36 1   
@<TRIPOS>SUBSTRUCTURE
     1 IM5         1 TEMP              0 ****  ****    0 ROOT
