@<TRIPOS>MOLECULE
IM5
   37    39     1     0     0
SMALL
bcc


@<TRIPOS>ATOM
      1 N1          4.3540    0.7960   -0.0520 n         1 IM5     -0.490400
      2 C2          3.3190    1.7470    0.1430 cc        1 IM5      0.631800
      3 N2          3.7150    3.1160    0.1340 nh        1 IM5     -0.876800
      4 N3          2.0330    1.4330    0.3850 nd        1 IM5     -0.622100
      5 C4          1.7460    0.0910    0.4980 cd        1 IM5      0.177400
      6 C5          2.7450   -0.9290    0.3480 cc        1 IM5     -0.254900
      7 C6          4.1250   -0.5880    0.0660 c         1 IM5      0.740100
      8 O6          5.0720   -1.3830   -0.0820 o         1 IM5     -0.645500
      9 N7          2.1510   -2.1720    0.5260 na        1 IM5     -0.134100
     10 C8          0.8050   -1.9710    0.7800 cc        1 IM5     -0.104300
     11 C9          0.5080   -0.5920    0.7720 cd        1 IM5     -0.144300
     12 N1'        -1.6260    0.2220   -0.1610 n3        1 IM5     -0.718600
     13 C10        -0.8080    0.0300    1.0310 c3        1 IM5      0.247100
     14 C2'        -1.9580   -1.0030   -0.8810 c3        1 IM5      0.123800
     15 C3'        -3.4810   -1.0480   -1.1600 c3        1 IM5      0.129100
     16 O3'        -3.7590   -1.0320   -2.5440 oh        1 IM5     -0.592800
     17 C4'        -4.0710    0.1770   -0.4360 c3        1 IM5     -0.121700
     18 C5'        -5.0220   -0.2570    0.6680 c3        1 IM5      0.138400
     19 O5'        -5.5780    0.9170    1.2380 oh        1 IM5     -0.600800
     20 C6'        -2.8630    0.9600    0.1110 c3        1 IM5      0.160800
     21 HN1         5.2940    1.0980   -0.1810 hn        1 IM5      0.336500
     22 HN2         4.2960    3.3570   -0.6410 hn        1 IM5      0.406800
     23 HN2A        2.9450    3.7450    0.2420 hn        1 IM5      0.406800
     24 H8          0.1330   -2.8130    0.9600 h4        1 IM5      0.171000
     25 H10        -1.3470   -0.5920    1.8100 h1        1 IM5      0.043700
     26 H10A       -0.6360    1.0560    1.4710 h1        1 IM5      0.043700
     27 H2'        -1.3930   -0.9900   -1.8540 h1        1 IM5      0.050700
     28 H2'A       -1.6500   -1.9270   -0.3190 h1        1 IM5      0.050700
     29 H3'        -3.9320   -2.0110   -0.8020 h1        1 IM5      0.077700
     30 HO3'       -3.3580   -0.2350   -2.9130 ho        1 IM5      0.407000
     31 H4'        -4.6380    0.8190   -1.1610 hc        1 IM5      0.083700
     32 H5'        -5.8380   -0.9000    0.2400 h1        1 IM5      0.024700
     33 H5'A       -4.4750   -0.8400    1.4580 h1        1 IM5      0.024700
     34 HO5'       -6.2210    0.6250    1.8940 ho        1 IM5      0.402000
     35 H6'        -3.0090    1.1780    1.2050 h1        1 IM5      0.056200
     36 H6'A       -2.7740    1.9460   -0.4230 h1        1 IM5      0.056200
     37 HN7         2.6270   -3.0360    0.4740 hn        1 IM5      0.315700
@<TRIPOS>BOND
     1    1    2 1   
     2    1    7 1   
     3    1   21 1   
     4    2    3 1   
     5    2    4 2   
     6    3   22 1   
     7    3   23 1   
     8    4    5 1   
     9    5    6 2   
    10    5   11 1   
    11    6    7 1   
    12    6    9 1   
    13    7    8 2   
    14    9   10 1   
    15    9   37 1   
    16   10   11 2   
    17   10   24 1   
    18   11   13 1   
    19   12   13 1   
    20   12   14 1   
    21   12   20 1   
    22   13   25 1   
    23   13   26 1   
    24   14   15 1   
    25   14   27 1   
    26   14   28 1   
    27   15   16 1   
    28   15   17 1   
    29   15   29 1   
    30   16   30 1   
    31   17   18 1   
    32   17   20 1   
    33   17   31 1   
    34   18   19 1   
    35   18   32 1   
    36   18   33 1   
    37   19   34 1   
    38   20   35 1   
    39   20   36 1   
@<TRIPOS>SUBSTRUCTURE
     1 IM5         1 TEMP              0 ****  ****    0 ROOT
