@<TRIPOS>MOLECULE
IM5
   38    40     1     0     0
SMALL
bcc


@<TRIPOS>ATOM
      1 N1          0.2050    0.0470    0.1270 n         1 IM5     -0.494400
      2 C2          1.5290    0.4400    0.4010 cc        1 IM5      0.445800
      3 N2          2.3460    0.9370   -0.7510 n4        1 IM5     -0.788600
      4 N3          2.1500    0.4250    1.5780 nd        1 IM5     -0.448100
      5 C4          1.3950   -0.0130    2.6400 cd        1 IM5      0.098400
      6 C5          0.0270   -0.4460    2.4790 cc        1 IM5     -0.188900
      7 C6         -0.6250   -0.4290    1.1770 c         1 IM5      0.744100
      8 O6         -1.7820   -0.7720    0.9100 o         1 IM5     -0.562500
      9 N7         -0.4620   -0.8230    3.7110 na        1 IM5     -0.096100
     10 C8          0.5420   -0.6390    4.6560 cc        1 IM5     -0.106300
     11 C9          1.7080   -0.1400    4.0380 cd        1 IM5     -0.071300
     12 N1'         3.6680    1.3120    4.1380 n3        1 IM5     -0.738600
     13 C10         3.0000    0.1560    4.7050 c3        1 IM5      0.240100
     14 C2'         3.2240    2.6010    4.6580 c3        1 IM5      0.131800
     15 C3'         4.4520    3.5410    4.7670 c3        1 IM5      0.133100
     16 O3'         4.3810    4.5790    3.8050 oh        1 IM5     -0.592800
     17 C4'         5.6760    2.6750    4.4190 c3        1 IM5     -0.076700
     18 C5'         6.7170    2.7240    5.5270 c3        1 IM5      0.135400
     19 O5'         7.7820    1.8730    5.1370 oh        1 IM5     -0.603800
     20 C6'         5.1300    1.2520    4.1990 c3        1 IM5      0.174800
     21 HN1        -0.1830    0.0940   -0.7890 hn        1 IM5      0.348500
     22 HN2         3.2820    1.2110   -0.4090 hn        1 IM5      0.479133
     23 HN2A        1.8900    1.7540   -1.1690 hn        1 IM5      0.479133
     24 H8          0.3720   -0.8740    5.7110 h4        1 IM5      0.202000
     25 H10         2.8100    0.2660    5.8160 h1        1 IM5      0.057700
     26 H10A        3.6660   -0.7490    4.5670 h1        1 IM5      0.057700
     27 H2'         2.4780    3.0270    3.9330 h1        1 IM5      0.045200
     28 H2'A        2.7250    2.5150    5.6630 h1        1 IM5      0.045200
     29 H3'         4.5250    3.9740    5.8000 h1        1 IM5      0.050700
     30 HO3'        3.7170    5.2060    4.1180 ho        1 IM5      0.406000
     31 H4'         6.1430    3.0500    3.4690 hc        1 IM5      0.095700
     32 H5'         6.2860    2.3640    6.5000 h1        1 IM5      0.031200
     33 H5'A        7.0830    3.7780    5.6570 h1        1 IM5      0.031200
     34 HO5'        8.5030    2.0280    5.7600 ho        1 IM5      0.412000
     35 H6'         5.5070    0.5690    5.0110 h1        1 IM5      0.052700
     36 H6'A        5.4910    0.8450    3.2160 h1        1 IM5      0.052700
     37 HN7        -1.3780   -1.1660    3.8810 hn        1 IM5      0.338700
     38 H23         2.4460    0.1920   -1.4490 hn        1 IM5      0.479133
@<TRIPOS>BOND
     1    1    2 1   
     2    1    7 1   
     3    1   21 1   
     4    2    3 1   
     5    2    4 2   
     6    3   22 1   
     7    3   23 1   
     8    3   38 1   
     9    4    5 1   
    10    5    6 2   
    11    5   11 1   
    12    6    7 1   
    13    6    9 1   
    14    7    8 2   
    15    9   10 1   
    16    9   37 1   
    17   10   11 2   
    18   10   24 1   
    19   11   13 1   
    20   12   13 1   
    21   12   14 1   
    22   12   20 1   
    23   13   25 1   
    24   13   26 1   
    25   14   15 1   
    26   14   27 1   
    27   14   28 1   
    28   15   16 1   
    29   15   17 1   
    30   15   29 1   
    31   16   30 1   
    32   17   18 1   
    33   17   20 1   
    34   17   31 1   
    35   18   19 1   
    36   18   32 1   
    37   18   33 1   
    38   19   34 1   
    39   20   35 1   
    40   20   36 1   
@<TRIPOS>SUBSTRUCTURE
     1 IM5         1 TEMP              0 ****  ****    0 ROOT
