@<TRIPOS>MOLECULE
IM6
   48    51     1     0     0
SMALL
bcc


@<TRIPOS>ATOM
      1 N1         -0.2980   -0.3720   -0.0750 nc        1 IM6     -0.658000
      2 N3          0.6280   -0.1970    1.9950 na        1 IM6     -0.137000
      3 C4          1.6570   -0.5720    1.1170 cd        1 IM6     -0.242600
      4 C5          1.0640   -0.6720   -0.1520 cc        1 IM6      0.296200
      5 C6          0.7480    0.0280    3.3740 cc        1 IM6     -0.033200
      6 C7         -0.0470    0.9880    4.0000 cd        1 IM6     -0.083300
      7 C10         1.8230   -0.5260    5.4960 cd        1 IM6     -0.082000
      8 C13        -0.0590    1.8270    7.5010 cc        1 IM6      0.194200
      9 C17        -1.6530    4.0210   10.1190 ca        1 IM6     -0.151600
     10 C20        -2.1800    5.1690   12.6320 ca        1 IM6     -0.036300
     11 C21        -2.1540    5.9600   11.4730 ca        1 IM6     -0.137500
     12 C22        -1.8980    5.3960   10.2270 ca        1 IM6     -0.088000
     13 C28        -3.8360    6.4840   13.9150 c3        1 IM6     -0.087100
     14 O47        -2.0080    3.8650    7.7560 o         1 IM6     -0.591100
     15 C16        -1.3970    3.4590    8.7630 c         1 IM6      0.684700
     16 C27        -2.4620    5.8220   13.9600 c3        1 IM6     -0.014700
     17 C36        -2.4500    4.8260   15.1130 c3        1 IM6     -0.087100
     18 C32        -1.3990    6.8830   14.2360 c3        1 IM6     -0.087100
     19 C19        -1.9480    3.7940   12.5090 ca        1 IM6     -0.137500
     20 C18        -1.6850    3.2230   11.2640 ca        1 IM6     -0.088000
     21 N15        -0.4240    2.4680    8.6830 ns        1 IM6     -0.449100
     22 C12        -0.6060    2.0610    6.2040 cd        1 IM6     -0.226100
     23 N8          0.0640    1.1900    5.3510 na        1 IM6      0.029700
     24 N14         0.9360    0.8270    7.4550 nc        1 IM6     -0.309600
     25 C9          1.0010    0.4500    6.1480 cd        1 IM6     -0.026300
     26 C11         1.6960   -0.7310    4.1520 cc        1 IM6     -0.127000
     27 C2         -0.5440   -0.0880    1.2170 cd        1 IM6      0.397400
     28 H1          2.6820   -0.7180    1.4500 h4        1 IM6      0.181000
     29 H2          1.5330   -0.9400   -1.0980 h4        1 IM6      0.046100
     30 H3         -0.7860    1.6120    3.4660 h4        1 IM6      0.177000
     31 H4          2.5380   -1.0910    6.1120 ha        1 IM6      0.169000
     32 H5         -2.3420    7.0430   11.5430 ha        1 IM6      0.140500
     33 H6         -1.8960    6.0190    9.3190 ha        1 IM6      0.145500
     34 H7         -4.0560    6.9680   14.8980 hc        1 IM6      0.039144
     35 H8         -3.8730    7.2650   13.1190 hc        1 IM6      0.039144
     36 H9         -4.6260    5.7240   13.7070 hc        1 IM6      0.039144
     37 H10        -1.4530    4.3310   15.1960 hc        1 IM6      0.039144
     38 H11        -2.6580    5.3600   16.0720 hc        1 IM6      0.039144
     39 H12        -3.2360    4.0460   14.9680 hc        1 IM6      0.039144
     40 H13        -1.5980    7.3710   15.2200 hc        1 IM6      0.039144
     41 H14        -0.3850    6.4170   14.2660 hc        1 IM6      0.039144
     42 H15        -1.4090    7.6670   13.4420 hc        1 IM6      0.039144
     43 H16        -1.9710    3.1370   13.3920 ha        1 IM6      0.140500
     44 H17        -1.5240    2.1350   11.1980 ha        1 IM6      0.145500
     45 H18         0.0660    2.2070    9.5100 hn        1 IM6      0.338500
     46 H19        -1.3810    2.7570    5.8810 h4        1 IM6      0.220000
     47 H20         2.3160   -1.4870    3.6450 ha        1 IM6      0.154000
     48 H21        -1.5140    0.1790    1.6480 h5        1 IM6      0.064100
@<TRIPOS>BOND
     1    1    4 1   
     2    1   27 2   
     3    2    3 1   
     4    2    5 1   
     5    2   27 1   
     6    3    4 2   
     7    3   28 1   
     8    4   29 1   
     9    5    6 2   
    10    5   26 1   
    11    6   23 1   
    12    6   30 1   
    13    7   25 1   
    14    7   26 2   
    15    7   31 1   
    16    8   21 1   
    17    8   22 2   
    18    8   24 1   
    19    9   12 ar  
    20    9   15 1   
    21    9   20 ar  
    22   10   11 ar  
    23   10   16 1   
    24   10   19 ar  
    25   11   12 ar  
    26   11   32 1   
    27   12   33 1   
    28   13   16 1   
    29   13   34 1   
    30   13   35 1   
    31   13   36 1   
    32   14   15 2   
    33   15   21 1   
    34   16   17 1   
    35   16   18 1   
    36   17   37 1   
    37   17   38 1   
    38   17   39 1   
    39   18   40 1   
    40   18   41 1   
    41   18   42 1   
    42   19   20 ar  
    43   19   43 1   
    44   20   44 1   
    45   21   45 1   
    46   22   23 1   
    47   22   46 1   
    48   23   25 1   
    49   24   25 2   
    50   26   47 1   
    51   27   48 1   
@<TRIPOS>SUBSTRUCTURE
     1 IM6         1 TEMP              0 ****  ****    0 ROOT
