@<TRIPOS>MOLECULE
IM6
   48    51     1     0     0
SMALL
bcc


@<TRIPOS>ATOM
      1 N1         -0.2930   -0.3570   -0.0810 nc        1 IM6     -0.658000
      2 N3          0.6290   -0.1880    1.9910 na        1 IM6     -0.137000
      3 C4          1.6590   -0.5620    1.1140 cd        1 IM6     -0.242600
      4 C5          1.0690   -0.6590   -0.1560 cc        1 IM6      0.296200
      5 C6          0.7480    0.0340    3.3710 cc        1 IM6     -0.033200
      6 C7         -0.0460    0.9950    3.9970 cd        1 IM6     -0.083300
      7 C10         1.8190   -0.5260    5.4930 cd        1 IM6     -0.082000
      8 C13        -0.0620    1.8270    7.5000 cc        1 IM6      0.194200
      9 C17        -1.6530    4.0200   10.1200 ca        1 IM6     -0.151600
     10 C20        -2.1810    5.1640   12.6350 ca        1 IM6     -0.036300
     11 C21        -2.1470    5.9580   11.4770 ca        1 IM6     -0.137500
     12 C22        -1.8910    5.3960   10.2310 ca        1 IM6     -0.088000
     13 C28        -3.8320    6.4860   13.9170 c3        1 IM6     -0.087100
     14 O47        -2.0040    3.8710    7.7560 o         1 IM6     -0.591100
     15 C16        -1.3970    3.4600    8.7630 c         1 IM6      0.684700
     16 C27        -2.4620    5.8150   13.9640 c3        1 IM6     -0.014700
     17 C36        -2.4590    4.8160   15.1140 c3        1 IM6     -0.087100
     18 C32        -1.3930    6.8690   14.2450 c3        1 IM6     -0.087100
     19 C19        -1.9560    3.7880   12.5080 ca        1 IM6     -0.137500
     20 C18        -1.6920    3.2190   11.2620 ca        1 IM6     -0.088000
     21 N15        -0.4280    2.4660    8.6830 n         1 IM6     -0.449100
     22 C12        -0.6060    2.0640    6.2020 cd        1 IM6     -0.226100
     23 N8          0.0640    1.1940    5.3480 na        1 IM6      0.029700
     24 N14         0.9320    0.8250    7.4530 nc        1 IM6     -0.309600
     25 C9          0.9980    0.4500    6.1460 cd        1 IM6     -0.026300
     26 C11         1.6940   -0.7280    4.1490 cc        1 IM6     -0.127000
     27 C2         -0.5410   -0.0760    1.2120 cd        1 IM6      0.397400
     28 H1          2.6840   -0.7090    1.4470 h4        1 IM6      0.181000
     29 H2          1.5390   -0.9260   -1.1020 h4        1 IM6      0.046100
     30 H3         -0.7830    1.6210    3.4640 h4        1 IM6      0.177000
     31 H4          2.5320   -1.0940    6.1090 ha        1 IM6      0.169000
     32 H5         -2.3290    7.0410   11.5500 ha        1 IM6      0.140500
     33 H6         -1.8830    6.0220    9.3250 ha        1 IM6      0.145500
     34 H7         -4.6260    5.7310   13.7040 hc        1 IM6      0.039144
     35 H8         -3.8610    7.2700   13.1230 hc        1 IM6      0.039144
     36 H9         -4.0510    6.9680   14.9000 hc        1 IM6      0.039144
     37 H10        -1.4660    4.3140   15.1990 hc        1 IM6      0.039144
     38 H11        -3.2490    4.0410   14.9650 hc        1 IM6      0.039144
     39 H12        -2.6670    5.3480   16.0730 hc        1 IM6      0.039144
     40 H13        -0.3830    6.3960   14.2770 hc        1 IM6      0.039144
     41 H14        -1.5920    7.3560   15.2300 hc        1 IM6      0.039144
     42 H15        -1.3960    7.6550   13.4540 hc        1 IM6      0.039144
     43 H16        -1.9840    3.1300   13.3890 ha        1 IM6      0.140500
     44 H17        -1.5370    2.1310   11.1940 ha        1 IM6      0.145500
     45 H18         0.0610    2.2020    9.5100 hn        1 IM6      0.338500
     46 H19        -1.3790    2.7630    5.8800 h4        1 IM6      0.220000
     47 H20         2.3130   -1.4840    3.6400 ha        1 IM6      0.154000
     48 H21        -1.5120    0.1920    1.6410 h5        1 IM6      0.064100
@<TRIPOS>BOND
     1    1    4 1   
     2    1   27 2   
     3    2    3 1   
     4    2    5 1   
     5    2   27 1   
     6    3    4 2   
     7    3   28 1   
     8    4   29 1   
     9    5    6 2   
    10    5   26 1   
    11    6   23 1   
    12    6   30 1   
    13    7   25 1   
    14    7   26 2   
    15    7   31 1   
    16    8   21 1   
    17    8   22 2   
    18    8   24 1   
    19    9   12 ar  
    20    9   15 1   
    21    9   20 ar  
    22   10   11 ar  
    23   10   16 1   
    24   10   19 ar  
    25   11   12 ar  
    26   11   32 1   
    27   12   33 1   
    28   13   16 1   
    29   13   34 1   
    30   13   35 1   
    31   13   36 1   
    32   14   15 2   
    33   15   21 1   
    34   16   17 1   
    35   16   18 1   
    36   17   37 1   
    37   17   38 1   
    38   17   39 1   
    39   18   40 1   
    40   18   41 1   
    41   18   42 1   
    42   19   20 ar  
    43   19   43 1   
    44   20   44 1   
    45   21   45 1   
    46   22   23 1   
    47   22   46 1   
    48   23   25 1   
    49   24   25 2   
    50   26   47 1   
    51   27   48 1   
@<TRIPOS>SUBSTRUCTURE
     1 IM6         1 TEMP              0 ****  ****    0 ROOT
