@<TRIPOS>MOLECULE
IM6
   49    52     1     0     0
SMALL
bcc


@<TRIPOS>ATOM
      1 N1          1.5020    0.3710    0.6820 nc        1 IM6     -0.628000
      2 N3          1.4330    0.4240    2.9570 na        1 IM6     -0.170000
      3 C4          2.7940    0.4700    2.5810 cd        1 IM6     -0.238600
      4 C5          2.8120    0.4390    1.1830 cc        1 IM6      0.329200
      5 C6          0.9240    0.4470    4.2520 cc        1 IM6      0.056800
      6 C7         -0.3830    0.8740    4.4890 cd        1 IM6     -0.144300
      7 C10         1.2710    0.0360    6.6440 cd        1 IM6     -0.069000
      8 C13        -2.0410    1.0300    7.6720 cc        1 IM6      0.040600
      9 C17        -2.8970    3.4820    9.8420 ca        1 IM6     -0.218600
     10 C20        -1.9200    5.0400   11.9770 ca        1 IM6      0.031700
     11 C21        -3.0660    5.4340   11.2670 ca        1 IM6     -0.138500
     12 C22        -3.5510    4.6750   10.2100 ca        1 IM6     -0.056500
     13 C28        -2.5280    5.9980   14.1730 c3        1 IM6     -0.091767
     14 O47        -4.2470    3.1300    7.8610 o         1 IM6     -0.444100
     15 C16        -3.4670    2.7480    8.7230 c         1 IM6      0.593700
     16 C27        -1.4290    5.8930   13.1170 c3        1 IM6     -0.027700
     17 C36        -0.1820    5.3200   13.7780 c3        1 IM6     -0.091767
     18 C32        -1.0970    7.2880   12.5910 c3        1 IM6     -0.091767
     19 C19        -1.2680    3.8580   11.5910 ca        1 IM6     -0.138500
     20 C18        -1.7450    3.0850   10.5370 ca        1 IM6     -0.056500
     21 N15        -3.1150    1.2590    8.6160 n4        1 IM6     -0.510600
     22 C12        -2.1240    1.2320    6.2630 cd        1 IM6     -0.137100
     23 N8         -0.8800    0.8740    5.7760 na        1 IM6      0.054700
     24 N14        -0.7790    0.5600    8.0580 nc        1 IM6     -0.259600
     25 C9         -0.0770    0.4660    6.8920 cd        1 IM6     -0.010300
     26 C11         1.7490    0.0260    5.3690 cc        1 IM6     -0.109000
     27 C2          0.6910    0.3650    1.7450 cd        1 IM6      0.413400
     28 H1          3.6010    0.5360    3.3080 h4        1 IM6      0.188000
     29 H2          3.6710    0.4600    0.5110 h4        1 IM6      0.064100
     30 H3         -1.0710    1.2220    3.6990 h4        1 IM6      0.192000
     31 H4          1.8780   -0.2820    7.5060 ha        1 IM6      0.189000
     32 H5         -3.5910    6.3630   11.5460 ha        1 IM6      0.166500
     33 H6         -4.4470    5.0020    9.6550 ha        1 IM6      0.157000
     34 H7         -3.4470    6.4660   13.7450 hc        1 IM6      0.047922
     35 H8         -2.7880    4.9870   14.5670 hc        1 IM6      0.047922
     36 H9         -2.1720    6.6300   15.0220 hc        1 IM6      0.047922
     37 H10        -0.3860    4.3060   14.1990 hc        1 IM6      0.047922
     38 H11         0.1340    5.9880   14.6170 hc        1 IM6      0.047922
     39 H12         0.6600    5.2560   13.0490 hc        1 IM6      0.047922
     40 H13        -2.0010    7.7710   12.1490 hc        1 IM6      0.047922
     41 H14        -0.3010    7.2310   11.8110 hc        1 IM6      0.047922
     42 H15        -0.7300    7.9260   13.4300 hc        1 IM6      0.047922
     43 H16        -0.3580    3.5240   12.1160 ha        1 IM6      0.166500
     44 H17        -1.1780    2.1830   10.2550 ha        1 IM6      0.157000
     45 H18        -3.9410    0.7460    8.2780 hn        1 IM6      0.469800
     46 H19        -2.9400    1.5970    5.6360 h4        1 IM6      0.220000
     47 H20         2.7790   -0.3170    5.1680 ha        1 IM6      0.177000
     48 H21        -0.4020    0.3000    1.7250 h5        1 IM6      0.067100
     49 H152       -2.8480    0.9000    9.5420 hn        1 IM6      0.469800
@<TRIPOS>BOND
     1    1    4 1   
     2    1   27 2   
     3    2    3 1   
     4    2    5 1   
     5    2   27 1   
     6    3    4 2   
     7    3   28 1   
     8    4   29 1   
     9    5    6 2   
    10    5   26 1   
    11    6   23 1   
    12    6   30 1   
    13    7   25 1   
    14    7   26 2   
    15    7   31 1   
    16    8   21 1   
    17    8   22 2   
    18    8   24 1   
    19    9   12 ar  
    20    9   15 1   
    21    9   20 ar  
    22   10   11 ar  
    23   10   16 1   
    24   10   19 ar  
    25   11   12 ar  
    26   11   32 1   
    27   12   33 1   
    28   13   16 1   
    29   13   34 1   
    30   13   35 1   
    31   13   36 1   
    32   14   15 2   
    33   15   21 1   
    34   16   17 1   
    35   16   18 1   
    36   17   37 1   
    37   17   38 1   
    38   17   39 1   
    39   18   40 1   
    40   18   41 1   
    41   18   42 1   
    42   19   20 ar  
    43   19   43 1   
    44   20   44 1   
    45   21   45 1   
    46   21   49 1   
    47   22   23 1   
    48   22   46 1   
    49   23   25 1   
    50   24   25 2   
    51   26   47 1   
    52   27   48 1   
@<TRIPOS>SUBSTRUCTURE
     1 IM6         1 TEMP              0 ****  ****    0 ROOT
