@<TRIPOS>MOLECULE
IM6
   48    51     1     0     0
SMALL
bcc


@<TRIPOS>ATOM
      1 N1         -8.0200   -1.6000   -0.9890 nc        1 IM6     -0.658000
      2 N3         -6.3710   -0.3230   -0.0800 na        1 IM6     -0.137000
      3 C4         -7.5370   -0.0750    0.6610 cd        1 IM6     -0.242600
      4 C5         -8.5390   -0.8720    0.0840 cc        1 IM6      0.296200
      5 C6         -5.1090    0.2490    0.1340 cc        1 IM6     -0.033200
      6 C7         -3.9530   -0.4850   -0.1320 cd        1 IM6     -0.083300
      7 C10        -3.7780    2.1700    0.8420 cd        1 IM6     -0.082000
      8 C13        -0.5530    0.6360    0.2520 cc        1 IM6      0.194200
      9 C17         3.0620   -0.3520   -0.1510 ca        1 IM6     -0.151600
     10 C20         5.8680   -0.1700   -0.0870 ca        1 IM6     -0.036300
     11 C21         5.2160   -1.3520    0.2980 ca        1 IM6     -0.137500
     12 C22         3.8290   -1.4480    0.2630 ca        1 IM6     -0.088000
     13 C28         7.9520   -1.1850   -0.9490 c3        1 IM6     -0.087100
     14 O47         1.0370   -1.5670   -0.5440 o         1 IM6     -0.591100
     15 C16         1.5810   -0.5050   -0.1850 c         1 IM6      0.684700
     16 C27         7.3720   -0.1100   -0.0340 c3        1 IM6     -0.014700
     17 C36         7.9170    1.2410   -0.4800 c3        1 IM6     -0.087100
     18 C32         7.8370   -0.3620    1.3990 c3        1 IM6     -0.087100
     19 C19         5.0910    0.9140   -0.5130 ca        1 IM6     -0.137500
     20 C18         3.6990    0.8260   -0.5450 ca        1 IM6     -0.088000
     21 N15         0.8400    0.5980    0.2240 n         1 IM6     -0.449100
     22 C12        -1.4400   -0.4150   -0.1310 cd        1 IM6     -0.226100
     23 N8         -2.7230    0.0860    0.0640 na        1 IM6      0.029700
     24 N14        -1.2740    1.7720    0.6790 nc        1 IM6     -0.309600
     25 C9         -2.5860    1.4270    0.5600 cd        1 IM6     -0.026300
     26 C11        -5.0000    1.5980    0.6320 cc        1 IM6     -0.127000
     27 C2         -6.7200   -1.2610   -1.0750 cd        1 IM6      0.397400
     28 H1         -7.5550    0.6090    1.5070 h4        1 IM6      0.181000
     29 H2         -9.5850   -0.9600    0.3760 h4        1 IM6      0.046100
     30 H3         -3.9610   -1.5250   -0.5040 h4        1 IM6      0.177000
     31 H4         -3.6670    3.1970    1.2210 ha        1 IM6      0.169000
     32 H5          5.8060   -2.2200    0.6290 ha        1 IM6      0.140500
     33 H6          3.3250   -2.3850    0.5500 ha        1 IM6      0.145500
     34 H7          7.6160   -1.0210   -2.0010 hc        1 IM6      0.039144
     35 H8          9.0680   -1.1460   -0.9200 hc        1 IM6      0.039144
     36 H9          7.6250   -2.2010   -0.6230 hc        1 IM6      0.039144
     37 H10         7.5350    2.0580    0.1770 hc        1 IM6      0.039144
     38 H11         9.0330    1.2340   -0.4180 hc        1 IM6      0.039144
     39 H12         7.6270    1.4540   -1.5370 hc        1 IM6      0.039144
     40 H13         7.5060   -1.3680    1.7500 hc        1 IM6      0.039144
     41 H14         8.9510   -0.3180    1.4480 hc        1 IM6      0.039144
     42 H15         7.4170    0.4120    2.0840 hc        1 IM6      0.039144
     43 H16         5.5630    1.8550   -0.8340 ha        1 IM6      0.140500
     44 H17         3.1170    1.6900   -0.9020 ha        1 IM6      0.145500
     45 H18         1.3220    1.4100    0.5430 hn        1 IM6      0.338500
     46 H19        -1.2250   -1.4170   -0.5020 h4        1 IM6      0.220000
     47 H20        -5.9210    2.1660    0.8350 ha        1 IM6      0.154000
     48 H21        -6.0020   -1.6310   -1.8140 h5        1 IM6      0.064100
@<TRIPOS>BOND
     1    1    4 1   
     2    1   27 2   
     3    2    3 1   
     4    2    5 1   
     5    2   27 1   
     6    3    4 2   
     7    3   28 1   
     8    4   29 1   
     9    5    6 2   
    10    5   26 1   
    11    6   23 1   
    12    6   30 1   
    13    7   25 1   
    14    7   26 2   
    15    7   31 1   
    16    8   21 1   
    17    8   22 2   
    18    8   24 1   
    19    9   12 ar  
    20    9   15 1   
    21    9   20 ar  
    22   10   11 ar  
    23   10   16 1   
    24   10   19 ar  
    25   11   12 ar  
    26   11   32 1   
    27   12   33 1   
    28   13   16 1   
    29   13   34 1   
    30   13   35 1   
    31   13   36 1   
    32   14   15 2   
    33   15   21 1   
    34   16   17 1   
    35   16   18 1   
    36   17   37 1   
    37   17   38 1   
    38   17   39 1   
    39   18   40 1   
    40   18   41 1   
    41   18   42 1   
    42   19   20 ar  
    43   19   43 1   
    44   20   44 1   
    45   21   45 1   
    46   22   23 1   
    47   22   46 1   
    48   23   25 1   
    49   24   25 2   
    50   26   47 1   
    51   27   48 1   
@<TRIPOS>SUBSTRUCTURE
     1 IM6         1 TEMP              0 ****  ****    0 ROOT
