@<TRIPOS>MOLECULE
IM8
   55    57     1     0     0
SMALL
bcc


@<TRIPOS>ATOM
      1 C2          1.7800   -2.1930   -1.4400 ca        1 IM8     -0.133000
      2 C3          1.6400   -3.5370   -1.0620 ca        1 IM8      0.116100
      3 C4          0.5960   -3.9660   -0.2230 ca        1 IM8     -0.190000
      4 C5         -0.3440   -3.0620    0.2630 ca        1 IM8     -0.083000
      5 C6          2.5260   -5.7460   -1.2000 c3        1 IM8      0.113700
      6 C7          0.6850    0.1500   -1.1330 cc        1 IM8     -0.143400
      7 C8         -0.4420    0.5400   -0.4110 cd        1 IM8      0.024400
      8 C          -0.2250   -1.7190   -0.1040 ca        1 IM8     -0.025400
      9 C1          0.8490   -1.2830   -0.9610 ca        1 IM8     -0.049800
     10 C10        -3.1240    0.4920    1.0420 ca        1 IM8     -0.139600
     11 C11        -3.3440    1.2060    2.2240 ca        1 IM8     -0.083500
     12 C12        -4.3080    2.2120    2.2600 ca        1 IM8     -0.129500
     13 C13        -5.0580    2.4910    1.1130 ca        1 IM8      0.035400
     14 C14        -4.8480    1.7720   -0.0690 ca        1 IM8     -0.129500
     15 C15        -3.8770    0.7720   -0.1030 ca        1 IM8     -0.083500
     16 C16        -0.9330    1.9260   -0.2790 c3        1 IM8     -0.065900
     17 C17         1.5490    1.0140   -1.9470 c3        1 IM8     -0.083200
     18 C18         2.4760    1.8630   -1.0830 c         1 IM8      0.658100
     19 N          -1.0330   -0.5930    0.2130 n         1 IM8     -0.255200
     20 O           2.6060   -4.3790   -1.5850 os        1 IM8     -0.328900
     21 O1         -2.3570   -1.6400    1.7610 o         1 IM8     -0.547100
     22 O2          2.2960    3.0950   -0.9810 o         1 IM8     -0.628100
     23 O3          4.3010    0.1770    2.1170 oh        1 IM8     -0.604800
     24 CL         -6.2360    3.7130    1.1550 cl        1 IM8     -0.078400
     25 N2          3.5300    1.2220   -0.4710 n         1 IM8     -0.546900
     26 C19         4.4200    1.8940    0.4460 c3        1 IM8      0.099700
     27 C20         4.1030    1.5670    1.9250 c3        1 IM8      0.104400
     28 C21         5.8980    1.5650    0.1820 c3        1 IM8     -0.084400
     29 C22         6.3670    2.0480   -1.1640 c3        1 IM8     -0.091100
     30 H2          2.6050   -1.8850   -2.0960 ha        1 IM8      0.152000
     31 H4          0.5090   -5.0240    0.0630 ha        1 IM8      0.141000
     32 H5         -1.1570   -3.3990    0.9250 ha        1 IM8      0.166000
     33 H61         3.4010   -6.2130   -1.7210 h1        1 IM8      0.044367
     34 H62         2.6250   -5.8530   -0.0930 h1        1 IM8      0.044367
     35 H63         1.5690   -6.2010   -1.5540 h1        1 IM8      0.044367
     36 H11        -2.7640    0.9650    3.1280 ha        1 IM8      0.152500
     37 H12        -4.4790    2.7770    3.1900 ha        1 IM8      0.156000
     38 H14        -5.4460    1.9890   -0.9670 ha        1 IM8      0.156000
     39 H15        -3.7110    0.2010   -1.0300 ha        1 IM8      0.152500
     40 H161       -1.8350    2.0840   -0.9230 hc        1 IM8      0.067700
     41 H162       -1.2080    2.1650    0.7790 hc        1 IM8      0.067700
     42 H163       -0.1260    2.6340   -0.6060 hc        1 IM8      0.067700
     43 H171        0.9260    1.7240   -2.5590 hc        1 IM8      0.079700
     44 H172        2.1570    0.3910   -2.6570 hc        1 IM8      0.079700
     45 HO3         3.9850   -0.0280    3.0050 ho        1 IM8      0.403000
     46 HN2         3.5330    0.2280   -0.4350 hn        1 IM8      0.323500
     47 H19         4.2690    3.0100    0.3190 h1        1 IM8      0.088700
     48 H201        4.8010    2.1460    2.5870 h1        1 IM8      0.030700
     49 H202        3.0460    1.8490    2.1710 h1        1 IM8      0.030700
     50 H211        6.0580    0.4590    0.2790 hc        1 IM8      0.051200
     51 H212        6.5000    2.0610    0.9900 hc        1 IM8      0.051200
     52 H221        7.4680    1.8890   -1.2640 hc        1 IM8      0.035700
     53 H222        5.8580    1.4940   -1.9890 hc        1 IM8      0.035700
     54 H223        6.1540    3.1370   -1.2910 hc        1 IM8      0.035700
     55 C9         -2.1590   -0.6430    1.0480 c         1 IM8      0.694700
@<TRIPOS>BOND
     1    1    2 ar  
     2    1    9 ar  
     3    1   30 1   
     4    2    3 ar  
     5    2   20 1   
     6    3    4 ar  
     7    3   31 1   
     8    4    8 ar  
     9    4   32 1   
    10    5   20 1   
    11    5   33 1   
    12    5   34 1   
    13    5   35 1   
    14    6    7 2   
    15    6    9 1   
    16    6   17 1   
    17    7   16 1   
    18    7   19 1   
    19    8    9 ar  
    20    8   19 1   
    21   10   11 ar  
    22   10   15 ar  
    23   10   55 1   
    24   11   12 ar  
    25   11   36 1   
    26   12   13 ar  
    27   12   37 1   
    28   13   14 ar  
    29   13   24 1   
    30   14   15 ar  
    31   14   38 1   
    32   15   39 1   
    33   16   40 1   
    34   16   41 1   
    35   16   42 1   
    36   17   18 1   
    37   17   43 1   
    38   17   44 1   
    39   18   22 2   
    40   18   25 1   
    41   19   55 1   
    42   21   55 2   
    43   23   27 1   
    44   23   45 1   
    45   25   26 1   
    46   25   46 1   
    47   26   27 1   
    48   26   28 1   
    49   26   47 1   
    50   27   48 1   
    51   27   49 1   
    52   28   29 1   
    53   28   50 1   
    54   28   51 1   
    55   29   52 1   
    56   29   53 1   
    57   29   54 1   
@<TRIPOS>SUBSTRUCTURE
     1 IM8         1 TEMP              0 ****  ****    0 ROOT
