@<TRIPOS>MOLECULE
IM8
   56    55     1     0     0
SMALL
bcc


@<TRIPOS>ATOM
      1 C2         -0.1470    0.2080    0.0590 c2        1 IM8     -0.221000
      2 C3          1.0740    0.7500    0.2580 c2        1 IM8      0.014000
      3 C4          1.1600    0.7550    3.7960 c1        1 IM8     -0.163000
      4 C5          0.2200    0.2940    3.2130 c1        1 IM8     -0.128000
      5 C6          3.1370    1.5020   -0.5960 c3        1 IM8     -0.079000
      6 C7         -2.3590   -0.7690    0.8360 c2        1 IM8     -0.214000
      7 C8         -2.9410   -1.0810    2.0750 c2        1 IM8      0.024000
      8 C          -0.8640   -0.2130    2.4900 c2        1 IM8      0.057000
      9 C1         -1.0420   -0.2190    1.0900 c2        1 IM8     -0.039000
     10 C10        -1.1900   -1.3200    5.3650 c2        1 IM8     -0.178000
     11 C11        -1.2900   -0.9920    6.8510 c3        1 IM8     -0.182000
     12 C12        -0.9250   -2.1240    7.6990 c1        1 IM8      0.033000
     13 C13        -0.2290   -3.3210    7.1710 c3        1 IM8     -0.112000
     14 C14         0.5230   -2.9850    5.8900 c2        1 IM8     -0.130000
     15 C15        -0.2020   -2.1750    5.1430 c1        1 IM8     -0.076000
     16 C16        -4.2700   -1.6650    2.3410 c3        1 IM8     -0.177000
     17 C17        -2.9480   -1.0070   -0.4850 c3        1 IM8     -0.088000
     18 C18        -3.5790    0.2220   -1.1030 c2        1 IM8      0.321000
     19 N          -2.0240   -0.7600    3.0900 n         1 IM8     -0.157000
     20 O           1.7800    1.1400   -0.8590 os        1 IM8     -0.224000
     21 O1         -3.4470   -0.7560    4.8880 o         1 IM8     -0.295000
     22 O2         -4.6110    0.1730   -1.8130 o         1 IM8     -0.418000
     23 O3         -5.7740    2.5970   -1.4310 oh        1 IM8     -0.122000
     24 Cl          0.8830   -3.9600    8.3610 cl        1 IM8     -0.013000
     25 N2         -3.0240    1.4760   -0.8620 ns        1 IM8     -0.393000
     26 C19        -3.2880    2.5850   -1.7170 c3        1 IM8     -0.086000
     27 C20        -4.6550    3.1980   -1.6560 c2        1 IM8      0.275000
     28 C21        -5.4130    5.2460    0.7460 c2        1 IM8     -0.233000
     29 C22        -4.3430    4.4910    0.5040 c2        1 IM8     -0.233000
     30 H2         -0.4880    0.0370   -0.9780 ha        1 IM8      0.132000
     31 H4          1.5430    0.9180    1.2400 h4        1 IM8      0.152000
     32 H5          1.9930    1.1560    4.3190 ha        1 IM8      0.237000
     33 H61         3.6970    0.6310   -0.1790 h1        1 IM8      0.092000
     34 H62         3.1790    2.3690    0.1080 h1        1 IM8      0.092000
     35 H63         3.5340    1.7860   -1.6030 h1        1 IM8      0.092000
     36 H11        -0.6310   -0.1270    7.1490 hc        1 IM8      0.177500
     37 H12        -2.3540   -0.6910    7.0820 hc        1 IM8      0.177500
     38 H14        -1.0180   -4.1130    7.0140 h1        1 IM8      0.180000
     39 H15         1.5610   -3.3010    5.7490 ha        1 IM8      0.192000
     40 H161       -4.1930   -2.5330    3.0450 hc        1 IM8      0.107667
     41 H162       -4.7350   -2.0180    1.3890 hc        1 IM8      0.107667
     42 H163       -4.9390   -0.9030    2.8180 hc        1 IM8      0.107667
     43 H171       -3.7450   -1.8010   -0.4390 hc        1 IM8      0.144500
     44 H172       -2.1590   -1.3660   -1.2080 hc        1 IM8      0.144500
     45 HO3        -5.7220    1.6170   -1.2180 ho        1 IM8      0.345000
     46 HN2        -7.2510    0.4330   -1.3960 ha        1 IM8      0.006000
     47 H19        -6.9870    0.0980   -1.9240 ha        1 IM8      0.006000
     48 H201       -3.1830    2.2910   -2.8170 h1        1 IM8      0.169500
     49 H202       -4.7880    4.2670   -1.9600 h4        1 IM8      0.224000
     50 H211       -2.5330    3.4030   -1.5030 h1        1 IM8      0.169500
     51 H212       -5.4580    6.3140    0.4820 ha        1 IM8      0.126250
     52 H221       -6.3210    4.8540    1.2290 ha        1 IM8      0.126250
     53 H222       -4.2710    3.4480    0.8460 ha        1 IM8      0.126250
     54 H223       -3.4160    4.9090    0.0870 ha        1 IM8      0.126250
     55 C9         -2.2880   -0.9300    4.4810 c2        1 IM8      0.397000
     56 H22        -2.2130    1.5330   -0.2770 hn        1 IM8      0.283000
@<TRIPOS>BOND
     1    1    2 1   
     2    1    9 1   
     3    1   30 1   
     4    2   20 1   
     5    2   31 1   
     6    3    4 1   
     7    3   32 1   
     8    4    8 1   
     9    5   20 1   
    10    5   33 1   
    11    5   34 1   
    12    5   35 1   
    13    6    7 1   
    14    6    9 1   
    15    6   17 1   
    16    7   16 1   
    17    7   19 1   
    18    8    9 1   
    19    8   19 1   
    20   10   11 1   
    21   10   15 1   
    22   10   55 1   
    23   11   12 1   
    24   11   36 1   
    25   11   37 1   
    26   12   13 1   
    27   13   14 1   
    28   13   24 1   
    29   13   38 1   
    30   14   15 1   
    31   14   39 1   
    32   16   40 1   
    33   16   41 1   
    34   16   42 1   
    35   17   18 1   
    36   17   43 1   
    37   17   44 1   
    38   18   22 1   
    39   18   25 1   
    40   19   55 1   
    41   21   55 1   
    42   23   27 1   
    43   23   45 1   
    44   25   26 1   
    45   25   56 1   
    46   26   27 1   
    47   26   48 1   
    48   26   50 1   
    49   27   49 1   
    50   28   29 1   
    51   28   51 1   
    52   28   52 1   
    53   29   53 1   
    54   29   54 1   
    55   46   47 1   
@<TRIPOS>SUBSTRUCTURE
     1 IM8         1 TEMP              0 ****  ****    0 ROOT
