@<TRIPOS>MOLECULE
IM8
   55    48     1     0     0
SMALL
bcc


@<TRIPOS>ATOM
      1 C2          1.8590   -0.1170   -1.5470 c1        1 IM8     -0.141000
      2 C3          3.2390   -0.1650   -1.5900 c1        1 IM8      0.072000
      3 C4          3.9770   -0.1680   -0.4020 c1        1 IM8     -0.189000
      4 C5          3.3250   -0.1230    0.8180 c1        1 IM8     -0.097000
      5 C6          4.7130    0.2420   -3.4200 c3        1 IM8     -0.076000
      6 C7         -0.1560    0.0060    0.0230 c1        1 IM8     -0.170000
      7 C8         -0.2540    0.0490    1.3940 c1        1 IM8      0.049000
      8 C9          1.3700    0.1010    3.3220 c1        1 IM8      0.368000
      9 C           1.9250   -0.0750    0.8630 c1        1 IM8     -0.018000
     10 C1          1.1970   -0.0720   -0.3110 c1        1 IM8     -0.037000
     11 C10         2.8070    0.0290    3.7560 c1        1 IM8     -0.124000
     12 C11         3.4740    1.1890    4.1500 c2        1 IM8     -0.083000
     13 C12         4.7470    1.1050    4.7070 c1        1 IM8     -0.131000
     14 C13         5.3560   -0.1410    4.8710 c1        1 IM8     -0.043000
     15 C14         4.6880   -1.3000    4.4770 c1        1 IM8     -0.131000
     16 C15         3.4190   -1.2170    3.9220 c1        1 IM8     -0.078000
     17 C16        -1.4210    0.5210    2.2240 c2        1 IM8     -0.177000
     18 C17        -1.1070    0.7790   -1.0160 c2        1 IM8     -0.112000
     19 C18        -2.3110   -0.1300   -1.3940 c2        1 IM8      0.303000
     20 N           1.0280   -0.0010    1.9210 n2        1 IM8     -0.197000
     21 O           4.1640   -0.7130   -2.5310 os        1 IM8     -0.210000
     22 O1          0.5060    0.2390    4.1380 o         1 IM8     -0.303000
     23 O2         -2.5210   -1.1340   -0.7710 o         1 IM8     -0.391000
     24 O3         -6.5350    1.0580   -1.4240 oh        1 IM8     -0.337000
     25 CL          6.9600   -0.2440    5.5070 cl        1 IM8      0.001000
     26 N2         -3.2460    0.2970   -2.3970 n         1 IM8     -0.377000
     27 C19        -4.5950   -0.0800   -2.3020 c3        1 IM8     -0.015000
     28 C20        -5.4730    1.1480   -2.3990 c3        1 IM8     -0.027000
     29 C21        -4.9440   -1.0540   -3.4490 c3        1 IM8     -0.167000
     30 C22        -6.1590   -1.9430   -3.0220 c3        1 IM8     -0.212000
     31 H2          1.3430   -0.1140   -2.3790 ha        1 IM8      0.156000
     32 H4          4.9700   -0.2050   -0.4340 ha        1 IM8      0.142000
     33 H5          3.8550   -0.1260    1.6710 ha        1 IM8      0.147000
     34 H61         4.9680    1.0560   -2.9150 h1        1 IM8      0.085000
     35 H62         4.0420    0.4760   -4.1070 h1        1 IM8      0.085000
     36 H63         5.5090   -0.1360   -3.8550 h1        1 IM8      0.085000
     37 H11         3.0430    2.0730    4.0330 ha        1 IM8      0.153000
     38 H12         5.2120    1.9140    4.9810 ha        1 IM8      0.157000
     39 H14         5.1260   -2.1960    4.5950 ha        1 IM8      0.157000
     40 H15         2.9560   -2.0280    3.6490 ha        1 IM8      0.155000
     41 H161       -2.2460    0.4180    1.7130 ha        1 IM8      0.109000
     42 H162       -1.2960    1.4700    2.4570 ha        1 IM8      0.109000
     43 H163       -1.4760   -0.0130    3.0460 ha        1 IM8      0.109000
     44 H171       -0.5950    1.0010   -1.8230 ha        1 IM8      0.122000
     45 H172       -1.4330    1.5880   -0.6110 ha        1 IM8      0.122000
     46 HO3        -6.9500    1.8510   -1.3600 ho        1 IM8      0.226000
     47 HN2        -2.9580    0.7940   -3.1110 hn        1 IM8      0.234000
     48 H19        -4.7460   -0.5190   -1.4520 h1        1 IM8      0.121000
     49 H201       -5.8610    1.2040   -3.3010 h1        1 IM8      0.084500
     50 H202       -4.9130    1.9820   -2.2170 h1        1 IM8      0.084500
     51 H211       -5.1800   -0.5440   -4.2550 hc        1 IM8      0.085000
     52 H212       -4.1660   -1.6300   -3.6400 hc        1 IM8      0.085000
     53 H221       -6.9730   -1.4120   -3.0460 hc        1 IM8      0.079333
     54 H222       -6.2460   -2.7100   -3.6470 hc        1 IM8      0.079333
     55 H223       -6.0150   -2.2790   -2.1110 hc        1 IM8      0.079333
@<TRIPOS>BOND
     1    1   10 1   
     2    1   31 1   
     3    2    3 1   
     4    2   21 1   
     5    3   32 1   
     6    4    9 1   
     7    4   33 1   
     8    5   21 1   
     9    5   34 1   
    10    5   35 1   
    11    5   36 1   
    12    6    7 1   
    13    6   10 1   
    14    7   20 1   
    15    8   20 1   
    16    8   22 1   
    17   11   12 1   
    18   11   16 1   
    19   12   13 1   
    20   12   37 1   
    21   13   38 1   
    22   14   15 1   
    23   14   25 1   
    24   15   39 1   
    25   16   40 1   
    26   17   41 1   
    27   17   42 1   
    28   17   43 1   
    29   18   19 1   
    30   18   44 1   
    31   18   45 1   
    32   19   23 1   
    33   19   26 1   
    34   24   28 1   
    35   24   46 1   
    36   26   27 1   
    37   26   47 1   
    38   27   28 1   
    39   27   29 1   
    40   27   48 1   
    41   28   49 1   
    42   28   50 1   
    43   29   30 1   
    44   29   51 1   
    45   29   52 1   
    46   30   53 1   
    47   30   54 1   
    48   30   55 1   
@<TRIPOS>SUBSTRUCTURE
     1 IM8         1 TEMP              0 ****  ****    0 ROOT
