@<TRIPOS>MOLECULE
IM8
   56    58     1     0     0
SMALL
bcc


@<TRIPOS>ATOM
      1 C2         -0.0520    0.7750    1.1840 cu        1 IM8     -0.262000
      2 C3          0.9550    0.2310    0.5260 c2        1 IM8      0.080000
      3 C4          0.4040    3.4250    3.5500 c1        1 IM8     -0.109000
      4 C5         -0.0490    2.4220    3.0800 c1        1 IM8     -0.176000
      5 C6          1.9890   -0.4710   -1.4750 c3        1 IM8     -0.079000
      6 C7         -2.4870    0.2600    1.4190 c2        1 IM8     -0.303000
      7 C8         -2.3290   -0.2900    2.6800 c2        1 IM8      0.146000
      8 C          -0.5780    1.2460    2.4930 cx        1 IM8      0.223000
      9 C1         -1.4320    1.2750    1.1680 cx        1 IM8     -0.081000
     10 C10        -0.9510   -1.4660    5.1570 c2        1 IM8     -0.164000
     11 C11        -0.8380   -1.6620    6.6630 c3        1 IM8     -0.184000
     12 C12        -0.0510   -2.8400    7.0140 c1        1 IM8      0.036000
     13 C13         0.2820   -3.9090    6.0390 c3        1 IM8     -0.107000
     14 C14        -0.6570   -3.8770    4.8450 c2        1 IM8     -0.137000
     15 C15        -0.9770   -2.6350    4.5330 c1        1 IM8     -0.117000
     16 C16        -3.2540   -1.2780    3.2850 c3        1 IM8     -0.197000
     17 C17        -3.4780   -0.1240    0.4100 c3        1 IM8     -0.084000
     18 C18        -3.8250    1.0290   -0.5030 c2        1 IM8      0.311000
     19 N          -1.2030    0.2280    3.3490 n         1 IM8     -0.255000
     20 O           0.7900   -0.0440   -0.8220 os        1 IM8     -0.269000
     21 O1          0.0210    0.6850    5.2310 o         1 IM8     -0.288000
     22 O2         -3.1880    1.3320   -1.6440 os        1 IM8     -0.241000
     23 O3         -1.9640   -0.5270   -2.0860 oh        1 IM8     -0.314000
     24 CL          1.9800   -3.7160    5.6400 cl        1 IM8     -0.017000
     25 N2         -4.8740    1.8180   -0.2670 n3        1 IM8     -0.212000
     26 C19        -5.2750    2.9140   -1.1370 c3        1 IM8     -0.058000
     27 C20        -1.8670    0.8470   -2.0130 c3        1 IM8      0.128000
     28 C21        -6.5670    3.5910   -0.6940 c3        1 IM8     -0.181000
     29 C22        -6.4320    4.3130    0.6200 c3        1 IM8     -0.226000
     30 H2         -1.7070    2.2040    0.6480 hc        1 IM8      0.132000
     31 H4          1.9280   -0.0240    0.9780 h4        1 IM8      0.169000
     32 H5          0.8100    4.3100    3.9750 ha        1 IM8      0.239000
     33 H61         2.7550    0.3400   -1.4420 h1        1 IM8      0.097667
     34 H62         2.3800   -1.4020   -0.9980 h1        1 IM8      0.097667
     35 H63         1.6630   -0.6700   -2.5270 h1        1 IM8      0.097667
     36 H11        -0.3340   -0.7490    7.1060 hc        1 IM8      0.183000
     37 H12        -1.8390   -1.7580    7.1710 hc        1 IM8      0.183000
     38 H14         0.1850   -4.9130    6.5400 h1        1 IM8      0.177000
     39 H15        -1.0710   -4.8100    4.4550 ha        1 IM8      0.178000
     40 H161       -3.3290   -1.1530    4.3950 hc        1 IM8      0.111000
     41 H162       -2.8920   -2.3180    3.0720 hc        1 IM8      0.111000
     42 H163       -4.2780   -1.1590    2.8510 hc        1 IM8      0.111000
     43 H171       -4.4190   -0.5080    0.9010 hc        1 IM8      0.138500
     44 H172       -3.0880   -0.9650   -0.2330 hc        1 IM8      0.138500
     45 HO3        -1.3180   -0.9170   -1.4710 ho        1 IM8      0.252000
     46 HN2        -5.3970    2.5040   -2.1820 h1        1 IM8      0.127000
     47 H19        -1.7930    1.2760   -3.0570 h2        1 IM8      0.154000
     48 H201       -4.4330    3.6670   -1.1560 h1        1 IM8      0.127000
     49 H202       -1.1010    1.2350   -1.2920 h2        1 IM8      0.154000
     50 H211       -6.8330    4.3270   -1.5020 hc        1 IM8      0.115000
     51 H212       -7.4030    2.8450   -0.6420 hc        1 IM8      0.115000
     52 H221       -7.3660    4.8890    0.8330 hc        1 IM8      0.088333
     53 H222       -6.2690    3.6000    1.4650 hc        1 IM8      0.088333
     54 H223       -5.5770    5.0320    0.5950 hc        1 IM8      0.088333
     55 C9         -0.6810   -0.1280    4.6100 c2        1 IM8      0.390000
     56 H22        -5.4290    1.6540    0.5520 hn        1 IM8      0.276000
@<TRIPOS>BOND
     1    1    2 1   
     2    1    8 1   
     3    1    9 1   
     4    2   20 1   
     5    2   31 1   
     6    3    4 1   
     7    3   32 1   
     8    4    8 1   
     9    5   20 1   
    10    5   33 1   
    11    5   34 1   
    12    5   35 1   
    13    6    7 1   
    14    6    9 1   
    15    6   17 1   
    16    7   16 1   
    17    7   19 1   
    18    8    9 1   
    19    8   19 1   
    20    9   30 1   
    21   10   11 1   
    22   10   15 1   
    23   10   55 1   
    24   11   12 1   
    25   11   36 1   
    26   11   37 1   
    27   12   13 1   
    28   13   14 1   
    29   13   24 1   
    30   13   38 1   
    31   14   15 1   
    32   14   39 1   
    33   16   40 1   
    34   16   41 1   
    35   16   42 1   
    36   17   18 1   
    37   17   43 1   
    38   17   44 1   
    39   18   22 1   
    40   18   25 1   
    41   19   55 1   
    42   21   55 1   
    43   22   27 1   
    44   23   27 1   
    45   23   45 1   
    46   25   26 1   
    47   25   56 1   
    48   26   28 1   
    49   26   46 1   
    50   26   48 1   
    51   27   47 1   
    52   27   49 1   
    53   28   29 1   
    54   28   50 1   
    55   28   51 1   
    56   29   52 1   
    57   29   53 1   
    58   29   54 1   
@<TRIPOS>SUBSTRUCTURE
     1 IM8         1 TEMP              0 ****  ****    0 ROOT
