@<TRIPOS>MOLECULE
IM8
   56    58     1     0     0
SMALL
bcc


@<TRIPOS>ATOM
      1 C2         -1.2150   -0.2690    0.2570 ce        1 IM8     -0.224200
      2 C3          0.0580   -0.1470   -0.1800 c2        1 IM8      0.067100
      3 C4          1.7770   -0.0880    2.9510 c1        1 IM8     -0.078500
      4 C5          0.5820   -0.1650    2.8880 ch        1 IM8     -0.143000
      5 C6          1.6370   -0.2140   -1.9280 c3        1 IM8      0.108700
      6 C7         -2.9890   -0.2630    2.0780 cc        1 IM8     -0.254300
      7 C8         -2.9860   -0.2590    3.4860 cd        1 IM8     -0.006600
      8 C          -0.8100   -0.2410    2.7940 cd        1 IM8      0.039700
      9 C1         -1.6130   -0.2530    1.6320 cc        1 IM8     -0.054800
     10 C10        -0.5550   -1.2890    5.9400 cx        1 IM8     -0.267600
     11 C11        -0.1200   -0.9730    7.4130 cx        1 IM8      0.064800
     12 C12         0.9000   -1.2670    6.4440 cu        1 IM8     -0.143400
     13 C13         1.5860   -2.3540    5.9870 ce        1 IM8      0.061400
     14 C14         0.6460   -3.1460    5.1670 ce        1 IM8     -0.134000
     15 C15        -0.6110   -2.6100    5.2560 c2        1 IM8     -0.105200
     16 C16        -4.1500   -0.2790    4.3960 c3        1 IM8     -0.060800
     17 C17        -4.1750   -0.3120    1.2220 c3        1 IM8     -0.042400
     18 C18        -4.5050    1.0550    0.6470 c2        1 IM8      0.555600
     19 N          -1.6600   -0.2760    3.9220 n         1 IM8     -0.068200
     20 O           0.2620   -0.1530   -1.5420 os        1 IM8     -0.336900
     21 O1         -1.5740    0.8820    5.8980 o         1 IM8     -0.501100
     22 O2         -5.8320    1.2810    0.5740 os        1 IM8     -0.374400
     23 O3         -3.1200    2.5220   -2.5320 oh        1 IM8     -0.608800
     24 CL          3.1410   -2.8190    6.3330 cl        1 IM8     -0.003400
     25 N2         -3.5920    1.9390    0.2620 nh        1 IM8     -0.306100
     26 C19        -3.9320    3.2000   -0.3960 c3        1 IM8      0.010000
     27 C20        -2.9640    3.5290   -1.5510 c3        1 IM8      0.118400
     28 C21        -5.3730    3.1800   -0.9220 c3        1 IM8     -0.144400
     29 C22        -6.3040    2.5660    0.0950 c3        1 IM8      0.112400
     30 H2         -2.0170   -0.4420   -0.4820 ha        1 IM8      0.134000
     31 H4          0.9420   -0.0270    0.4660 h4        1 IM8      0.153000
     32 H5          2.8350   -0.0230    3.0180 ha        1 IM8      0.183500
     33 H61         2.1030   -1.1570   -1.5530 h1        1 IM8      0.054367
     34 H62         2.1890    0.6770   -1.5430 h1        1 IM8      0.054367
     35 H63         1.5970   -0.2080   -3.0460 h1        1 IM8      0.054367
     36 H11        -0.3470    0.0680    7.7280 hc        1 IM8      0.111200
     37 H12        -0.2850   -1.7070    8.2290 hc        1 IM8      0.111200
     38 H14        -1.5250   -3.0070    4.8130 ha        1 IM8      0.161000
     39 H15         0.9400   -4.0670    4.6610 ha        1 IM8      0.173000
     40 H161       -5.0490    0.1260    3.8710 hc        1 IM8      0.069367
     41 H162       -3.9650    0.3400    5.3110 hc        1 IM8      0.069367
     42 H163       -4.3690   -1.3300    4.7160 hc        1 IM8      0.069367
     43 H171       -5.0770   -0.6780    1.7880 hc        1 IM8      0.115200
     44 H172       -4.0140   -1.0010    0.3430 hc        1 IM8      0.115200
     45 HO3        -2.5050    2.7180   -3.2510 ho        1 IM8      0.436000
     46 HN2        -4.2960    1.1610   -4.1010 ha        1 IM8      0.002500
     47 H19        -4.7840    1.2460   -3.6380 ha        1 IM8      0.002500
     48 H201       -3.8190    4.0140    0.3850 h1        1 IM8      0.097700
     49 H202       -1.9030    3.5630   -1.1830 h1        1 IM8      0.059700
     50 H211       -3.2490    4.5330   -1.9670 h1        1 IM8      0.059700
     51 H212       -5.6960    4.2310   -1.1400 hc        1 IM8      0.108700
     52 H221       -5.4090    2.6030   -1.8880 hc        1 IM8      0.108700
     53 H222       -6.4280    3.2140    1.0040 h1        1 IM8      0.102700
     54 H223       -7.3070    2.3130   -0.3460 h1        1 IM8      0.102700
     55 C9         -1.2570   -0.1510    5.3020 c         1 IM8      0.649900
     56 H22        -2.6140    1.6900    0.3210 hn        1 IM8      0.356700
@<TRIPOS>BOND
     1    1    2 2   
     2    1    9 1   
     3    1   30 1   
     4    2   20 1   
     5    2   31 1   
     6    3    4 3   
     7    3   32 1   
     8    4    8 1   
     9    5   20 1   
    10    5   33 1   
    11    5   34 1   
    12    5   35 1   
    13    6    7 2   
    14    6    9 1   
    15    6   17 1   
    16    7   16 1   
    17    7   19 1   
    18    8    9 2   
    19    8   19 1   
    20   10   11 1   
    21   10   12 1   
    22   10   15 1   
    23   10   55 1   
    24   11   12 1   
    25   11   36 1   
    26   11   37 1   
    27   12   13 2   
    28   13   14 1   
    29   13   24 1   
    30   14   15 2   
    31   14   39 1   
    32   15   38 1   
    33   16   40 1   
    34   16   41 1   
    35   16   42 1   
    36   17   18 1   
    37   17   43 1   
    38   17   44 1   
    39   18   22 1   
    40   18   25 2   
    41   19   55 1   
    42   21   55 2   
    43   22   29 1   
    44   23   27 1   
    45   23   45 1   
    46   25   26 1   
    47   25   56 1   
    48   26   27 1   
    49   26   28 1   
    50   26   48 1   
    51   27   49 1   
    52   27   50 1   
    53   28   29 1   
    54   28   51 1   
    55   28   52 1   
    56   29   53 1   
    57   29   54 1   
    58   46   47 1   
@<TRIPOS>SUBSTRUCTURE
     1 IM8         1 TEMP              0 ****  ****    0 ROOT
