@<TRIPOS>MOLECULE
IM9
   61    57     1     0     0
SMALL
bcc


@<TRIPOS>ATOM
      1 C1          0.7150   -6.4940    1.7510 c3        1 IM9     -0.228500
      2 C2         -0.0070   -5.3880    0.9440 c3        1 IM9      0.025000
      3 C3          0.5110   -5.3810   -0.4750 c3        1 IM9     -0.228500
      4 N4         -1.4520   -5.6470    0.9380 n3        1 IM9     -0.137000
      5 C5         -2.0500   -6.8280    0.6340 c1        1 IM9     -0.025000
      6 C6         -1.3560   -8.0650    0.0410 c2        1 IM9     -0.148000
      7 N7         -3.3930   -6.6810    0.8220 n2        1 IM9     -0.151000
      8 C8         -3.6200   -5.4220    1.2360 c1        1 IM9     -0.111000
      9 C9         -2.4140   -4.7760    1.3090 c2        1 IM9     -0.110000
     10 C10        -2.2130   -3.4640    1.7280 c1        1 IM9      0.131000
     11 C11        -1.9050   -3.2060    3.0300 c1        1 IM9     -0.145500
     12 C12        -1.8180   -1.9070    3.4710 c1        1 IM9     -0.145500
     13 N13        -2.0350   -0.8980    2.6250 n1        1 IM9     -0.205000
     14 C14        -2.3430   -1.1540    1.3210 c1        1 IM9      0.147000
     15 N15        -2.7530   -0.0680    0.4490 n2        1 IM9     -0.219000
     16 C16        -1.8990    1.1290    0.3060 c2        1 IM9      0.018000
     17 C17        -2.2340    2.3050    0.9700 c2        1 IM9     -0.081000
     18 C18        -1.4460    3.4510    0.8070 c1        1 IM9     -0.144000
     19 C19        -0.3260    3.4140   -0.0190 c1        1 IM9      0.042000
     20 C20         0.0110    2.2310   -0.6880 c1        1 IM9     -0.166000
     21 C21        -0.7730    1.0910   -0.5250 c1        1 IM9     -0.139000
     22 N22         0.5360    4.5940   -0.1380 n3        1 IM9     -0.235000
     23 C23         1.8890    4.2210    0.1080 c3        1 IM9     -0.076000
     24 C24         2.8610    5.3670   -0.1450 c3        1 IM9     -0.035000
     25 N25         2.6740    5.9530   -1.4110 n         1 IM9     -0.314000
     26 C26         1.3380    6.3300   -1.6730 c3        1 IM9     -0.035000
     27 C27         0.3610    5.1880   -1.4280 c3        1 IM9     -0.076000
     28 C28         3.7620    6.1520   -2.3660 c2        1 IM9      0.262000
     29 O29         4.9010    5.8010   -2.0770 o         1 IM9     -0.373000
     30 C30         3.5000    6.8950   -3.6840 c3        1 IM9     -0.029000
     31 O31         4.7190    7.2180   -4.2890 oh        1 IM9     -0.319000
     32 N32        -2.4300   -2.4510    0.8790 n2        1 IM9     -0.211000
     33 H1C1        0.9730   -7.2290    1.1440 hc        1 IM9      0.088333
     34 H1C2        0.1120   -6.8400    2.4460 hc        1 IM9      0.088333
     35 H1C3        1.5270   -6.1170    2.1750 hc        1 IM9      0.088333
     36 H2          0.1670   -4.5180    1.3570 h1        1 IM9      0.112000
     37 H3C1        0.8880   -4.5000   -0.6810 hc        1 IM9      0.088333
     38 H3C2       -0.2230   -5.5730   -1.0910 hc        1 IM9      0.088333
     39 H3C3        1.2040   -6.0630   -0.5730 hc        1 IM9      0.088333
     40 H6C1       -2.0360   -8.7110   -0.2580 ha        1 IM9      0.097667
     41 H6C2       -0.7860   -8.4830    0.7280 ha        1 IM9      0.097667
     42 H6C3       -0.8000   -7.7940   -0.7270 ha        1 IM9      0.097667
     43 H8         -4.5110   -5.0270    1.4530 DU        1 IM9      0.188000
     44 H11        -1.7470   -3.9440    3.6500 ha        1 IM9      0.161000
     45 H12        -1.5970   -1.7210    4.4080 ha        1 IM9      0.161000
     46 H15        -3.5190   -0.1460   -0.0510 hn        1 IM9      0.232000
     47 H17        -3.0110    2.3300    1.5430 ha        1 IM9      0.156000
     48 H21        -0.5390    0.2690   -0.9910 ha        1 IM9      0.133000
     49 H18        -1.6830    4.2840    1.2770 ha        1 IM9      0.140000
     50 H20         0.7920    2.2060   -1.2640 ha        1 IM9      0.133000
     51 H231        2.1220    3.4750   -0.4760 h1        1 IM9      0.088000
     52 H232        1.9730    3.9340    1.0360 h1        1 IM9      0.088000
     53 H271       -0.5430    5.5270   -1.4970 h1        1 IM9      0.088000
     54 H272        0.4980    4.4980   -2.1200 h1        1 IM9      0.088000
     55 H241        2.7330    6.0490    0.5420 h1        1 IM9      0.107500
     56 H242        3.7690    5.0270   -0.0870 h1        1 IM9      0.107500
     57 H261        1.0990    7.0860   -1.0880 h1        1 IM9      0.107500
     58 H262        1.2670    6.6110   -2.5920 h1        1 IM9      0.107500
     59 H301        2.9990    7.7190   -3.5000 h1        1 IM9      0.104000
     60 H302        2.9780    6.3210   -4.2860 h1        1 IM9      0.104000
     61 H31         4.5820    7.8210   -4.9300 ho        1 IM9      0.230000
@<TRIPOS>BOND
     1    1    2 1   
     2    1   33 1   
     3    1   34 1   
     4    1   35 1   
     5    2    3 1   
     6    2    4 1   
     7    2   36 1   
     8    3   37 1   
     9    3   38 1   
    10    3   39 1   
    11    4    5 1   
    12    4    9 1   
    13    5    7 1   
    14    6   40 1   
    15    6   41 1   
    16    6   42 1   
    17    7    8 1   
    18    8    9 1   
    19    9   10 1   
    20   10   32 1   
    21   11   12 1   
    22   11   44 1   
    23   12   45 1   
    24   13   14 1   
    25   14   32 1   
    26   15   16 1   
    27   15   46 1   
    28   16   17 1   
    29   16   21 1   
    30   17   18 1   
    31   17   47 1   
    32   18   49 1   
    33   19   20 1   
    34   19   22 1   
    35   20   50 1   
    36   21   48 1   
    37   22   23 1   
    38   22   27 1   
    39   23   24 1   
    40   23   51 1   
    41   23   52 1   
    42   24   25 1   
    43   24   55 1   
    44   24   56 1   
    45   25   26 1   
    46   25   28 1   
    47   26   27 1   
    48   26   57 1   
    49   26   58 1   
    50   27   53 1   
    51   27   54 1   
    52   28   29 1   
    53   28   30 1   
    54   30   31 1   
    55   30   59 1   
    56   30   60 1   
    57   31   61 1   
@<TRIPOS>SUBSTRUCTURE
     1 IM9         1 TEMP              0 ****  ****    0 ROOT
