@<TRIPOS>MOLECULE
IM9
   62    65     1     0     0
SMALL
bcc


@<TRIPOS>ATOM
      1 C1         -0.4590   -0.8650   -0.3370 c3        1 IM9     -0.114100
      2 C2          1.0570   -0.8770   -0.1310 c3        1 IM9      0.045000
      3 C3          1.3700   -1.3170    1.3020 c3        1 IM9     -0.114100
      4 N4          1.7680   -1.6510   -1.1340 na        1 IM9     -0.155900
      5 C5          1.5860   -3.0140   -1.4270 cc        1 IM9      0.464800
      6 C6          0.4550   -3.8500   -0.9450 c3        1 IM9     -0.139400
      7 N7          2.5690   -3.4770   -2.2660 nd        1 IM9     -0.661000
      8 C8          3.4090   -2.4180   -2.4960 cd        1 IM9      0.385200
      9 C9          2.9460   -1.2600   -1.8050 cc        1 IM9     -0.369100
     10 C10         3.5630    0.0410   -1.9060 ca        1 IM9      0.595800
     11 C11         4.9720    0.0940   -2.1150 ca        1 IM9     -0.321600
     12 C12         5.5650    1.3500   -2.2970 ca        1 IM9      0.459200
     13 N13         4.8600    2.5030   -2.2740 nb        1 IM9     -0.687000
     14 C14         3.5170    2.3480   -2.0560 ca        1 IM9      0.722900
     15 N15         2.7050    3.6110   -2.0230 n4        1 IM9     -0.588100
     16 C16         2.7810    4.2740   -0.7230 ca        1 IM9     -0.150400
     17 C17         1.7330    4.1340    0.2040 ca        1 IM9     -0.036000
     18 C18         1.7890    4.7900    1.4190 ca        1 IM9     -0.204500
     19 C19         2.8970    5.6220    1.7670 ca        1 IM9      0.250600
     20 C20         3.9630    5.7090    0.8210 ca        1 IM9     -0.204500
     21 C21         3.9060    5.0550   -0.3940 ca        1 IM9     -0.036000
     22 N22         2.9170    6.3430    2.9450 nh        1 IM9     -0.640000
     23 C23         1.9070    6.0610    3.9460 c3        1 IM9      0.172300
     24 C24         1.9340    6.9820    5.1880 c3        1 IM9      0.074000
     25 N25         3.2590    7.2850    5.6580 n         1 IM9     -0.453800
     26 C26         4.0880    7.8480    4.6180 c3        1 IM9      0.074000
     27 C27         4.1570    6.9890    3.3370 c3        1 IM9      0.172300
     28 C28         3.8510    6.6360    6.7420 c         1 IM9      0.613100
     29 O29         5.0820    6.7100    6.9230 o         1 IM9     -0.584100
     30 C30         2.9870    5.9250    7.7790 c3        1 IM9      0.074400
     31 O31         3.7790    5.0980    8.5960 oh        1 IM9     -0.579800
     32 N32         2.8210    1.1850   -1.8680 nb        1 IM9     -0.705000
     33 H1C1       -0.7260   -0.6400   -1.3970 hc        1 IM9      0.054533
     34 H1C2       -0.8940   -0.0720    0.3190 hc        1 IM9      0.054533
     35 H1C3       -0.9140   -1.8430   -0.0510 hc        1 IM9      0.054533
     36 H2          1.4100    0.1920   -0.2300 h1        1 IM9      0.069700
     37 H3C1        1.0240   -2.3590    1.4980 hc        1 IM9      0.054533
     38 H3C2        0.8380   -0.6310    2.0050 hc        1 IM9      0.054533
     39 H3C3        2.4660   -1.2620    1.5090 hc        1 IM9      0.054533
     40 H6C1        0.6410   -4.9250   -1.1960 hc        1 IM9      0.073367
     41 H6C2        0.3340   -3.7590    0.1620 hc        1 IM9      0.073367
     42 H6C3       -0.4910   -3.5260   -1.4470 hc        1 IM9      0.073367
     43 H8          4.2810   -2.5040   -3.1480 h4        1 IM9      0.052100
     44 H11         5.5710   -0.8290   -2.1270 ha        1 IM9      0.191000
     45 H12         6.6540    1.4640   -2.4690 h4        1 IM9      0.065100
     46 H15         3.0690    4.2490   -2.7440 hn        1 IM9      0.471300
     47 H17         0.8570    3.5020   -0.0210 ha        1 IM9      0.155000
     48 H21         4.7550    5.1470   -1.0940 ha        1 IM9      0.155000
     49 H18         0.9490    4.6490    2.1170 ha        1 IM9      0.161000
     50 H20         4.8650    6.3010    1.0420 ha        1 IM9      0.161000
     51 H231        0.8900    6.1930    3.4730 h1        1 IM9      0.059450
     52 H232        2.0050    4.9880    4.2850 h1        1 IM9      0.059450
     53 H271        4.4730    7.6830    2.5050 h1        1 IM9      0.059450
     54 H272        4.9580    6.2030    3.4700 h1        1 IM9      0.059450
     55 H241        1.4380    7.9610    4.9190 h1        1 IM9      0.081450
     56 H242        1.3160    6.4930    5.9900 h1        1 IM9      0.081450
     57 H261        5.1420    7.9820    4.9980 h1        1 IM9      0.081450
     58 H262        3.6680    8.8610    4.3580 h1        1 IM9      0.081450
     59 H301        2.2470    5.2260    7.3040 h1        1 IM9      0.070700
     60 H302        2.4530    6.6990    8.3950 h1        1 IM9      0.070700
     61 H31         4.5670    5.5970    8.8610 ho        1 IM9      0.433000
     62 H152        1.7230    3.3840   -2.2320 hn        1 IM9      0.471300
@<TRIPOS>BOND
     1    1    2 1   
     2    1   33 1   
     3    1   34 1   
     4    1   35 1   
     5    2    3 1   
     6    2    4 1   
     7    2   36 1   
     8    3   37 1   
     9    3   38 1   
    10    3   39 1   
    11    4    5 1   
    12    4    9 1   
    13    5    6 1   
    14    5    7 2   
    15    6   40 1   
    16    6   41 1   
    17    6   42 1   
    18    7    8 1   
    19    8    9 2   
    20    8   43 1   
    21    9   10 1   
    22   10   11 ar  
    23   10   32 ar  
    24   11   12 ar  
    25   11   44 1   
    26   12   13 ar  
    27   12   45 1   
    28   13   14 ar  
    29   14   15 1   
    30   14   32 ar  
    31   15   16 1   
    32   15   46 1   
    33   15   62 1   
    34   16   17 ar  
    35   16   21 ar  
    36   17   18 ar  
    37   17   47 1   
    38   18   19 ar  
    39   18   49 1   
    40   19   20 ar  
    41   19   22 1   
    42   20   21 ar  
    43   20   50 1   
    44   21   48 1   
    45   22   23 1   
    46   22   27 1   
    47   23   24 1   
    48   23   51 1   
    49   23   52 1   
    50   24   25 1   
    51   24   55 1   
    52   24   56 1   
    53   25   26 1   
    54   25   28 1   
    55   26   27 1   
    56   26   57 1   
    57   26   58 1   
    58   27   53 1   
    59   27   54 1   
    60   28   29 2   
    61   28   30 1   
    62   30   31 1   
    63   30   59 1   
    64   30   60 1   
    65   31   61 1   
@<TRIPOS>SUBSTRUCTURE
     1 IM9         1 TEMP              0 ****  ****    0 ROOT
