@<TRIPOS>MOLECULE
IM9
   61    64     1     0     0
SMALL
bcc


@<TRIPOS>ATOM
      1 C1         -0.5990    0.3150   -0.5750 c3        1 IM9     -0.111100
      2 C2          0.9270    0.4250   -0.5240 c3        1 IM9      0.052000
      3 C3          1.3440    0.9710    0.8430 c3        1 IM9     -0.111100
      4 N4          1.6140   -0.8020   -0.8780 na        1 IM9     -0.160900
      5 C5          1.3170   -2.1110   -0.4520 cc        1 IM9      0.413800
      6 C6          0.2510   -2.4620    0.5210 c3        1 IM9     -0.123400
      7 N7          2.1360   -3.0220   -1.0570 nd        1 IM9     -0.674000
      8 C8          2.9700   -2.2990   -1.8850 cd        1 IM9      0.331200
      9 C9          2.6750   -0.9160   -1.7910 cc        1 IM9     -0.303100
     10 C10         3.3880    0.1520   -2.4800 ca        1 IM9      0.564800
     11 C11         3.7870   -0.0810   -3.8170 ca        1 IM9     -0.403600
     12 C12         4.5030    0.9470   -4.4530 ca        1 IM9      0.464200
     13 N13         4.8240    2.1030   -3.8580 nb        1 IM9     -0.746000
     14 C14         4.4200    2.2420   -2.5290 ca        1 IM9      0.871900
     15 N15         4.8610    3.4090   -1.8730 nu        1 IM9     -0.707300
     16 C16         4.3150    3.8390   -0.6420 ca        1 IM9      0.108600
     17 C17         4.3870    3.0420    0.5160 ca        1 IM9     -0.115000
     18 C18         3.9320    3.5260    1.7370 ca        1 IM9     -0.155000
     19 C19         3.3840    4.8190    1.8580 ca        1 IM9      0.119600
     20 C20         3.3140    5.6150    0.6910 ca        1 IM9     -0.155000
     21 C21         3.7660    5.1360   -0.5290 ca        1 IM9     -0.115000
     22 N22         2.8350    5.3140    3.0710 nh        1 IM9     -0.632000
     23 C23         2.7100    4.3520    4.1540 c3        1 IM9      0.159800
     24 C24         1.9290    4.9320    5.3580 c3        1 IM9      0.082000
     25 N25         2.4210    6.2150    5.7970 n         1 IM9     -0.456800
     26 C26         2.6010    7.1710    4.7240 c3        1 IM9      0.082000
     27 C27         3.3680    6.5970    3.5120 c3        1 IM9      0.159800
     28 C28         3.0330    6.4190    7.0220 c         1 IM9      0.618100
     29 O29         3.5810    7.5090    7.2930 o         1 IM9     -0.611100
     30 C30         2.9610    5.3470    8.1060 c3        1 IM9      0.071400
     31 O31         3.7710    5.6810    9.2090 oh        1 IM9     -0.590800
     32 N32         3.6880    1.3000   -1.8250 nb        1 IM9     -0.746000
     33 H1C1       -1.0210    1.3490   -0.6110 hc        1 IM9      0.049033
     34 H1C2       -0.9420   -0.2400   -1.4800 hc        1 IM9      0.049033
     35 H1C3       -0.9980   -0.1950    0.3330 hc        1 IM9      0.049033
     36 H2          1.2210    1.1930   -1.3050 h1        1 IM9      0.082700
     37 H3C1        1.1570    0.2270    1.6530 hc        1 IM9      0.049033
     38 H3C2        0.7450    1.8900    1.0540 hc        1 IM9      0.049033
     39 H3C3        2.4280    1.2450    0.8430 hc        1 IM9      0.049033
     40 H6C1       -0.7500   -2.4010    0.0250 hc        1 IM9      0.058367
     41 H6C2        0.4020   -3.5070    0.8920 hc        1 IM9      0.058367
     42 H6C3        0.2690   -1.7660    1.3960 hc        1 IM9      0.058367
     43 H8          3.7390   -2.7760   -2.4930 h4        1 IM9      0.044100
     44 H11         3.5400   -1.0170   -4.3300 ha        1 IM9      0.162000
     45 H12         4.8340    0.8460   -5.5030 h4        1 IM9      0.029100
     46 H15         5.1400    4.1500   -2.4840 hn        1 IM9      0.441800
     47 H17         4.8120    2.0260    0.4700 ha        1 IM9      0.145500
     48 H21         3.6930    5.7880   -1.4140 ha        1 IM9      0.145500
     49 H18         4.0190    2.8650    2.6140 ha        1 IM9      0.137000
     50 H20         2.8820    6.6270    0.7310 ha        1 IM9      0.137000
     51 H231        3.7160    3.9920    4.5160 h1        1 IM9      0.048450
     52 H232        2.1330    3.4640    3.7710 h1        1 IM9      0.048450
     53 H271        4.4620    6.5160    3.7770 h1        1 IM9      0.048450
     54 H272        3.2690    7.3370    2.6700 h1        1 IM9      0.048450
     55 H241        1.9670    4.1740    6.1880 h1        1 IM9      0.067950
     56 H242        0.8490    5.0670    5.0580 h1        1 IM9      0.067950
     57 H261        1.5770    7.5030    4.3890 h1        1 IM9      0.067950
     58 H262        3.1660    8.0690    5.1030 h1        1 IM9      0.067950
     59 H301        3.3620    4.3630    7.7390 h1        1 IM9      0.065200
     60 H302        1.8950    5.2320    8.4410 h1        1 IM9      0.065200
     61 H31         3.7700    6.6460    9.3110 ho        1 IM9      0.431000
@<TRIPOS>BOND
     1    1    2 1   
     2    1   33 1   
     3    1   34 1   
     4    1   35 1   
     5    2    3 1   
     6    2    4 1   
     7    2   36 1   
     8    3   37 1   
     9    3   38 1   
    10    3   39 1   
    11    4    5 1   
    12    4    9 1   
    13    5    6 1   
    14    5    7 2   
    15    6   40 1   
    16    6   41 1   
    17    6   42 1   
    18    7    8 1   
    19    8    9 2   
    20    8   43 1   
    21    9   10 1   
    22   10   11 ar  
    23   10   32 ar  
    24   11   12 ar  
    25   11   44 1   
    26   12   13 ar  
    27   12   45 1   
    28   13   14 ar  
    29   14   15 1   
    30   14   32 ar  
    31   15   16 1   
    32   15   46 1   
    33   16   17 ar  
    34   16   21 ar  
    35   17   18 ar  
    36   17   47 1   
    37   18   19 ar  
    38   18   49 1   
    39   19   20 ar  
    40   19   22 1   
    41   20   21 ar  
    42   20   50 1   
    43   21   48 1   
    44   22   23 1   
    45   22   27 1   
    46   23   24 1   
    47   23   51 1   
    48   23   52 1   
    49   24   25 1   
    50   24   55 1   
    51   24   56 1   
    52   25   26 1   
    53   25   28 1   
    54   26   27 1   
    55   26   57 1   
    56   26   58 1   
    57   27   53 1   
    58   27   54 1   
    59   28   29 2   
    60   28   30 1   
    61   30   31 1   
    62   30   59 1   
    63   30   60 1   
    64   31   61 1   
@<TRIPOS>SUBSTRUCTURE
     1 IM9         1 TEMP              0 ****  ****    0 ROOT
