@<TRIPOS>MOLECULE
IM9
   61    64     1     0     0
SMALL
bcc


@<TRIPOS>ATOM
      1 C1         -0.3420   -0.7790   -0.2520 c3        1 IM9     -0.112600
      2 C2          1.0250   -0.0900   -0.2810 c3        1 IM9      0.050000
      3 C3          1.2050    0.7190    1.0050 c3        1 IM9     -0.112600
      4 N4          2.1290   -0.9930   -0.5410 na        1 IM9     -0.160900
      5 C5          2.3790   -2.2410    0.0620 cc        1 IM9      0.415800
      6 C6          1.5460   -2.8470    1.1330 c3        1 IM9     -0.124400
      7 N7          3.4870   -2.8330   -0.4750 nd        1 IM9     -0.673000
      8 C8          3.9590   -1.9630   -1.4360 cd        1 IM9      0.332200
      9 C9          3.1400   -0.8080   -1.4980 cc        1 IM9     -0.302100
     10 C10         3.3630    0.3340   -2.3750 ca        1 IM9      0.563800
     11 C11         3.8570    0.0690   -3.6750 ca        1 IM9     -0.399600
     12 C12         4.1260    1.1810   -4.4900 ca        1 IM9      0.462200
     13 N13         3.9370    2.4470   -4.0980 nb        1 IM9     -0.746000
     14 C14         3.4310    2.6230   -2.8100 ca        1 IM9      0.861900
     15 N15         3.1310    3.9580   -2.4400 nh        1 IM9     -0.693300
     16 C16         3.1530    4.3570   -1.0810 ca        1 IM9      0.097600
     17 C17         2.2290    3.8480   -0.1510 ca        1 IM9     -0.111500
     18 C18         2.2180    4.3060    1.1620 ca        1 IM9     -0.155500
     19 C19         3.1090    5.3080    1.5980 ca        1 IM9      0.125600
     20 C20         4.0280    5.8250    0.6550 ca        1 IM9     -0.155500
     21 C21         4.0540    5.3550   -0.6480 ca        1 IM9     -0.111500
     22 N22         3.0640    5.8660    2.9020 nh        1 IM9     -0.634000
     23 C23         1.9180    5.4990    3.7160 c3        1 IM9      0.160800
     24 C24         1.8570    6.3150    5.0310 c3        1 IM9      0.081500
     25 N25         3.0980    6.3090    5.7670 n         1 IM9     -0.456800
     26 C26         4.2590    6.6220    4.9600 c3        1 IM9      0.081500
     27 C27         4.3210    5.8250    3.6370 c3        1 IM9      0.160800
     28 C28         3.2500    5.6970    6.9990 c         1 IM9      0.618100
     29 O29         4.3780    5.5820    7.5250 o         1 IM9     -0.611100
     30 C30         2.0260    5.2400    7.7880 c3        1 IM9      0.071400
     31 O31         2.4000    4.5060    8.9300 oh        1 IM9     -0.591800
     32 N32         3.1480    1.5960   -1.9270 nb        1 IM9     -0.740000
     33 H1C1       -0.5030   -1.3170    0.7120 hc        1 IM9      0.049200
     34 H1C2       -0.4550   -1.5040   -1.0930 hc        1 IM9      0.049200
     35 H1C3       -1.1300    0.0060   -0.3520 hc        1 IM9      0.049200
     36 H2          0.9970    0.6430   -1.1450 h1        1 IM9      0.083700
     37 H3C1        0.3350    1.4110    1.1120 hc        1 IM9      0.049200
     38 H3C2        1.2460    0.0550    1.9010 hc        1 IM9      0.049200
     39 H3C3        2.1410    1.3270    0.9610 hc        1 IM9      0.049200
     40 H6C1        2.1010   -3.6880    1.6180 hc        1 IM9      0.059033
     41 H6C2        0.6000   -3.2520    0.6920 hc        1 IM9      0.059033
     42 H6C3        1.2900   -2.0900    1.9140 hc        1 IM9      0.059033
     43 H8          4.8500   -2.1800   -2.0260 h4        1 IM9      0.044100
     44 H11         4.0210   -0.9560   -4.0220 ha        1 IM9      0.162000
     45 H12         4.5200    1.0540   -5.5150 h4        1 IM9      0.029100
     46 H15         3.5340    4.6390   -3.0560 hn        1 IM9      0.432800
     47 H17         1.5070    3.0700   -0.4480 ha        1 IM9      0.143000
     48 H21         4.7890    5.7820   -1.3510 ha        1 IM9      0.143000
     49 H18         1.4870    3.8600    1.8540 ha        1 IM9      0.136000
     50 H20         4.7340    6.6190    0.9450 ha        1 IM9      0.136000
     51 H231        0.9830    5.7240    3.1310 h1        1 IM9      0.048450
     52 H232        1.9190    4.4000    3.9740 h1        1 IM9      0.048450
     53 H271        5.1250    6.2880    3.0010 h1        1 IM9      0.048450
     54 H272        4.6260    4.7630    3.8650 h1        1 IM9      0.048450
     55 H241        1.6170    7.3890    4.7790 h1        1 IM9      0.068200
     56 H242        1.0130    5.9050    5.6490 h1        1 IM9      0.068200
     57 H261        4.2230    7.7240    4.7250 h1        1 IM9      0.068200
     58 H262        5.1990    6.4070    5.5420 h1        1 IM9      0.068200
     59 H301        1.3870    4.5370    7.1870 h1        1 IM9      0.064700
     60 H302        1.4290    6.1410    8.0960 h1        1 IM9      0.064700
     61 H31         3.2370    4.8620    9.2650 ho        1 IM9      0.432000
@<TRIPOS>BOND
     1    1    2 1   
     2    1   33 1   
     3    1   34 1   
     4    1   35 1   
     5    2    3 1   
     6    2    4 1   
     7    2   36 1   
     8    3   37 1   
     9    3   38 1   
    10    3   39 1   
    11    4    5 1   
    12    4    9 1   
    13    5    6 1   
    14    5    7 2   
    15    6   40 1   
    16    6   41 1   
    17    6   42 1   
    18    7    8 1   
    19    8    9 2   
    20    8   43 1   
    21    9   10 1   
    22   10   11 ar  
    23   10   32 ar  
    24   11   12 ar  
    25   11   44 1   
    26   12   13 ar  
    27   12   45 1   
    28   13   14 ar  
    29   14   15 1   
    30   14   32 ar  
    31   15   16 1   
    32   15   46 1   
    33   16   17 ar  
    34   16   21 ar  
    35   17   18 ar  
    36   17   47 1   
    37   18   19 ar  
    38   18   49 1   
    39   19   20 ar  
    40   19   22 1   
    41   20   21 ar  
    42   20   50 1   
    43   21   48 1   
    44   22   23 1   
    45   22   27 1   
    46   23   24 1   
    47   23   51 1   
    48   23   52 1   
    49   24   25 1   
    50   24   55 1   
    51   24   56 1   
    52   25   26 1   
    53   25   28 1   
    54   26   27 1   
    55   26   57 1   
    56   26   58 1   
    57   27   53 1   
    58   27   54 1   
    59   28   29 2   
    60   28   30 1   
    61   30   31 1   
    62   30   59 1   
    63   30   60 1   
    64   31   61 1   
@<TRIPOS>SUBSTRUCTURE
     1 IM9         1 TEMP              0 ****  ****    0 ROOT
