@<TRIPOS>MOLECULE
IM9
   61    64     1     0     0
SMALL
bcc


@<TRIPOS>ATOM
      1 C1          0.5120   28.3260   12.1790 c3        1 IM9     -0.111100
      2 C2          0.2460   28.2920   10.6710 c3        1 IM9      0.052000
      3 C3          0.5680   26.8940   10.1380 c3        1 IM9     -0.111100
      4 N4         -1.0800   28.7480   10.3010 na        1 IM9     -0.160900
      5 C5         -2.3080   28.4170   10.9080 cc        1 IM9      0.413800
      6 C6         -2.4650   27.4560   12.0290 c3        1 IM9     -0.123400
      7 N7         -3.3400   29.1020   10.3320 nd        1 IM9     -0.674000
      8 C8         -2.7790   29.8870    9.3450 cd        1 IM9      0.331200
      9 C9         -1.3770   29.6840    9.2970 cc        1 IM9     -0.303100
     10 C10        -0.4630   30.3030    8.3450 ca        1 IM9      0.564800
     11 C11        -0.6800   31.6600    8.0130 ca        1 IM9     -0.403600
     12 C12         0.1910   32.2280    7.0680 ca        1 IM9      0.464200
     13 N13         1.1840   31.5520    6.4770 nb        1 IM9     -0.746000
     14 C14         1.3130   30.2100    6.8380 ca        1 IM9      0.870900
     15 N15         2.2830   29.4750    6.1280 nh        1 IM9     -0.707300
     16 C16         2.7360   28.2060    6.5550 ca        1 IM9      0.108600
     17 C17         1.8570   27.1130    6.6820 ca        1 IM9     -0.115000
     18 C18         2.3390   25.8510    7.0080 ca        1 IM9     -0.155500
     19 C19         3.7140   25.6220    7.2260 ca        1 IM9      0.119600
     20 C20         4.5910   26.7240    7.0980 ca        1 IM9     -0.155500
     21 C21         4.1140   27.9850    6.7740 ca        1 IM9     -0.115000
     22 N22         4.2300   24.3660    7.6410 nh        1 IM9     -0.632000
     23 C23         3.2470   23.3590    7.9990 c3        1 IM9      0.161300
     24 C24         3.8980   22.1000    8.6230 c3        1 IM9      0.084000
     25 N25         4.9980   21.5790    7.8490 n         1 IM9     -0.459800
     26 C26         5.9560   22.5770    7.4270 c3        1 IM9      0.084000
     27 C27         5.3050   23.8360    6.8130 c3        1 IM9      0.161300
     28 C28         4.9870   20.3240    7.2640 c         1 IM9      0.620100
     29 O29         5.8540   19.9940    6.4270 o         1 IM9     -0.613100
     30 C30         3.9360   19.2970    7.6760 c3        1 IM9      0.072400
     31 O31         4.3190   17.9970    7.2950 oh        1 IM9     -0.589800
     32 N32         0.5240   29.5670    7.7770 nb        1 IM9     -0.746000
     33 H1C1        1.6170   28.2770   12.3380 hc        1 IM9      0.049033
     34 H1C2        0.1280   29.2650   12.6440 hc        1 IM9      0.049033
     35 H1C3        0.0450   27.4520   12.6910 hc        1 IM9      0.049033
     36 H2          0.9770   29.0170   10.1990 h1        1 IM9      0.082700
     37 H3C1        0.5710   26.8910    9.0200 hc        1 IM9      0.049033
     38 H3C2        1.5850   26.6050   10.4970 hc        1 IM9      0.049033
     39 H3C3       -0.1690   26.1400   10.5020 hc        1 IM9      0.049033
     40 H6C1       -1.8630   26.5310   11.8450 hc        1 IM9      0.058367
     41 H6C2       -2.1250   27.9300   12.9840 hc        1 IM9      0.058367
     42 H6C3       -3.5400   27.1670   12.1370 hc        1 IM9      0.058367
     43 H8         -3.3780   30.5410    8.7130 h4        1 IM9      0.044100
     44 H11        -1.4860   32.2380    8.4790 ha        1 IM9      0.162000
     45 H12         0.0940   33.2890    6.7690 h4        1 IM9      0.029100
     46 H15         2.9820   30.0330    5.6780 hn        1 IM9      0.441800
     47 H17         0.7750   27.2430    6.5160 ha        1 IM9      0.145500
     48 H21         4.8310   28.8160    6.6840 ha        1 IM9      0.145500
     49 H18         1.6110   25.0290    7.0860 ha        1 IM9      0.137000
     50 H20         5.6710   26.5990    7.2720 ha        1 IM9      0.137000
     51 H231        2.5550   23.7990    8.7710 h1        1 IM9      0.048200
     52 H232        2.6280   23.0400    7.1100 h1        1 IM9      0.048200
     53 H271        4.9370   23.5880    5.7750 h1        1 IM9      0.048200
     54 H272        6.1080   24.6190    6.7180 h1        1 IM9      0.048200
     55 H241        4.2920   22.3650    9.6460 h1        1 IM9      0.067450
     56 H242        3.0870   21.3300    8.7450 h1        1 IM9      0.067450
     57 H261        6.5560   22.8790    8.3330 h1        1 IM9      0.067450
     58 H262        6.6560   22.1370    6.6620 h1        1 IM9      0.067450
     59 H301        3.8120   19.2510    8.7910 h1        1 IM9      0.064200
     60 H302        2.9590   19.5630    7.1850 h1        1 IM9      0.064200
     61 H31         4.8050   18.0520    6.4580 ho        1 IM9      0.431000
@<TRIPOS>BOND
     1    1    2 1   
     2    1   33 1   
     3    1   34 1   
     4    1   35 1   
     5    2    3 1   
     6    2    4 1   
     7    2   36 1   
     8    3   37 1   
     9    3   38 1   
    10    3   39 1   
    11    4    5 1   
    12    4    9 1   
    13    5    6 1   
    14    5    7 2   
    15    6   40 1   
    16    6   41 1   
    17    6   42 1   
    18    7    8 1   
    19    8    9 2   
    20    8   43 1   
    21    9   10 1   
    22   10   11 ar  
    23   10   32 ar  
    24   11   12 ar  
    25   11   44 1   
    26   12   13 ar  
    27   12   45 1   
    28   13   14 ar  
    29   14   15 1   
    30   14   32 ar  
    31   15   16 1   
    32   15   46 1   
    33   16   17 ar  
    34   16   21 ar  
    35   17   18 ar  
    36   17   47 1   
    37   18   19 ar  
    38   18   49 1   
    39   19   20 ar  
    40   19   22 1   
    41   20   21 ar  
    42   20   50 1   
    43   21   48 1   
    44   22   23 1   
    45   22   27 1   
    46   23   24 1   
    47   23   51 1   
    48   23   52 1   
    49   24   25 1   
    50   24   55 1   
    51   24   56 1   
    52   25   26 1   
    53   25   28 1   
    54   26   27 1   
    55   26   57 1   
    56   26   58 1   
    57   27   53 1   
    58   27   54 1   
    59   28   29 2   
    60   28   30 1   
    61   30   31 1   
    62   30   59 1   
    63   30   60 1   
    64   31   61 1   
@<TRIPOS>SUBSTRUCTURE
     1 IM9         1 TEMP              0 ****  ****    0 ROOT
