@<TRIPOS>MOLECULE
IMA
   79    83     1     0     0
SMALL
bcc


@<TRIPOS>ATOM
      1 C11         0.2070    0.3070   -0.1990 ca        1 IMA      0.144100
      2 C12         1.6260    0.3080   -0.0510 ca        1 IMA     -0.104000
      3 C13         2.2230    0.4750    1.1790 ca        1 IMA     -0.136000
      4 C14         1.3960    0.6460    2.3110 ca        1 IMA     -0.010200
      5 C15        -0.0490    0.6280    2.1660 ca        1 IMA     -0.075800
      6 C16        -0.6330    0.4660    0.9020 ca        1 IMA     -0.119000
      7 C17        -0.5910    0.7760    3.4700 cc        1 IMA     -0.068200
      8 N18         1.7180    0.8280    3.6550 na        1 IMA     -0.022400
      9 C19         0.4960    0.8850    4.3760 cd        1 IMA     -0.239300
     10 C20         3.0520    0.7930    4.1960 c3        1 IMA      0.077600
     11 C21         0.4220    1.0410    5.7990 c         1 IMA      0.592300
     12 N22        -0.9720    0.7760    6.3840 n4        1 IMA     -0.674800
     13 C23        -0.9330    0.4970    7.8510 c3        1 IMA      0.158100
     14 C24        -2.2850    0.2470    8.4410 ca        1 IMA     -0.134300
     15 O27         1.2840    1.3500    6.6150 o         1 IMA     -0.472100
     16 C28         3.8350    2.0730    4.0550 ca        1 IMA     -0.110300
     17 C31         5.6460    3.3320    3.0590 ca        1 IMA     -0.250900
     18 C32         4.8870    2.1580    3.1380 ca        1 IMA     -0.070000
     19 C33         3.5490    3.1640    4.8850 ca        1 IMA     -0.061000
     20 C34         4.3010    4.3350    4.7950 ca        1 IMA     -0.107000
     21 C35         5.3510    4.4260    3.8830 ca        1 IMA     -0.081000
     22 C36         6.7240    3.4380    2.0500 ce        1 IMA      0.579800
     23 N37         8.0900    3.5380    2.6760 n4        1 IMA     -0.821600
     24 N38         6.6820    3.4630    0.7750 n2        1 IMA     -0.689100
     25 C39        -3.9850   -1.3120    9.1910 ca        1 IMA     -0.098500
     26 C40        -4.7100   -0.2550    9.7790 ca        1 IMA      0.019600
     27 C41        -4.2180    1.0580    9.6710 ca        1 IMA     -0.098500
     28 C42        -3.0130    1.2980    9.0060 ca        1 IMA     -0.080500
     29 C43        -2.7860   -1.0570    8.5310 ca        1 IMA     -0.080500
     30 N44        -5.9640   -0.5590   10.5120 n4        1 IMA     -0.486200
     31 C45        -5.6570   -1.4920   11.6480 c3        1 IMA      0.090767
     32 C49        -6.9410   -1.2120    9.5790 c3        1 IMA      0.090767
     33 C53        -6.6060    0.6700   11.0780 c3        1 IMA      0.090767
     34 O1         -0.4380    0.1650   -1.3970 os        1 IMA     -0.304900
     35 C1          0.3800   -0.1090   -2.5580 c3        1 IMA      0.182700
     36 C2         -0.5610   -0.2990   -3.6970 ca        1 IMA     -0.128300
     37 C3         -1.1970    0.8070   -4.2720 ca        1 IMA     -0.100500
     38 C4         -2.0460    0.6320   -5.3640 ca        1 IMA     -0.126500
     39 C5         -2.2630   -0.6440   -5.8840 ca        1 IMA     -0.096000
     40 C6         -1.6330   -1.7490   -5.3080 ca        1 IMA     -0.126500
     41 C7         -0.7860   -1.5790   -4.2130 ca        1 IMA     -0.100500
     42 H12         2.2620    0.1680   -0.9420 ha        1 IMA      0.167000
     43 H13         3.3170    0.4670    1.2820 ha        1 IMA      0.139000
     44 H16        -1.7260    0.4600    0.7730 ha        1 IMA      0.179000
     45 H17        -1.6540    0.8200    3.7030 ha        1 IMA      0.157000
     46 H201        3.6080   -0.0410    3.6710 h1        1 IMA      0.090700
     47 H202        2.9910    0.5370    5.2960 h1        1 IMA      0.090700
     48 H22        -1.5550    1.6010    6.2050 hn        1 IMA      0.458300
     49 H231       -0.4400    1.3810    8.3570 hx        1 IMA      0.130200
     50 H232       -0.2650   -0.4020    8.0080 hx        1 IMA      0.130200
     51 H32         5.1200    1.3020    2.4830 ha        1 IMA      0.150000
     52 H33         2.7300    3.0900    5.6200 ha        1 IMA      0.156000
     53 H34         4.0650    5.1950    5.4460 ha        1 IMA      0.175000
     54 H35         5.9240    5.3640    3.8050 ha        1 IMA      0.155000
     55 H371        8.0820    4.3140    3.3480 hn        1 IMA      0.476467
     56 H372        8.8240    3.7040    1.9720 hn        1 IMA      0.476467
     57 H38         5.7960    3.4180    0.3150 hn        1 IMA      0.490400
     58 H39        -4.3380   -2.3570    9.2490 ha        1 IMA      0.177500
     59 H41        -4.7430    1.9260   10.1060 ha        1 IMA      0.177500
     60 H42        -2.6340    2.3340    8.9580 ha        1 IMA      0.171000
     61 H43        -2.2240   -1.9050    8.1010 ha        1 IMA      0.171000
     62 H451       -4.9130   -1.0080   12.3350 hx        1 IMA      0.109811
     63 H452       -5.2370   -2.4530   11.2480 hx        1 IMA      0.109811
     64 H453       -6.6080   -1.7060   12.2090 hx        1 IMA      0.109811
     65 H491       -7.1580   -0.5180    8.7250 hx        1 IMA      0.109811
     66 H492       -6.5120   -2.1730    9.1900 hx        1 IMA      0.109811
     67 H493       -7.8900   -1.4290   10.1410 hx        1 IMA      0.109811
     68 H531       -6.8710    1.3760   10.2470 hx        1 IMA      0.109811
     69 H532       -5.9080    1.1610   11.8080 hx        1 IMA      0.109811
     70 H533       -7.5460    0.3670   11.6170 hx        1 IMA      0.109811
     71 HC11        0.9870   -1.0330   -2.3660 h1        1 IMA      0.048700
     72 HC12        1.0540    0.7720   -2.7340 h1        1 IMA      0.048700
     73 HC3        -1.0260    1.8130   -3.8610 ha        1 IMA      0.131500
     74 HC4        -2.5430    1.5030   -5.8180 ha        1 IMA      0.148000
     75 HC5        -2.9290   -0.7810   -6.7500 ha        1 IMA      0.151000
     76 HC6        -1.8030   -2.7560   -5.7190 ha        1 IMA      0.148000
     77 HC7        -0.2930   -2.4530   -3.7620 ha        1 IMA      0.131500
     78 H222       -1.3870   -0.0210    5.8890 hn        1 IMA      0.458300
     79 H373        8.2900    2.6630    3.1720 hn        1 IMA      0.476467
@<TRIPOS>BOND
     1    1    2 ar  
     2    1    6 ar  
     3    1   34 1   
     4    2    3 ar  
     5    2   42 1   
     6    3    4 ar  
     7    3   43 1   
     8    4    5 ar  
     9    4    8 1   
    10    5    6 ar  
    11    5    7 1   
    12    6   44 1   
    13    7    9 2   
    14    7   45 1   
    15    8    9 1   
    16    8   10 1   
    17    9   11 1   
    18   10   16 1   
    19   10   46 1   
    20   10   47 1   
    21   11   12 1   
    22   11   15 2   
    23   12   13 1   
    24   12   48 1   
    25   12   78 1   
    26   13   14 1   
    27   13   49 1   
    28   13   50 1   
    29   14   28 ar  
    30   14   29 ar  
    31   16   18 ar  
    32   16   19 ar  
    33   17   18 ar  
    34   17   21 ar  
    35   17   22 1   
    36   18   51 1   
    37   19   20 ar  
    38   19   52 1   
    39   20   21 ar  
    40   20   53 1   
    41   21   54 1   
    42   22   23 1   
    43   22   24 2   
    44   23   55 1   
    45   23   56 1   
    46   23   79 1   
    47   24   57 1   
    48   25   26 ar  
    49   25   29 ar  
    50   25   58 1   
    51   26   27 ar  
    52   26   30 1   
    53   27   28 ar  
    54   27   59 1   
    55   28   60 1   
    56   29   61 1   
    57   30   31 1   
    58   30   32 1   
    59   30   33 1   
    60   31   62 1   
    61   31   63 1   
    62   31   64 1   
    63   32   65 1   
    64   32   66 1   
    65   32   67 1   
    66   33   68 1   
    67   33   69 1   
    68   33   70 1   
    69   34   35 1   
    70   35   36 1   
    71   35   71 1   
    72   35   72 1   
    73   36   37 ar  
    74   36   41 ar  
    75   37   38 ar  
    76   37   73 1   
    77   38   39 ar  
    78   38   74 1   
    79   39   40 ar  
    80   39   75 1   
    81   40   41 ar  
    82   40   76 1   
    83   41   77 1   
@<TRIPOS>SUBSTRUCTURE
     1 IMA         1 TEMP              0 ****  ****    0 ROOT
