@<TRIPOS>MOLECULE
IMA
   79    83     1     0     0
SMALL
bcc


@<TRIPOS>ATOM
      1 C11         0.2020    0.3120   -0.2010 ca        1 IMA      0.144100
      2 C12         1.6210    0.3070   -0.0540 ca        1 IMA     -0.104000
      3 C13         2.2190    0.4720    1.1770 ca        1 IMA     -0.136000
      4 C14         1.3930    0.6450    2.3090 ca        1 IMA     -0.010200
      5 C15        -0.0510    0.6310    2.1650 ca        1 IMA     -0.075800
      6 C16        -0.6370    0.4720    0.9010 ca        1 IMA     -0.119000
      7 C17        -0.5930    0.7800    3.4690 cc        1 IMA     -0.068200
      8 N18         1.7160    0.8240    3.6530 na        1 IMA     -0.022400
      9 C19         0.4960    0.8840    4.3750 cd        1 IMA     -0.239300
     10 C20         3.0510    0.7860    4.1930 c3        1 IMA      0.077600
     11 C21         0.4220    1.0390    5.7980 c         1 IMA      0.592300
     12 N22        -0.9720    0.7780    6.3840 ny        1 IMA     -0.674800
     13 C23        -0.9300    0.4840    7.8490 c3        1 IMA      0.158100
     14 C24        -2.2830    0.2420    8.4410 ca        1 IMA     -0.134300
     15 O27         1.2860    1.3460    6.6140 o         1 IMA     -0.472100
     16 C28         3.8370    2.0630    4.0530 ca        1 IMA     -0.110300
     17 C31         5.6510    3.3180    3.0570 ca        1 IMA     -0.250900
     18 C32         4.8890    2.1460    3.1350 ca        1 IMA     -0.070000
     19 C33         3.5540    3.1540    4.8830 ca        1 IMA     -0.061000
     20 C34         4.3090    4.3240    4.7940 ca        1 IMA     -0.107000
     21 C35         5.3600    4.4120    3.8820 ca        1 IMA     -0.081000
     22 C36         6.7290    3.4220    2.0470 ce        1 IMA      0.579800
     23 N37         8.0950    3.5180    2.6730 nz        1 IMA     -0.821600
     24 N38         6.6860    3.4490    0.7720 n2        1 IMA     -0.689100
     25 C39        -3.9930   -1.3090    9.1840 ca        1 IMA     -0.098500
     26 C40        -4.7060   -0.2510    9.7840 ca        1 IMA      0.019600
     27 C41        -4.2030    1.0580    9.6850 ca        1 IMA     -0.098500
     28 C42        -2.9990    1.2940    9.0180 ca        1 IMA     -0.080500
     29 C43        -2.7940   -1.0590    8.5210 ca        1 IMA     -0.080500
     30 N44        -5.9600   -0.5510   10.5180 n4        1 IMA     -0.486200
     31 C45        -5.6580   -1.4970   11.6450 c3        1 IMA      0.090767
     32 C49        -6.9470   -1.1870    9.5830 c3        1 IMA      0.090767
     33 C53        -6.5890    0.6790   11.0970 c3        1 IMA      0.090767
     34 O1         -0.4440    0.1720   -1.3980 os        1 IMA     -0.304900
     35 C1          0.3730   -0.1040   -2.5600 c3        1 IMA      0.182700
     36 C2         -0.5700   -0.2890   -3.6990 ca        1 IMA     -0.128300
     37 C3         -1.2010    0.8190   -4.2750 ca        1 IMA     -0.100500
     38 C4         -2.0500    0.6480   -5.3660 ca        1 IMA     -0.126500
     39 C5         -2.2730   -0.6280   -5.8850 ca        1 IMA     -0.096000
     40 C6         -1.6490   -1.7350   -5.3090 ca        1 IMA     -0.126500
     41 C7         -0.8010   -1.5690   -4.2150 ca        1 IMA     -0.100500
     42 H12         2.2560    0.1660   -0.9450 ha        1 IMA      0.167000
     43 H13         3.3130    0.4610    1.2790 ha        1 IMA      0.139000
     44 H16        -1.7300    0.4700    0.7730 ha        1 IMA      0.179000
     45 H17        -1.6550    0.8270    3.7030 ha        1 IMA      0.157000
     46 H201        3.6050   -0.0500    3.6670 h1        1 IMA      0.090700
     47 H202        2.9900    0.5290    5.2930 h1        1 IMA      0.090700
     48 H22        -1.5500    1.6080    6.2150 hn        1 IMA      0.458300
     49 H231       -0.4280    1.3600    8.3610 hx        1 IMA      0.130200
     50 H232       -0.2690   -0.4210    7.9940 hx        1 IMA      0.130200
     51 H32         5.1190    1.2900    2.4800 ha        1 IMA      0.150000
     52 H33         2.7360    3.0830    5.6200 ha        1 IMA      0.156000
     53 H34         4.0770    5.1830    5.4460 ha        1 IMA      0.175000
     54 H35         5.9350    5.3490    3.8040 ha        1 IMA      0.155000
     55 H371        8.0900    4.2940    3.3450 hn        1 IMA      0.476467
     56 H372        8.8300    3.6820    1.9680 hn        1 IMA      0.476467
     57 H38         5.8000    3.4050    0.3130 hn        1 IMA      0.490400
     58 H39        -4.3560   -2.3520    9.2330 ha        1 IMA      0.177500
     59 H41        -4.7190    1.9270   10.1300 ha        1 IMA      0.177500
     60 H42        -2.6110    2.3260    8.9780 ha        1 IMA      0.171000
     61 H43        -2.2410   -1.9070    8.0820 ha        1 IMA      0.171000
     62 H451       -4.9070   -1.0250   12.3330 hx        1 IMA      0.109811
     63 H452       -5.2480   -2.4570   11.2350 hx        1 IMA      0.109811
     64 H453       -6.6080   -1.7070   12.2070 hx        1 IMA      0.109811
     65 H491       -7.1610   -0.4830    8.7360 hx        1 IMA      0.109811
     66 H492       -6.5280   -2.1470    9.1840 hx        1 IMA      0.109811
     67 H493       -7.8960   -1.4010   10.1460 hx        1 IMA      0.109811
     68 H531       -6.8520    1.3950   10.2740 hx        1 IMA      0.109811
     69 H532       -5.8850    1.1570   11.8290 hx        1 IMA      0.109811
     70 H533       -7.5300    0.3800   11.6370 hx        1 IMA      0.109811
     71 HC11        0.9770   -1.0300   -2.3700 h1        1 IMA      0.048700
     72 HC12        1.0490    0.7750   -2.7360 h1        1 IMA      0.048700
     73 HC3        -1.0250    1.8240   -3.8640 ha        1 IMA      0.131500
     74 HC4        -2.5430    1.5210   -5.8210 ha        1 IMA      0.148000
     75 HC5        -2.9410   -0.7620   -6.7510 ha        1 IMA      0.151000
     76 HC6        -1.8240   -2.7420   -5.7190 ha        1 IMA      0.148000
     77 HC7        -0.3120   -2.4450   -3.7630 ha        1 IMA      0.131500
     78 H222       -1.3930   -0.0120    5.8830 hn        1 IMA      0.458300
     79 H373        8.2930    2.6420    3.1680 hn        1 IMA      0.476467
@<TRIPOS>BOND
     1    1    2 ar  
     2    1    6 ar  
     3    1   34 1   
     4    2    3 ar  
     5    2   42 1   
     6    3    4 ar  
     7    3   43 1   
     8    4    5 ar  
     9    4    8 1   
    10    5    6 ar  
    11    5    7 1   
    12    6   44 1   
    13    7    9 2   
    14    7   45 1   
    15    8    9 1   
    16    8   10 1   
    17    9   11 1   
    18   10   16 1   
    19   10   46 1   
    20   10   47 1   
    21   11   12 1   
    22   11   15 2   
    23   12   13 1   
    24   12   48 1   
    25   12   78 1   
    26   13   14 1   
    27   13   49 1   
    28   13   50 1   
    29   14   28 ar  
    30   14   29 ar  
    31   16   18 ar  
    32   16   19 ar  
    33   17   18 ar  
    34   17   21 ar  
    35   17   22 1   
    36   18   51 1   
    37   19   20 ar  
    38   19   52 1   
    39   20   21 ar  
    40   20   53 1   
    41   21   54 1   
    42   22   23 1   
    43   22   24 2   
    44   23   55 1   
    45   23   56 1   
    46   23   79 1   
    47   24   57 1   
    48   25   26 ar  
    49   25   29 ar  
    50   25   58 1   
    51   26   27 ar  
    52   26   30 1   
    53   27   28 ar  
    54   27   59 1   
    55   28   60 1   
    56   29   61 1   
    57   30   31 1   
    58   30   32 1   
    59   30   33 1   
    60   31   62 1   
    61   31   63 1   
    62   31   64 1   
    63   32   65 1   
    64   32   66 1   
    65   32   67 1   
    66   33   68 1   
    67   33   69 1   
    68   33   70 1   
    69   34   35 1   
    70   35   36 1   
    71   35   71 1   
    72   35   72 1   
    73   36   37 ar  
    74   36   41 ar  
    75   37   38 ar  
    76   37   73 1   
    77   38   39 ar  
    78   38   74 1   
    79   39   40 ar  
    80   39   75 1   
    81   40   41 ar  
    82   40   76 1   
    83   41   77 1   
@<TRIPOS>SUBSTRUCTURE
     1 IMA         1 TEMP              0 ****  ****    0 ROOT
