@<TRIPOS>MOLECULE
IMA
   77    66     1     0     0
SMALL
bcc


@<TRIPOS>ATOM
      1 C11         0.3470    1.3770   -4.0520 c1        1 IMA      0.062000
      2 C12         1.7400    1.4380   -4.0660 c1        1 IMA     -0.123000
      3 C13         2.4550    1.4400   -2.8570 c1        1 IMA     -0.123000
      4 C14         1.7700    1.3800   -1.6330 c1        1 IMA     -0.036500
      5 C15         0.4010    1.3190   -1.6130 c1        1 IMA     -0.036500
      6 C16        -0.3310    1.3170   -2.8410 c1        1 IMA     -0.114000
      7 C17        -0.0040    1.2670   -0.2800 c1        1 IMA     -0.157000
      8 N18         2.2280    1.3660   -0.3010 n1        1 IMA     -0.126000
      9 C19         1.1420    1.2970    0.5200 c1        1 IMA     -0.090000
     10 C20         3.6360    1.5990   -0.0500 c2        1 IMA      0.020000
     11 C21         1.0890    1.2440    2.0880 c1        1 IMA      0.378000
     12 N22        -0.1590    1.1630    2.7520 n3        1 IMA     -0.380000
     13 C23        -0.2150    0.7320    4.1400 c3        1 IMA      0.010000
     14 C24        -1.6360    0.1780    4.4580 c2        1 IMA     -0.049000
     15 O27         2.1210    1.3300    2.7380 o         1 IMA     -0.391000
     16 C28         4.3930    0.2480   -0.0490 c2        1 IMA     -0.113000
     17 C31         6.4620   -0.9820    0.2000 c1        1 IMA     -0.113000
     18 C32         5.7510    0.2060    0.3120 c2        1 IMA     -0.098000
     19 C33         3.7630   -0.8950   -0.5160 c1        1 IMA     -0.095000
     20 C34         4.4750   -2.0870   -0.6290 c1        1 IMA     -0.123000
     21 C35         5.8280   -2.1310   -0.2710 c1        1 IMA     -0.123000
     22 C36         7.9920   -1.0090    0.5070 c2        1 IMA      0.111000
     23 N37         8.9280   -0.6880   -0.5180 n3        1 IMA     -0.330000
     24 N38         8.4320   -1.3390    1.7550 n1        1 IMA     -0.294000
     25 C39        -3.6600    0.5240    5.7280 c1        1 IMA     -0.106000
     26 C40        -4.1420   -0.7080    5.2950 c1        1 IMA     -0.122000
     27 C41        -3.3720   -1.4920    4.4450 c1        1 IMA     -0.115000
     28 C42        -2.1120   -1.0430    4.0270 c2        1 IMA     -0.089000
     29 C43        -2.4040    0.9670    5.3090 c1        1 IMA     -0.105000
     30 N44        -5.5120   -1.1470    5.6730 n4        1 IMA      0.083000
     31 C45        -5.4350   -2.3890    6.3890 c3        1 IMA     -0.181667
     32 C49        -6.3200   -1.3320    4.4710 c3        1 IMA     -0.181667
     33 C53        -6.1050   -0.1790    6.4830 c3        1 IMA     -0.181667
     34 O1         -0.3730    1.4330   -5.3200 os        1 IMA     -0.211000
     35 C1         -0.3950    0.2080   -6.0190 c3        1 IMA      0.019000
     36 C2         -1.1230    0.3930   -7.3580 c2        1 IMA     -0.093000
     37 C3         -0.3960    0.5110   -8.5260 c2        1 IMA     -0.121000
     38 C4         -1.0520    0.5560   -9.7530 c1        1 IMA     -0.129000
     39 C5         -2.4390    0.4810   -9.8040 c1        1 IMA     -0.123000
     40 C6         -3.1690    0.3630   -8.6360 c1        1 IMA     -0.123000
     41 C7         -2.5150    0.3190   -7.4090 c1        1 IMA     -0.102000
     42 H12         2.2180    1.4790   -4.9150 ha        1 IMA      0.141167
     43 H13         3.4050    1.4840   -2.8660 ha        1 IMA      0.141167
     44 H16        -1.3180    1.2730   -2.8290 ha        1 IMA      0.155000
     45 H17        -0.9090    1.2180    0.0340 DU        1 IMA      0.151500
     46 H201        4.0000    2.1750   -0.7510 ha        1 IMA      0.118000
     47 H202        3.7470    2.0370    0.8230 ha        1 IMA      0.118000
     48 H22        -0.9250    1.3030    2.2910 hn        1 IMA      0.244000
     49 H231        0.4670    0.0110    4.2930 h1        1 IMA      0.121000
     50 H232       -0.0160    1.5200    4.7460 h1        1 IMA      0.121000
     51 H32         6.1950    1.0140    0.6420 ha        1 IMA      0.138000
     52 H33         2.8220   -0.8640   -0.7650 ha        1 IMA      0.152000
     53 H34         4.0250   -2.9010   -0.9630 ha        1 IMA      0.141167
     54 H35         6.3300   -2.9710   -0.3500 ha        1 IMA      0.141167
     55 H371        9.8060   -0.9280   -0.4280 hn        1 IMA      0.196000
     56 H372        8.6550   -0.2220   -1.2560 hn        1 IMA      0.196000
     57 H38         7.8190   -1.5500    2.4250 DU        1 IMA      0.151500
     58 H39        -4.1930    1.0710    6.3190 ha        1 IMA      0.152000
     59 H41        -3.7000   -2.3380    4.1460 ha        1 IMA      0.150000
     60 H42        -1.5570   -1.6090    3.4150 ha        1 IMA      0.198000
     61 H43        -2.0620    1.8350    5.6130 ha        1 IMA      0.164000
     62 H451       -4.7280   -2.3260    7.0910 hx        1 IMA      0.140111
     63 H452       -6.2940   -2.5750    6.8110 hx        1 IMA      0.140111
     64 H453       -5.2100   -3.1260    5.7550 hx        1 IMA      0.140111
     65 H491       -7.2460   -1.5330    4.7290 hx        1 IMA      0.140111
     66 H492       -5.9620   -2.0690    3.9500 hx        1 IMA      0.140111
     67 H493       -6.3010   -0.4820    3.9130 hx        1 IMA      0.140111
     68 H531       -5.5460   -0.0280    7.2780 hx        1 IMA      0.140111
     69 H532       -7.0100   -0.4920    6.7670 hx        1 IMA      0.140111
     70 H533       -6.1920    0.6520    5.9860 hx        1 IMA      0.140111
     71 HC11       -0.8620   -0.4650   -5.4840 h1        1 IMA      0.087000
     72 HC12        0.5270   -0.0890   -6.1860 h1        1 IMA      0.087000
     73 HC3         0.5460    0.5620   -8.4920 ha        1 IMA      0.130000
     74 HC4        -0.5400    0.6390  -10.5720 ha        1 IMA      0.136000
     75 HC5        -2.9060    0.5130  -10.6800 ha        1 IMA      0.141167
     76 HC6        -4.1530    0.3100   -8.6730 ha        1 IMA      0.141167
     77 HC7        -3.0160    0.2380   -6.6050 ha        1 IMA      0.144000
@<TRIPOS>BOND
     1    1    6 1   
     2    1   34 1   
     3    2    3 1   
     4    2   42 1   
     5    3   43 1   
     6    4    5 1   
     7    6   44 1   
     8    7    9 1   
     9    8    9 1   
    10   10   16 1   
    11   10   46 1   
    12   10   47 1   
    13   11   12 1   
    14   11   15 1   
    15   12   13 1   
    16   12   48 1   
    17   13   14 1   
    18   13   49 1   
    19   13   50 1   
    20   14   28 1   
    21   14   29 1   
    22   16   18 1   
    23   16   19 1   
    24   17   18 1   
    25   17   22 1   
    26   18   51 1   
    27   19   52 1   
    28   20   21 1   
    29   20   53 1   
    30   21   54 1   
    31   22   23 1   
    32   22   24 1   
    33   23   55 1   
    34   23   56 1   
    35   25   26 1   
    36   25   58 1   
    37   26   30 1   
    38   27   28 1   
    39   27   59 1   
    40   28   60 1   
    41   29   61 1   
    42   30   31 1   
    43   30   32 1   
    44   30   33 1   
    45   31   62 1   
    46   31   63 1   
    47   31   64 1   
    48   32   65 1   
    49   32   66 1   
    50   32   67 1   
    51   33   68 1   
    52   33   69 1   
    53   33   70 1   
    54   34   35 1   
    55   35   36 1   
    56   35   71 1   
    57   35   72 1   
    58   36   37 1   
    59   36   41 1   
    60   37   38 1   
    61   37   73 1   
    62   38   74 1   
    63   39   40 1   
    64   39   75 1   
    65   40   76 1   
    66   41   77 1   
@<TRIPOS>SUBSTRUCTURE
     1 IMA         1 TEMP              0 ****  ****    0 ROOT
