@<TRIPOS>MOLECULE
IMA
   77    81     1     0     0
SMALL
bcc


@<TRIPOS>ATOM
      1 C11        -3.5310   -1.5530   -0.8790 ca        1 IMA      0.104100
      2 C12        -3.8730   -0.1790   -0.8250 ca        1 IMA     -0.152000
      3 C13        -2.9080    0.8000   -0.9630 ca        1 IMA     -0.103000
      4 C14        -1.5730    0.3990   -1.1630 ca        1 IMA     -0.048200
      5 C15        -1.2280   -1.0030   -1.2190 ca        1 IMA     -0.083800
      6 C16        -2.2170   -1.9780   -1.0690 ca        1 IMA     -0.115000
      7 C17         0.1910   -1.0660   -1.4320 cc        1 IMA     -0.145200
      8 N18        -0.4070    1.1550   -1.3400 na        1 IMA     -0.032400
      9 C19         0.6610    0.2540   -1.4920 cd        1 IMA     -0.141300
     10 C20        -0.3440    2.5920   -1.3810 c3        1 IMA      0.087600
     11 C21         2.0680    0.6660   -1.6670 c         1 IMA      0.703300
     12 N22         2.8650   -0.1880   -2.4140 n         1 IMA     -0.571900
     13 C23         4.2480    0.0810   -2.6640 c3        1 IMA      0.133300
     14 C24         5.1870   -0.4200   -1.5940 ca        1 IMA     -0.057300
     15 O27         2.5520    1.7060   -1.1710 o         1 IMA     -0.631100
     16 C28        -0.5350    3.2720   -0.0550 ca        1 IMA     -0.125300
     17 C31        -1.8890    4.6100    1.4390 ca        1 IMA     -0.140900
     18 C32        -1.7220    3.9590    0.2120 ca        1 IMA     -0.074000
     19 C33         0.4840    3.2390    0.9020 ca        1 IMA     -0.095000
     20 C34         0.3100    3.8810    2.1260 ca        1 IMA     -0.143000
     21 C35        -0.8750    4.5630    2.4020 ca        1 IMA     -0.095000
     22 C36        -3.1730    5.3300    1.7240 ce        1 IMA      0.653800
     23 N37        -3.0080    6.6040    2.3060 nh        1 IMA     -0.960800
     24 N38        -4.2890    4.7110    1.4800 n2        1 IMA     -0.832100
     25 C39         6.9880   -1.8770   -0.8830 ca        1 IMA     -0.111000
     26 C40         6.9580   -1.2940    0.4000 ca        1 IMA     -0.041400
     27 C41         6.0390   -0.2670    0.6750 ca        1 IMA     -0.111000
     28 C42         5.1650    0.1610   -0.3220 ca        1 IMA     -0.097000
     29 C43         6.1040   -1.4390   -1.8650 ca        1 IMA     -0.097000
     30 N44         7.9070   -1.7840    1.4300 n4        1 IMA     -0.473200
     31 C45         9.3100   -1.5780    0.9480 c3        1 IMA      0.094433
     32 C49         7.6670   -3.2440    1.6660 c3        1 IMA      0.094433
     33 C53         7.7490   -1.0670    2.7320 c3        1 IMA      0.094433
     34 O1         -4.4650   -2.5710   -0.7960 os        1 IMA     -0.330900
     35 C1         -5.7100   -2.2160   -0.1720 c3        1 IMA      0.175700
     36 C2         -6.4410   -3.4820    0.1330 ca        1 IMA     -0.099300
     37 C3         -7.2480   -3.5450    1.2740 ca        1 IMA     -0.111500
     38 C4         -7.9720   -4.7030    1.5520 ca        1 IMA     -0.131000
     39 C5         -7.8880   -5.8040    0.6990 ca        1 IMA     -0.122000
     40 C6         -7.0780   -5.7450   -0.4340 ca        1 IMA     -0.131000
     41 C7         -6.3570   -4.5870   -0.7200 ca        1 IMA     -0.111500
     42 H12        -4.9210    0.1200   -0.6720 ha        1 IMA      0.148000
     43 H13        -3.1730    1.8660   -0.9040 ha        1 IMA      0.151000
     44 H16        -1.9750   -3.0490   -1.1080 ha        1 IMA      0.153000
     45 H17         0.7790   -1.9760   -1.5120 ha        1 IMA      0.150000
     46 H201        0.6670    2.8880   -1.7920 h1        1 IMA      0.076700
     47 H202       -1.1420    2.9450   -2.0990 h1        1 IMA      0.076700
     48 H22         2.4750   -1.0250   -2.7760 hn        1 IMA      0.329500
     49 H231        4.3940    1.2020   -2.7430 h1        1 IMA      0.081700
     50 H232        4.5280   -0.3860   -3.6520 h1        1 IMA      0.081700
     51 H32        -2.5290    3.9870   -0.5370 ha        1 IMA      0.148000
     52 H33         1.4220    2.7060    0.6750 ha        1 IMA      0.150000
     53 H34         1.1080    3.8480    2.8820 ha        1 IMA      0.133000
     54 H35        -1.0130    5.0510    3.3790 ha        1 IMA      0.148000
     55 H371       -2.1250    7.0350    2.1610 hn        1 IMA      0.403300
     56 H372       -3.7830    7.2240    2.2630 hn        1 IMA      0.403300
     57 H38        -5.1300    5.2090    1.6810 hn        1 IMA      0.388400
     58 H39         7.6960   -2.6830   -1.1350 ha        1 IMA      0.151000
     59 H41         5.9740    0.2250    1.6580 ha        1 IMA      0.151000
     60 H42         4.4400    0.9720   -0.1090 ha        1 IMA      0.181000
     61 H43         6.1370   -1.9050   -2.8640 ha        1 IMA      0.181000
     62 H451        9.4730   -2.1590    0.0020 hx        1 IMA      0.100700
     63 H452        9.4710   -0.4860    0.7470 hx        1 IMA      0.100700
     64 H453       10.0250   -1.9330    1.7360 hx        1 IMA      0.100700
     65 H491        8.3720   -3.6090    2.4590 hx        1 IMA      0.100700
     66 H492        6.6050   -3.3910    2.0000 hx        1 IMA      0.100700
     67 H493        7.8410   -3.8140    0.7160 hx        1 IMA      0.100700
     68 H531        7.9470    0.0280    2.5860 hx        1 IMA      0.100700
     69 H532        6.7090   -1.2250    3.1250 hx        1 IMA      0.100700
     70 H533        8.4900   -1.4840    3.4660 hx        1 IMA      0.100700
     71 HC11       -5.5150   -1.6260    0.7620 h1        1 IMA      0.049700
     72 HC12       -6.3060   -1.5940   -0.8950 h1        1 IMA      0.049700
     73 HC3        -7.3140   -2.6810    1.9520 ha        1 IMA      0.138500
     74 HC4        -8.6100   -4.7480    2.4470 ha        1 IMA      0.134500
     75 HC5        -8.4590   -6.7170    0.9210 ha        1 IMA      0.135000
     76 HC6        -7.0080   -6.6130   -1.1070 ha        1 IMA      0.134500
     77 HC7        -5.7130   -4.5350   -1.6110 ha        1 IMA      0.138500
@<TRIPOS>BOND
     1    1    2 ar  
     2    1    6 ar  
     3    1   34 1   
     4    2    3 ar  
     5    2   42 1   
     6    3    4 ar  
     7    3   43 1   
     8    4    5 ar  
     9    4    8 1   
    10    5    6 ar  
    11    5    7 1   
    12    6   44 1   
    13    7    9 2   
    14    7   45 1   
    15    8    9 1   
    16    8   10 1   
    17    9   11 1   
    18   10   16 1   
    19   10   46 1   
    20   10   47 1   
    21   11   12 1   
    22   11   15 2   
    23   12   13 1   
    24   12   48 1   
    25   13   14 1   
    26   13   49 1   
    27   13   50 1   
    28   14   28 ar  
    29   14   29 ar  
    30   16   18 ar  
    31   16   19 ar  
    32   17   18 ar  
    33   17   21 ar  
    34   17   22 1   
    35   18   51 1   
    36   19   20 ar  
    37   19   52 1   
    38   20   21 ar  
    39   20   53 1   
    40   21   54 1   
    41   22   23 1   
    42   22   24 2   
    43   23   55 1   
    44   23   56 1   
    45   24   57 1   
    46   25   26 ar  
    47   25   29 ar  
    48   25   58 1   
    49   26   27 ar  
    50   26   30 1   
    51   27   28 ar  
    52   27   59 1   
    53   28   60 1   
    54   29   61 1   
    55   30   31 1   
    56   30   32 1   
    57   30   33 1   
    58   31   62 1   
    59   31   63 1   
    60   31   64 1   
    61   32   65 1   
    62   32   66 1   
    63   32   67 1   
    64   33   68 1   
    65   33   69 1   
    66   33   70 1   
    67   34   35 1   
    68   35   36 1   
    69   35   71 1   
    70   35   72 1   
    71   36   37 ar  
    72   36   41 ar  
    73   37   38 ar  
    74   37   73 1   
    75   38   39 ar  
    76   38   74 1   
    77   39   40 ar  
    78   39   75 1   
    79   40   41 ar  
    80   40   76 1   
    81   41   77 1   
@<TRIPOS>SUBSTRUCTURE
     1 IMA         1 TEMP              0 ****  ****    0 ROOT
