@<TRIPOS>MOLECULE
IMA
   79    83     1     0     0
SMALL
bcc


@<TRIPOS>ATOM
      1 C11         0.2040    0.3260   -0.2000 ca        1 IMA      0.144100
      2 C12         1.6230    0.3250   -0.0530 ca        1 IMA     -0.104000
      3 C13         2.2200    0.4890    1.1780 ca        1 IMA     -0.137000
      4 C14         1.3940    0.6570    2.3110 ca        1 IMA     -0.010200
      5 C15        -0.0510    0.6400    2.1660 ca        1 IMA     -0.075800
      6 C16        -0.6360    0.4810    0.9020 ca        1 IMA     -0.119000
      7 C17        -0.5930    0.7850    3.4700 cc        1 IMA     -0.068200
      8 N18         1.7160    0.8350    3.6550 na        1 IMA     -0.022400
      9 C19         0.4950    0.8910    4.3770 cd        1 IMA     -0.239300
     10 C20         3.0500    0.8010    4.1950 c3        1 IMA      0.077600
     11 C21         0.4210    1.0430    5.8000 c         1 IMA      0.592300
     12 N22        -0.9730    0.7770    6.3850 n4        1 IMA     -0.674800
     13 C23        -0.9300    0.4770    7.8490 c3        1 IMA      0.158100
     14 C24        -2.2820    0.2280    8.4400 ca        1 IMA     -0.134300
     15 O27         1.2840    1.3500    6.6170 o         1 IMA     -0.472100
     16 C28         3.8320    2.0820    4.0570 ca        1 IMA     -0.110300
     17 C31         5.6410    3.3450    3.0630 ca        1 IMA     -0.250900
     18 C32         4.8830    2.1690    3.1390 ca        1 IMA     -0.070000
     19 C33         3.5460    3.1700    4.8900 ca        1 IMA     -0.061000
     20 C34         4.2970    4.3420    4.8030 ca        1 IMA     -0.107000
     21 C35         5.3460    4.4360    3.8900 ca        1 IMA     -0.081000
     22 C36         6.7180    3.4540    2.0530 ce        1 IMA      0.579800
     23 N37         8.0840    3.5540    2.6780 n4        1 IMA     -0.821600
     24 N38         6.6750    3.4830    0.7780 n2        1 IMA     -0.689100
     25 C39        -3.9950   -1.3310    9.1600 ca        1 IMA     -0.098500
     26 C40        -4.7040   -0.2810    9.7790 ca        1 IMA      0.019600
     27 C41        -4.1980    1.0280    9.7010 ca        1 IMA     -0.098500
     28 C42        -2.9950    1.2710    9.0350 ca        1 IMA     -0.080500
     29 C43        -2.7960   -1.0730    8.5000 ca        1 IMA     -0.080500
     30 N44        -5.9570   -0.5900   10.5110 n4        1 IMA     -0.486200
     31 C45        -5.6560   -1.5550   11.6210 c3        1 IMA      0.090767
     32 C49        -6.9470   -1.2080    9.5680 c3        1 IMA      0.090767
     33 C53        -6.5820    0.6310   11.1120 c3        1 IMA      0.090767
     34 O1         -0.4420    0.1870   -1.3980 os        1 IMA     -0.304900
     35 C1          0.3760   -0.0900   -2.5590 c3        1 IMA      0.182700
     36 C2         -0.5660   -0.2790   -3.6980 ca        1 IMA     -0.128300
     37 C3         -1.2210    0.8240   -4.2570 ca        1 IMA     -0.101000
     38 C4         -2.0700    0.6500   -5.3490 ca        1 IMA     -0.126500
     39 C5         -2.2680   -0.6230   -5.8850 ca        1 IMA     -0.096000
     40 C6         -1.6190   -1.7250   -5.3250 ca        1 IMA     -0.126500
     41 C7         -0.7720   -1.5560   -4.2300 ca        1 IMA     -0.101000
     42 H12         2.2580    0.1870   -0.9440 ha        1 IMA      0.167000
     43 H13         3.3140    0.4810    1.2810 ha        1 IMA      0.139000
     44 H16        -1.7280    0.4760    0.7740 ha        1 IMA      0.179000
     45 H17        -1.6550    0.8290    3.7040 ha        1 IMA      0.157000
     46 H201        3.6070   -0.0320    3.6680 h1        1 IMA      0.090700
     47 H202        2.9900    0.5420    5.2940 h1        1 IMA      0.090700
     48 H22        -1.5520    1.6070    6.2200 hn        1 IMA      0.458300
     49 H231       -0.4300    1.3510    8.3650 hx        1 IMA      0.130200
     50 H232       -0.2670   -0.4280    7.9900 hx        1 IMA      0.130200
     51 H32         5.1170    1.3160    2.4820 ha        1 IMA      0.150000
     52 H33         2.7280    3.0940    5.6260 ha        1 IMA      0.156000
     53 H34         4.0610    5.2000    5.4560 ha        1 IMA      0.175000
     54 H35         5.9190    5.3750    3.8140 ha        1 IMA      0.155000
     55 H371        8.2850    2.6780    3.1720 hn        1 IMA      0.476467
     56 H372        8.8180    3.7200    1.9730 hn        1 IMA      0.476467
     57 H38         5.7880    3.4380    0.3190 hn        1 IMA      0.490400
     58 H39        -4.3600   -2.3740    9.1940 ha        1 IMA      0.177500
     59 H41        -4.7110    1.8910   10.1600 ha        1 IMA      0.177500
     60 H42        -2.6040    2.3040    9.0110 ha        1 IMA      0.170500
     61 H43        -2.2460   -1.9160    8.0460 ha        1 IMA      0.170500
     62 H451       -4.9020   -1.0980   12.3150 hx        1 IMA      0.109811
     63 H452       -5.2490   -2.5100   11.1940 hx        1 IMA      0.109811
     64 H453       -6.6050   -1.7720   12.1820 hx        1 IMA      0.109811
     65 H491       -6.5320   -2.1630    9.1520 hx        1 IMA      0.109811
     66 H492       -7.8960   -1.4290   10.1290 hx        1 IMA      0.109811
     67 H493       -7.1620   -0.4890    8.7330 hx        1 IMA      0.109811
     68 H531       -7.5230    0.3260   11.6490 hx        1 IMA      0.109811
     69 H532       -6.8450    1.3620   10.3010 hx        1 IMA      0.109811
     70 H533       -5.8750    1.0960   11.8500 hx        1 IMA      0.109811
     71 HC11        1.0500    0.7900   -2.7360 h1        1 IMA      0.048700
     72 HC12        0.9820   -1.0140   -2.3670 h1        1 IMA      0.048700
     73 HC3        -1.0650    1.8260   -3.8320 ha        1 IMA      0.132000
     74 HC4        -2.5820    1.5190   -5.7900 ha        1 IMA      0.148000
     75 HC5        -2.9350   -0.7580   -6.7510 ha        1 IMA      0.151000
     76 HC6        -1.7750   -2.7290   -5.7490 ha        1 IMA      0.148000
     77 HC7        -0.2650   -2.4280   -3.7920 ha        1 IMA      0.132000
     78 H222       -1.3930   -0.0110    5.8810 hn        1 IMA      0.458300
     79 H373        8.0770    4.3280    3.3510 hn        1 IMA      0.476467
@<TRIPOS>BOND
     1    1    2 ar  
     2    1    6 ar  
     3    1   34 1   
     4    2    3 ar  
     5    2   42 1   
     6    3    4 ar  
     7    3   43 1   
     8    4    5 ar  
     9    4    8 1   
    10    5    6 ar  
    11    5    7 1   
    12    6   44 1   
    13    7    9 2   
    14    7   45 1   
    15    8    9 1   
    16    8   10 1   
    17    9   11 1   
    18   10   16 1   
    19   10   46 1   
    20   10   47 1   
    21   11   12 1   
    22   11   15 2   
    23   12   13 1   
    24   12   48 1   
    25   12   78 1   
    26   13   14 1   
    27   13   49 1   
    28   13   50 1   
    29   14   28 ar  
    30   14   29 ar  
    31   16   18 ar  
    32   16   19 ar  
    33   17   18 ar  
    34   17   21 ar  
    35   17   22 1   
    36   18   51 1   
    37   19   20 ar  
    38   19   52 1   
    39   20   21 ar  
    40   20   53 1   
    41   21   54 1   
    42   22   23 1   
    43   22   24 2   
    44   23   55 1   
    45   23   56 1   
    46   23   79 1   
    47   24   57 1   
    48   25   26 ar  
    49   25   29 ar  
    50   25   58 1   
    51   26   27 ar  
    52   26   30 1   
    53   27   28 ar  
    54   27   59 1   
    55   28   60 1   
    56   29   61 1   
    57   30   31 1   
    58   30   32 1   
    59   30   33 1   
    60   31   62 1   
    61   31   63 1   
    62   31   64 1   
    63   32   65 1   
    64   32   66 1   
    65   32   67 1   
    66   33   68 1   
    67   33   69 1   
    68   33   70 1   
    69   34   35 1   
    70   35   36 1   
    71   35   71 1   
    72   35   72 1   
    73   36   37 ar  
    74   36   41 ar  
    75   37   38 ar  
    76   37   73 1   
    77   38   39 ar  
    78   38   74 1   
    79   39   40 ar  
    80   39   75 1   
    81   40   41 ar  
    82   40   76 1   
    83   41   77 1   
@<TRIPOS>SUBSTRUCTURE
     1 IMA         1 TEMP              0 ****  ****    0 ROOT
