@<TRIPOS>MOLECULE
IMB
   29    29     1     0     0
SMALL
bcc


@<TRIPOS>ATOM
      1 N1         -0.2930   -0.2070    0.0670 nb        1 IMB     -0.748000
      2 C2          1.0910    0.0530    0.0170 ca        1 IMB      0.499800
      3 C3          1.8940   -0.0690    1.2650 ca        1 IMB     -0.218300
      4 C4          1.1930   -0.1480    2.5110 ca        1 IMB      0.099000
      5 C5         -0.2070   -0.2480    2.5090 ca        1 IMB     -0.517300
      6 C6         -0.8520   -0.3180    1.2560 ca        1 IMB      0.483200
      7 C9          3.2910   -0.1440    1.2570 ca        1 IMB     -0.051000
      8 C10         4.0070   -0.1900    2.4530 ca        1 IMB     -0.265000
      9 C11         3.3300   -0.1820    3.6770 ca        1 IMB     -0.111000
     10 C12         1.9500   -0.1710    3.7120 ca        1 IMB     -0.248000
     11 N17         1.6930    0.4290   -1.1190 nh        1 IMB     -0.152900
     12 C18         1.2420    0.4000   -2.4330 c2        1 IMB     -0.565100
     13 P20         2.8990   -1.0060   -3.0380 p4        1 IMB      1.620300
     14 P21         0.7900    1.8620   -3.1320 p5        1 IMB      1.295400
     15 O23         1.8350    2.0840   -4.3890 oh        1 IMB     -0.827400
     16 O25        -0.5480    1.7510   -3.7880 o         1 IMB     -0.918500
     17 O26         1.0380    3.0360   -2.2420 o         1 IMB     -0.918500
     18 O28         3.1470   -0.6260   -4.4570 o         1 IMB     -0.882833
     19 O30         2.2170   -2.3030   -2.7850 o         1 IMB     -0.882833
     20 O31         3.9580   -0.6100   -2.0510 o         1 IMB     -0.931633
     21 H5         -0.7730   -0.2950    3.4390 ha        1 IMB      0.083000
     22 H6         -1.9470   -0.4840    1.2310 h4        1 IMB     -0.044900
     23 H9          3.8510   -0.2020    0.3000 ha        1 IMB      0.192000
     24 H10         5.1020   -0.2380    2.4300 ha        1 IMB      0.091000
     25 H11         3.9050   -0.1980    4.6140 ha        1 IMB      0.064000
     26 H12         1.4140   -0.1900    4.6700 ha        1 IMB      0.081000
     27 H17         2.3230    1.2930   -4.6160 ho        1 IMB      0.446000
     28 H18         0.4920   -0.3930   -2.6310 h4        1 IMB      0.016800
     29 H172        2.6880    0.6330   -1.0470 hn        1 IMB      0.314700
@<TRIPOS>BOND
     1    1    2 ar  
     2    1    6 ar  
     3    2    3 ar  
     4    2   11 1   
     5    3    4 ar  
     6    3    7 ar  
     7    4    5 ar  
     8    4   10 ar  
     9    5    6 ar  
    10    5   21 1   
    11    6   22 1   
    12    7    8 ar  
    13    7   23 1   
    14    8    9 ar  
    15    8   24 1   
    16    9   10 ar  
    17    9   25 1   
    18   10   26 1   
    19   11   12 2   
    20   11   29 1   
    21   12   14 1   
    22   12   28 1   
    23   13   18 1   
    24   13   19 1   
    25   13   20 2   
    26   14   15 1   
    27   14   16 1   
    28   14   17 1   
    29   15   27 1   
@<TRIPOS>SUBSTRUCTURE
     1 IMB         1 TEMP              0 ****  ****    0 ROOT
