@<TRIPOS>MOLECULE
IMB
   28    25     1     0     0
SMALL
bcc


@<TRIPOS>ATOM
      1 N1         -2.0600   -0.1930   -0.6240 n1        1 IMB     -0.105000
      2 C2         -0.7260   -0.0170   -0.3700 c1        1 IMB     -0.322000
      3 C3         -0.1970   -0.3510    0.8990 c1        1 IMB      0.062000
      4 C4         -1.0150   -0.8460    1.8680 c1        1 IMB      0.124000
      5 C5         -2.3750   -1.0240    1.6050 c1        1 IMB     -0.451000
      6 C6         -2.8910   -0.6950    0.3550 c1        1 IMB     -0.152000
      7 C9          1.1910   -0.2170    1.1450 c2        1 IMB     -0.324000
      8 C10         1.7190   -0.5910    2.3730 c1        1 IMB     -0.275000
      9 C11         0.8860   -1.0970    3.3620 c1        1 IMB     -0.104000
     10 C12        -0.4760   -1.2280    3.1220 c2        1 IMB     -0.441000
     11 N17         0.2810   -0.4540   -1.2940 n3        1 IMB      0.033000
     12 C18         0.6660    0.3980   -2.4080 c3        1 IMB     -0.428000
     13 P20        -0.7350    1.5070   -2.8490 p5        1 IMB      1.496500
     14 P21         2.1170    1.4070   -1.9350 p5        1 IMB      1.496500
     15 O23         1.6610    2.6040   -1.1380 o         1 IMB     -0.847833
     16 O25         3.0610    0.5700   -1.0930 o         1 IMB     -0.847833
     17 O26         2.8310    1.8730   -3.1810 o         1 IMB     -0.847833
     18 O28        -1.3890    2.0210   -1.5880 o         1 IMB     -0.847833
     19 O30        -0.2200    2.6730   -3.6600 o         1 IMB     -0.847833
     20 O31        -1.7530    0.7330   -3.6670 o         1 IMB     -0.847833
     21 H5         -2.9500   -1.4380    2.2740 ha        1 IMB      0.058000
     22 H6         -3.8420   -0.8200    0.1710 ha        1 IMB      0.066000
     23 H9          1.7780    0.1390    0.4500 ha        1 IMB      0.061000
     24 H10         2.6740   -0.4980    2.5410 ha        1 IMB      0.038000
     25 H11         1.2680   -1.4390    4.1890 ha        1 IMB      0.022000
     26 H12        -1.0640   -1.5860    3.8200 ha        1 IMB      0.053000
     27 H17         0.6680   -1.2770   -1.1930 hn        1 IMB      0.143000
     28 H18         0.8930   -0.1550   -3.1740 h1        1 IMB      0.035000
@<TRIPOS>BOND
     1    1    6 1   
     2    2    3 1   
     3    2   11 1   
     4    3    7 1   
     5    4    5 1   
     6    4   10 1   
     7    5   21 1   
     8    6   22 1   
     9    7    8 1   
    10    7   23 1   
    11    8   24 1   
    12    9   10 1   
    13    9   25 1   
    14   10   26 1   
    15   11   12 1   
    16   11   27 1   
    17   12   13 1   
    18   12   14 1   
    19   12   28 1   
    20   13   18 1   
    21   13   19 1   
    22   13   20 1   
    23   14   15 1   
    24   14   16 1   
    25   14   17 1   
@<TRIPOS>SUBSTRUCTURE
     1 IMB         1 TEMP              0 ****  ****    0 ROOT
