@<TRIPOS>MOLECULE
IMB
   28    28     1     0     0
SMALL
bcc


@<TRIPOS>ATOM
      1 N1        298.1860  135.6070 -130.5800 nb        1 IMB     -0.699000
      2 C2        299.3150  136.0610 -129.8780 ca        1 IMB      0.051800
      3 C3        300.5640  136.3840 -130.5640 ca        1 IMB     -0.019300
      4 C4        300.5880  136.2140 -132.0150 ca        1 IMB      0.130000
      5 C5        299.4440  135.7610 -132.6670 ca        1 IMB     -0.553300
      6 C6        298.2820  135.4790 -131.8770 ca        1 IMB      0.359200
      7 C9        301.7090  136.8350 -129.9320 ca        1 IMB     -0.262000
      8 C10       302.8930  137.1320 -130.6630 ca        1 IMB     -0.259000
      9 C11       302.9170  136.9730 -132.0270 ca        1 IMB     -0.119000
     10 C12       301.7800  136.5180 -132.7110 ca        1 IMB     -0.403000
     11 N17       299.2100  136.1970 -128.4870 nh        1 IMB     -0.075900
     12 C18       298.2050  135.9670 -127.6960 c2        1 IMB      0.073900
     13 P20       298.3990  136.2470 -125.9280 p5        1 IMB      1.090500
     14 P21     -1800.1090 -817.5520  771.5040 p4        1 IMB      1.451300
     15 O23     -1798.9390 -818.2690  770.9650 o         1 IMB     -0.800500
     16 O25     -1800.0850 -816.0830  771.6160 o         1 IMB     -0.800500
     17 O26     -1801.3020 -818.3050  771.9320 o         1 IMB     -0.849300
     18 O28       298.1300  134.8930 -125.3150 o         1 IMB     -0.946833
     19 O30       299.8350  136.7220 -125.8380 o         1 IMB     -0.946833
     20 O31       297.3540  137.2890 -125.6090 o         1 IMB     -0.946833
     21 H5        299.4190  135.6200 -133.7480 ha        1 IMB      0.061000
     22 H6        297.3720  135.1190 -132.3920 h4        1 IMB     -0.081900
     23 H9        301.7540  136.9830 -128.8460 ha        1 IMB      0.101000
     24 H10       303.7750  137.4870 -130.1160 ha        1 IMB      0.053000
     25 H11       303.8300  137.2000 -132.6000 ha        1 IMB      0.031000
     26 H12       301.8080  136.3940 -133.7980 ha        1 IMB      0.057000
     27 H17       300.0450  136.5270 -128.0060 hn        1 IMB      0.313700
     28 H18       297.2470  135.6080 -128.0860 h4        1 IMB     -0.009200
@<TRIPOS>BOND
     1    1    2 ar  
     2    1    6 ar  
     3    2    3 ar  
     4    2   11 1   
     5    3    4 ar  
     6    3    7 ar  
     7    4    5 ar  
     8    4   10 ar  
     9    5    6 ar  
    10    5   21 1   
    11    6   22 1   
    12    7    8 ar  
    13    7   23 1   
    14    8    9 ar  
    15    8   24 1   
    16    9   10 ar  
    17    9   25 1   
    18   10   26 1   
    19   11   12 2   
    20   11   27 1   
    21   12   13 1   
    22   12   28 1   
    23   13   18 1   
    24   13   19 1   
    25   13   20 1   
    26   14   15 1   
    27   14   16 1   
    28   14   17 2   
@<TRIPOS>SUBSTRUCTURE
     1 IMB         1 TEMP              0 ****  ****    0 ROOT
