@<TRIPOS>MOLECULE
IMC
   35    36     1     0     0
SMALL
bcc


@<TRIPOS>ATOM
      1 P           0.0070    1.1270   -3.8860 p5        1 IMC      1.332900
      2 OP1         1.0550    2.0650   -3.3630 o         1 IMC     -0.929833
      3 OP2         0.0790    0.7010   -5.3180 o         1 IMC     -0.929833
      4 OP3        -1.3760    1.3560   -3.3060 o         1 IMC     -0.929833
      5 O5'         0.3870   -0.3360   -3.0030 os        1 IMC     -0.553200
      6 C5'         0.3880   -0.1700   -1.6480 c3        1 IMC      0.232400
      7 C4'        -0.9250   -0.7170   -1.0350 c3        1 IMC      0.056100
      8 O4'        -0.6340   -1.3830    0.2250 os        1 IMC     -0.435600
      9 C1'        -1.3810   -0.8230    1.2880 c3        1 IMC      0.427300
     10 N1         -0.4700   -0.2490    2.3000 na        1 IMC     -0.640400
     11 C6          0.8510    0.0380    1.9960 cc        1 IMC      0.129000
     12 C4          1.2980    0.5040    4.3620 c         1 IMC      0.709700
     13 O4          2.0820    0.7390    5.3080 o         1 IMC     -0.626100
     14 N3         -0.0690    0.3060    4.6340 nc        1 IMC     -0.774100
     15 C2         -0.9000   -0.0030    3.6280 cd        1 IMC      0.826100
     16 N2         -2.2880   -0.0270    3.9030 nh        1 IMC     -0.904800
     17 C5          1.7460    0.4170    2.9590 cd        1 IMC     -0.299400
     18 C5M         3.1450    0.7510    2.6380 c3        1 IMC     -0.019900
     19 C2'        -2.3980    0.1770    0.7070 c3        1 IMC     -0.137400
     20 C3'        -1.9900    0.3620   -0.7640 c3        1 IMC      0.163100
     21 O3'        -3.1310    0.1650   -1.5680 oh        1 IMC     -0.675800
     22 H5'         0.5180    0.9140   -1.3690 h1        1 IMC     -0.003800
     23 H5''        1.2340   -0.7690   -1.1920 h1        1 IMC     -0.003800
     24 H4'        -1.3400   -1.5220   -1.7000 h1        1 IMC      0.081700
     25 H1'        -1.8900   -1.7010    1.7930 h2        1 IMC      0.029700
     26 H6          1.1210   -0.0720    0.9210 h4        1 IMC      0.214000
     27 HN21       -2.5170   -0.0980    4.8680 hn        1 IMC      0.410800
     28 HN22       -2.8540   -0.5740    3.2960 hn        1 IMC      0.410800
     29 H71         3.8340    0.2110    3.3340 hc        1 IMC      0.039033
     30 H72         3.3980    0.4780    1.5850 hc        1 IMC      0.039033
     31 H73         3.3150    1.8500    2.7710 hc        1 IMC      0.039033
     32 H2'        -3.4240   -0.2620    0.7720 hc        1 IMC      0.054700
     33 H2''       -2.3980    1.1550    1.2410 hc        1 IMC      0.054700
     34 H3'        -1.5710    1.3900   -0.9520 h1        1 IMC      0.109700
     35 HO3'       -2.8770    0.5020   -2.4600 ho        1 IMC      0.503000
@<TRIPOS>BOND
     1    1    2 1   
     2    1    3 1   
     3    1    4 1   
     4    1    5 1   
     5    5    6 1   
     6    6    7 1   
     7    6   22 1   
     8    6   23 1   
     9    7    8 1   
    10    7   20 1   
    11    7   24 1   
    12    8    9 1   
    13    9   10 1   
    14    9   19 1   
    15    9   25 1   
    16   10   11 1   
    17   10   15 1   
    18   11   17 2   
    19   11   26 1   
    20   12   13 2   
    21   12   14 1   
    22   12   17 1   
    23   14   15 2   
    24   15   16 1   
    25   16   27 1   
    26   16   28 1   
    27   17   18 1   
    28   18   29 1   
    29   18   30 1   
    30   18   31 1   
    31   19   20 1   
    32   19   32 1   
    33   19   33 1   
    34   20   21 1   
    35   20   34 1   
    36   21   35 1   
@<TRIPOS>SUBSTRUCTURE
     1 IMC         1 TEMP              0 ****  ****    0 ROOT
