@<TRIPOS>MOLECULE
IMC
   35    34     1     0     0
SMALL
bcc


@<TRIPOS>ATOM
      1 P           3.4830    1.8410    1.1490 p3        1 IMC      2.525000
      2 OP1         4.9220    1.6340    1.5530 o         1 IMC     -1.252000
      3 OP2         2.6510    2.1280    2.3760 os        1 IMC     -1.245000
      4 OP3         3.3910    3.0070    0.1940 o         1 IMC     -1.252000
      5 O5'         2.9420    0.5360    0.4390 os        1 IMC     -0.718000
      6 C5'         1.6180    0.5320   -0.0390 c3        1 IMC      0.082000
      7 C4'         1.5820   -0.0890   -1.4200 c3        1 IMC     -0.049000
      8 O4'         0.8160   -1.5010   -1.3690 os        1 IMC     -0.317000
      9 C1'        -0.4500   -1.2270   -1.4110 c3        1 IMC      0.147000
     10 N1         -0.9780   -1.0990   -0.0760 n3        1 IMC     -0.244000
     11 C6         -1.9520   -0.1060    0.2110 c2        1 IMC      0.033000
     12 C4         -2.0720   -0.9320    2.6130 c1        1 IMC      0.315000
     13 O4         -2.5330   -0.8490    3.7330 o         1 IMC     -0.382000
     14 N3         -1.1120   -1.9310    2.3120 n1        1 IMC     -0.344000
     15 C2         -0.4960   -1.9780    0.9880 c2        1 IMC      0.240000
     16 N2          0.5510   -2.9000    0.7260 n3        1 IMC     -0.331000
     17 C5         -2.5140   -0.0000    1.5650 c2        1 IMC     -0.268000
     18 C5M        -3.6260    0.9850    1.8480 c3        1 IMC     -0.145000
     19 C2'        -0.5450    0.1260   -2.1580 c3        1 IMC     -0.209000
     20 C3'         0.9080    0.6630   -2.2280 c3        1 IMC      0.047000
     21 O3'         1.4380    0.5360   -3.6130 oh        1 IMC     -0.401000
     22 H5'         1.2850    1.4520   -0.0870 h1        1 IMC      0.037500
     23 H5''        1.0520    0.0110    0.5680 h1        1 IMC      0.037500
     24 H4'         2.4920   -0.2130   -1.7560 h1        1 IMC      0.117000
     25 H1'        -0.9330   -1.9210   -1.9030 h2        1 IMC      0.098000
     26 H6         -2.2420    0.5100   -0.4880 h4        1 IMC      0.188000
     27 HN21        0.9660   -3.3300    1.4180 hn        1 IMC      0.211000
     28 HN22        0.8000   -3.0760   -0.1360 hn        1 IMC      0.211000
     29 H71        -3.7810    1.5400    1.0540 hc        1 IMC      0.079000
     30 H72        -3.3720    1.5570    2.6010 hc        1 IMC      0.079000
     31 H73        -4.4460    0.4970    2.0700 hc        1 IMC      0.079000
     32 H2'        -1.1120    0.7470   -1.6610 hc        1 IMC      0.092000
     33 H2''       -0.9000   -0.0090   -3.0590 hc        1 IMC      0.092000
     34 H3'         0.9410    1.5950   -1.9340 h1        1 IMC      0.145000
     35 HO3'        1.2270    1.2630   -4.0790 ho        1 IMC      0.303000
@<TRIPOS>BOND
     1    1    2 1   
     2    1    4 1   
     3    1    5 1   
     4    5    6 1   
     5    6    7 1   
     6    6   22 1   
     7    6   23 1   
     8    7    8 1   
     9    7   20 1   
    10    7   24 1   
    11    8    9 1   
    12    9   10 1   
    13    9   19 1   
    14    9   25 1   
    15   10   11 1   
    16   10   15 1   
    17   11   17 1   
    18   11   26 1   
    19   12   13 1   
    20   12   17 1   
    21   14   15 1   
    22   15   16 1   
    23   16   27 1   
    24   16   28 1   
    25   17   18 1   
    26   18   29 1   
    27   18   30 1   
    28   18   31 1   
    29   19   20 1   
    30   19   32 1   
    31   19   33 1   
    32   20   21 1   
    33   20   34 1   
    34   21   35 1   
@<TRIPOS>SUBSTRUCTURE
     1 IMC         1 TEMP              0 ****  ****    0 ROOT
