@<TRIPOS>MOLECULE
IMD
   10    10     1     0     0
SMALL
bcc


@<TRIPOS>ATOM
      1 N1          1.1130   -0.3440    0.0000 na        1 IMD     -0.132100
      2 C2          0.0000   -1.1480   -0.0000 cc        1 IMD     -0.009600
      3 N3         -1.1130   -0.3440    0.0000 na        1 IMD     -0.132100
      4 C4         -0.7010    0.9980    0.0010 cc        1 IMD     -0.106300
      5 C5          0.7010    0.9980    0.0010 cd        1 IMD     -0.106300
      6 HN1         2.0580   -0.6630    0.0000 hn        1 IMD      0.366700
      7 H2          0.0000   -2.2540   -0.0010 h5        1 IMD      0.268000
      8 HN3        -2.0580   -0.6630    0.0000 hn        1 IMD      0.366700
      9 H4         -1.4110    1.8330    0.0010 h4        1 IMD      0.243000
     10 H5          1.4110    1.8330    0.0010 h4        1 IMD      0.243000
@<TRIPOS>BOND
     1    1    2 2   
     2    1    5 1   
     3    1    6 1   
     4    2    3 1   
     5    2    7 1   
     6    3    4 1   
     7    3    8 1   
     8    4    5 2   
     9    4    9 1   
    10    5   10 1   
@<TRIPOS>SUBSTRUCTURE
     1 IMD         1 TEMP              0 ****  ****    0 ROOT
