@<TRIPOS>MOLECULE
IMD
   10    10     1     0     0
SMALL
bcc


@<TRIPOS>ATOM
      1 N1         -0.0270    0.0020   -0.0250 na        1 IMD     -0.132100
      2 C2          1.3460   -0.0030   -0.0320 cc        1 IMD     -0.009600
      3 N3          1.7820    0.0020    1.2700 na        1 IMD     -0.132100
      4 C4          0.6670    0.0110    2.1210 cc        1 IMD     -0.106300
      5 C5         -0.4730    0.0110    1.3050 cd        1 IMD     -0.106300
      6 HN1        -0.6100    0.0000   -0.8350 hn        1 IMD      0.366700
      7 H2          1.9900   -0.0100   -0.9310 h5        1 IMD      0.268000
      8 HN3         2.7370    0.0000    1.5610 hn        1 IMD      0.366700
      9 H4          0.7590    0.0160    3.2140 h4        1 IMD      0.243000
     10 H5         -1.5360    0.0160    1.5710 h4        1 IMD      0.243000
@<TRIPOS>BOND
     1    1    2 2   
     2    1    5 1   
     3    1    6 1   
     4    2    3 1   
     5    2    7 1   
     6    3    4 1   
     7    3    8 1   
     8    4    5 2   
     9    4    9 1   
    10    5   10 1   
@<TRIPOS>SUBSTRUCTURE
     1 IMD         1 TEMP              0 ****  ****    0 ROOT
