@<TRIPOS>MOLECULE
IMG
   35    33     1     0     0
SMALL
bcc


@<TRIPOS>ATOM
      1 O5'        -4.1440   -0.1750   -0.5920 oh        1 IMG     -0.595800
      2 C5'        -2.9270    0.5360   -0.5430 c3        1 IMG      0.108400
      3 C4'        -2.4490    0.5400    0.7510 c3        1 IMG      0.157500
      4 N4'        -1.3580   -0.4940    0.9110 n3        1 IMG     -0.796200
      5 C3'        -1.7620    1.9600    1.0900 c3        1 IMG      0.094100
      6 O3'        -2.6040    2.7230    2.0580 oh        1 IMG     -0.593800
      7 C2'        -0.6740    1.6720    1.6030 c3        1 IMG      0.104100
      8 O2'        -0.8100    1.5930    3.0730 oh        1 IMG     -0.593800
      9 C1'        -0.2550    0.1940    0.9920 c3        1 IMG      0.204700
     10 C9          0.3510    0.3520   -0.3610 ce        1 IMG     -0.202000
     11 C8          0.4800    1.2390   -1.4070 c1        1 IMG      0.204500
     12 N7          1.5100    0.8150   -2.1970 nf        1 IMG     -0.403400
     13 C5          2.0250   -0.3410   -1.6440 ch        1 IMG     -0.157000
     14 C6          3.1410   -1.2530   -2.0750 c1        1 IMG      0.610500
     15 O6          3.7990   -0.9850   -3.0600 o         1 IMG     -0.600500
     16 N1          3.4560   -2.3820   -1.3080 nh        1 IMG     -0.352600
     17 N2          3.0380   -3.8090    0.6540 nh        1 IMG     -0.389300
     18 C2          2.7200   -2.6660   -0.1210 c2        1 IMG      0.139800
     19 N3          1.6490   -1.7900    0.2910 n1        1 IMG     -0.203000
     20 C4          1.3090   -0.6240   -0.5120 cg        1 IMG      0.004700
     21 HO'5       -4.6320    0.1200   -1.2750 ho        1 IMG      0.403000
     22 H5'1       -3.0750    1.4590   -0.8390 h1        1 IMG      0.023700
     23 H5'2       -2.2720    0.1050   -1.1320 h1        1 IMG      0.023700
     24 H4'        -3.1770    0.3600    1.3790 h1        1 IMG      0.102700
     25 HN'4       -1.3310   -1.0260    0.1680 hn        1 IMG      0.386800
     26 H3'        -1.6280    2.4780    0.2710 h1        1 IMG      0.040700
     27 HO'3       -2.8470    3.4960    1.6940 ho        1 IMG      0.418000
     28 H2'        -0.0000    2.3400    1.3610 h1        1 IMG      0.088700
     29 HO'2       -0.0520    1.8550    3.4560 ho        1 IMG      0.420000
     30 H1'         0.3740   -0.2510    1.5930 h1        1 IMG      0.102700
     31 H8         -0.0680    2.0330   -1.5570 DU        1 IMG      0.218500
     32 H7          1.8050    1.2220   -2.9570 DU        1 IMG      0.218500
     33 H1          4.1230   -2.9430   -1.5760 hn        1 IMG      0.300700
     34 H21         3.7050   -4.3730    0.3850 hn        1 IMG      0.255200
     35 H22         2.5770   -3.9830    1.4240 hn        1 IMG      0.255200
@<TRIPOS>BOND
     1    1    2 1   
     2    1   21 1   
     3    2    3 1   
     4    2   22 1   
     5    2   23 1   
     6    3    4 1   
     7    3    5 1   
     8    3   24 1   
     9    4    9 1   
    10    4   25 1   
    11    5    6 1   
    12    5    7 1   
    13    5   26 1   
    14    6   27 1   
    15    7    8 1   
    16    7    9 1   
    17    7   28 1   
    18    8   29 1   
    19    9   10 1   
    20    9   30 1   
    21   10   11 2   
    22   10   20 1   
    23   11   12 2   
    24   12   13 1   
    25   13   20 3   
    26   14   15 2   
    27   14   16 2   
    28   16   18 1   
    29   16   33 1   
    30   17   18 1   
    31   17   34 1   
    32   17   35 1   
    33   18   19 2   
@<TRIPOS>SUBSTRUCTURE
     1 IMG         1 TEMP              0 ****  ****    0 ROOT
