@<TRIPOS>MOLECULE
IMG
   35    37     1     0     0
SMALL
bcc


@<TRIPOS>ATOM
      1 O5'        -1.7410   -0.6740    5.1360 oh        1 IMG     -0.603800
      2 C5'        -1.0970    0.3810    4.4400 c3        1 IMG      0.139400
      3 C4'        -0.0900   -0.2680    3.4800 c3        1 IMG      0.135500
      4 N4'        -0.7400   -0.8780    2.3200 n3        1 IMG     -0.817200
      5 C3'         0.9100    0.8010    2.9530 c3        1 IMG      0.145100
      6 O3'         2.0660    0.8720    3.7490 oh        1 IMG     -0.584800
      7 C2'         1.1730    0.4070    1.4820 c3        1 IMG      0.107100
      8 O2'         2.4770   -0.1370    1.4060 oh        1 IMG     -0.612800
      9 C1'         0.1080   -0.6850    1.1380 c3        1 IMG      0.218800
     10 C9         -0.6630   -0.3050   -0.0680 cc        1 IMG     -0.154300
     11 C8         -2.0440   -0.0450   -0.1750 cd        1 IMG     -0.067300
     12 N7         -2.3720    0.2540   -1.4880 na        1 IMG     -0.139100
     13 C5         -1.2100    0.1920   -2.2470 cd        1 IMG     -0.251900
     14 C6         -1.0050    0.4260   -3.6620 c         1 IMG      0.741100
     15 O6         -1.8720    0.7350   -4.5000 o         1 IMG     -0.640500
     16 N1          0.3320    0.2600   -4.0770 n         1 IMG     -0.492400
     17 C2          1.3690   -0.0590   -3.1640 cd        1 IMG      0.643800
     18 N3          1.1790   -0.2940   -1.8510 nc        1 IMG     -0.654100
     19 C4         -0.1120   -0.1540   -1.3920 cc        1 IMG      0.153400
     20 HO'5       -2.4220   -0.2670    5.6830 ho        1 IMG      0.400000
     21 H5'1       -0.5330    1.0270    5.1660 h1        1 IMG      0.033700
     22 H5'2       -1.8490    1.0050    3.8900 h1        1 IMG      0.033700
     23 H4'         0.4900   -1.0330    4.0790 h1        1 IMG      0.053700
     24 HN'4       -0.9270   -1.8470    2.4830 hn        1 IMG      0.377800
     25 H3'         0.4620    1.8310    3.0060 h1        1 IMG      0.083700
     26 HO'3        2.6080    0.0940    3.5650 ho        1 IMG      0.422000
     27 H2'         1.0790    1.2920    0.8010 h1        1 IMG      0.067700
     28 HO'2        2.6610   -0.2860    0.4690 ho        1 IMG      0.428000
     29 H1'         0.6720   -1.6380    0.8870 h1        1 IMG      0.054700
     30 H8         -2.8000   -0.0600    0.6150 h4        1 IMG      0.189000
     31 H7         -3.2650    0.4740   -1.8450 hn        1 IMG      0.316700
     32 H1          0.5480    0.4730   -5.0260 hn        1 IMG      0.337500
     33 H21         3.3790   -0.3670   -3.0300 hn        1 IMG      0.409800
     34 H22         2.7780   -0.5100   -4.5740 hn        1 IMG      0.409800
     35 N2          2.6910   -0.0620   -3.6870 nh        1 IMG     -0.881800
@<TRIPOS>BOND
     1    1    2 1   
     2    1   20 1   
     3    2    3 1   
     4    2   21 1   
     5    2   22 1   
     6    3    4 1   
     7    3    5 1   
     8    3   23 1   
     9    4    9 1   
    10    4   24 1   
    11    5    6 1   
    12    5    7 1   
    13    5   25 1   
    14    6   26 1   
    15    7    8 1   
    16    7    9 1   
    17    7   27 1   
    18    8   28 1   
    19    9   10 1   
    20    9   29 1   
    21   10   11 2   
    22   10   19 1   
    23   11   12 1   
    24   11   30 1   
    25   12   13 1   
    26   12   31 1   
    27   13   14 1   
    28   13   19 2   
    29   14   15 2   
    30   14   16 1   
    31   16   17 1   
    32   16   32 1   
    33   17   18 2   
    34   17   35 1   
    35   18   19 1   
    36   33   35 1   
    37   34   35 1   
@<TRIPOS>SUBSTRUCTURE
     1 IMG         1 TEMP              0 ****  ****    0 ROOT
