@<TRIPOS>MOLECULE
IMG
   36    36     1     0     0
SMALL
bcc


@<TRIPOS>ATOM
      1 O5'        -0.6810    0.3380    0.8250 oh        1 IMG     -0.816000
      2 C5'         2.5380    0.2870    0.1590 c2        1 IMG     -0.238000
      3 C4'         2.7090   -0.4380    1.2730 c2        1 IMG      0.005800
      4 N4'         1.7060   -1.2100    1.9150 nh        1 IMG     -0.715000
      5 C3'         4.0450   -0.5750    1.9890 c3        1 IMG      0.147300
      6 O3'         4.5230    0.6570    2.4980 oh        1 IMG     -0.609800
      7 C2'         3.7510   -1.4970    3.2000 c3        1 IMG      0.137100
      8 O2'         4.2380   -1.0290    4.4360 oh        1 IMG     -0.636800
      9 C1'         2.1910   -1.6300    3.2280 c3        1 IMG      0.165500
     10 C9          1.7420   -3.0600    3.5620 c3        1 IMG     -0.197300
     11 C8          2.1510   -4.1040    2.5320 c2        1 IMG      0.419200
     12 N7          2.9410   -5.0400    2.9750 ne        1 IMG     -0.476300
     13 C5          3.2050   -4.7680    4.3670 ce        1 IMG     -0.347100
     14 C6          3.9850   -5.5800    5.0920 c1        1 IMG      0.682600
     15 O6          4.6680   -6.2870    5.7350 o         1 IMG     -0.270500
     16 N1          2.7150   -3.5540    8.2410 nh        1 IMG     -0.490100
     17 C2          3.2360   -3.0760    7.0690 cf        1 IMG      0.660800
     18 N3          2.4010   -2.9440    5.9480 nf        1 IMG     -0.766000
     19 C4          2.4960   -3.5620    4.8150 ce        1 IMG      0.658600
     20 HO'5       -1.1850    1.1490    0.9390 ho        1 IMG      0.409500
     21 H5'1       -1.0580   -0.0580    0.0330 ho        1 IMG      0.409500
     22 H5'2        1.5560    0.4090   -0.3200 ha        1 IMG      0.137000
     23 H4'         3.3810    0.7910   -0.3290 ha        1 IMG      0.137000
     24 HN'4        0.7990   -0.7810    1.9260 hn        1 IMG      0.431800
     25 H3'         4.2400   -2.4980    3.0510 h1        1 IMG      0.083700
     26 HO'3        4.8240   -1.0240    1.3160 h1        1 IMG      0.081700
     27 H2'         4.3790    1.3280    1.8170 ho        1 IMG      0.435000
     28 HO'2        4.1780   -0.0620    4.4470 ho        1 IMG      0.449000
     29 H1'         1.7950   -0.9630    4.0530 h1        1 IMG      0.065700
     30 H8          0.6310   -3.0890    3.7230 hc        1 IMG      0.126700
     31 H7          1.7950   -4.0560    1.4920 h4        1 IMG      0.090800
     32 H1          1.7650   -3.8560    8.2730 hn        1 IMG      0.325450
     33 H21         3.1860   -3.4200    9.1090 hn        1 IMG      0.325450
     34 H22         4.8560   -2.1940    6.1580 hn        1 IMG      0.325450
     35 N2          4.5330   -2.6350    7.0020 nh        1 IMG     -0.474200
     36 H23         5.0690   -2.4850    7.8280 hn        1 IMG      0.325450
@<TRIPOS>BOND
     1    1   20 1   
     2    1   21 1   
     3    2    3 2   
     4    2   22 1   
     5    2   23 1   
     6    3    4 1   
     7    3    5 1   
     8    4    9 1   
     9    4   24 1   
    10    5    6 1   
    11    5    7 1   
    12    5   26 1   
    13    6   27 1   
    14    7    8 1   
    15    7    9 1   
    16    7   25 1   
    17    8   28 1   
    18    9   10 1   
    19    9   29 1   
    20   10   11 1   
    21   10   19 1   
    22   10   30 1   
    23   11   12 2   
    24   11   31 1   
    25   12   13 1   
    26   13   14 2   
    27   13   19 1   
    28   14   15 2   
    29   16   17 2   
    30   16   32 1   
    31   16   33 1   
    32   17   18 1   
    33   17   35 1   
    34   18   19 2   
    35   34   35 1   
    36   35   36 1   
@<TRIPOS>SUBSTRUCTURE
     1 IMG         1 TEMP              0 ****  ****    0 ROOT
