@<TRIPOS>MOLECULE
IMG
   36    34     1     0     0
SMALL
bcc


@<TRIPOS>ATOM
      1 O5'         1.1350   -2.3300    0.7030 oh        1 IMG     -0.422000
      2 C5'         2.6040    2.9790   -1.6380 c2        1 IMG     -0.090000
      3 C4'         2.6670    1.7330   -1.2880 c1        1 IMG     -0.293000
      4 N4'         2.4460   -0.7230    3.0070 n8        1 IMG     -0.356000
      5 C3'         2.7580    0.4650   -0.9820 c2        1 IMG      0.022000
      6 O3'         2.1670   -0.1270    0.1170 oh        1 IMG     -0.307000
      7 C2'         4.1240   -2.2940    4.1890 c1        1 IMG     -0.093000
      8 O2'         4.9410   -2.0350    3.1960 oh        1 IMG     -0.194000
      9 C1'         2.8480   -1.4760    4.1710 c3        1 IMG     -0.074000
     10 C9          1.7290   -2.4190    4.6530 c3        1 IMG     -0.069000
     11 C8          1.3410   -3.4880    3.6370 c2        1 IMG     -0.093000
     12 N7          1.5330   -4.7150    4.0270 n2        1 IMG     -0.043000
     13 C5          2.0910   -4.6700    5.3570 c2        1 IMG     -0.330000
     14 C6          2.3900   -5.7940    6.0210 c1        1 IMG      0.383000
     15 O6          2.6650   -6.7720    6.6130 o         1 IMG     -0.042000
     16 N1          4.3800   -4.2470    7.7260 n8        1 IMG     -0.341500
     17 C2          3.2970   -3.4290    7.9800 c2        1 IMG      0.346000
     18 N3          2.6290   -2.7590    6.9470 n2        1 IMG     -0.267000
     19 C4          2.2470   -3.2870    5.8200 c2        1 IMG      0.235000
     20 HO'5        0.5370   -1.6430    0.3910 ho        1 IMG      0.214500
     21 H5'1        1.8610   -2.3030    0.0710 ho        1 IMG      0.214500
     22 H5'2        3.3370    3.7260   -1.2940 ha        1 IMG      0.134500
     23 H4'         1.8140    3.3650   -2.3020 ha        1 IMG      0.134500
     24 HN'4        3.1980   -0.1420    2.6900 hn        1 IMG      0.176500
     25 H3'         2.1500   -1.3180    2.2550 hn        1 IMG      0.176500
     26 HO'3        3.3160   -0.2920   -1.5580 h4        1 IMG      0.175000
     27 H2'         1.6790    0.5450    0.6150 ho        1 IMG      0.227000
     28 HO'2        5.7440   -2.5820    3.3010 ho        1 IMG      0.266000
     29 H1'         3.0230   -0.7140    5.0030 h1        1 IMG      0.147000
     30 H8          0.8280   -1.8210    4.9590 hc        1 IMG      0.177000
     31 H7          0.9250   -3.2320    2.6460 h4        1 IMG      0.241000
     32 H1          4.7550   -4.2680    6.8000 hn        1 IMG      0.271500
     33 H21         4.9850   -4.5390    8.4610 hn        1 IMG      0.271500
     34 H22         2.0900   -2.6280    9.4340 hn        1 IMG      0.271500
     35 N2          2.8930   -3.1960    9.2640 n8        1 IMG     -0.341500
     36 H23         3.4460   -3.4710   10.0440 hn        1 IMG      0.271500
@<TRIPOS>BOND
     1    1   20 1   
     2    1   21 1   
     3    2    3 1   
     4    2   22 1   
     5    2   23 1   
     6    3    5 1   
     7    4    9 1   
     8    4   24 1   
     9    4   25 1   
    10    5    6 1   
    11    5   26 1   
    12    6   27 1   
    13    7    8 1   
    14    7    9 1   
    15    8   28 1   
    16    9   10 1   
    17    9   29 1   
    18   10   11 1   
    19   10   19 1   
    20   10   30 1   
    21   11   12 1   
    22   11   31 1   
    23   12   13 1   
    24   13   14 1   
    25   13   19 1   
    26   14   15 1   
    27   16   17 1   
    28   16   32 1   
    29   16   33 1   
    30   17   18 1   
    31   17   35 1   
    32   18   19 1   
    33   34   35 1   
    34   35   36 1   
@<TRIPOS>SUBSTRUCTURE
     1 IMG         1 TEMP              0 ****  ****    0 ROOT
