@<TRIPOS>MOLECULE
IMH
   33    35     1     0     0
SMALL
bcc


@<TRIPOS>ATOM
      1 O5'         0.4860    0.0560   -0.4940 oh        1 IMH     -0.603800
      2 C5'         1.8450   -0.2270   -0.2020 c3        1 IMH      0.139400
      3 C4'         2.0270   -0.0310    1.3090 c3        1 IMH      0.135500
      4 N4'         1.4370   -1.1210    2.0870 n7        1 IMH     -0.818200
      5 C3'         3.5410    0.0370    1.6590 c3        1 IMH      0.145100
      6 O3'         4.0160    1.3590    1.6660 oh        1 IMH     -0.584800
      7 C2'         3.6680   -0.6920    3.0160 c3        1 IMH      0.108100
      8 O2'         3.8840    0.2860    4.0150 oh        1 IMH     -0.612800
      9 C1'         2.2940   -1.4040    3.2440 c3        1 IMH      0.213700
     10 C9          2.4870   -2.8550    3.4750 cc        1 IMH     -0.265000
     11 C8          1.9850   -3.9320    2.7330 cd        1 IMH     -0.047100
     12 N7          2.3720   -5.1410    3.3030 na        1 IMH     -0.152400
     13 C5          3.1360   -4.8640    4.4290 ca        1 IMH     -0.304800
     14 C6          3.7950   -5.6630    5.4020 ca        1 IMH      0.670600
     15 O6          3.6990   -7.0250    5.2650 oh        1 IMH     -0.620300
     16 N1          4.4850   -5.0950    6.4150 nb        1 IMH     -0.770000
     17 C2          4.5120   -3.7230    6.4460 ca        1 IMH      0.645900
     18 N3          3.9380   -2.8480    5.5980 nb        1 IMH     -0.695000
     19 C4          3.2390   -3.4170    4.5790 ca        1 IMH      0.441100
     20 HO'5        0.3670   -0.1140   -1.4350 ho        1 IMH      0.400000
     21 H5'1        2.1030   -1.2720   -0.5180 h1        1 IMH      0.033200
     22 H5'2        2.5110    0.5020   -0.7390 h1        1 IMH      0.033200
     23 H4'         1.5560    0.9640    1.5710 h1        1 IMH      0.055700
     24 HN'4        0.5050   -0.8950    2.3690 hn        1 IMH      0.377800
     25 H3'         4.1570   -0.4860    0.8780 h1        1 IMH      0.082700
     26 HO'3        3.6900    1.7950    2.4650 ho        1 IMH      0.423000
     27 H2'         4.5100   -1.4300    3.0030 h1        1 IMH      0.066700
     28 HO'2        4.0860   -0.1890    4.8320 ho        1 IMH      0.432000
     29 H1'         1.8450   -0.9740    4.1940 h1        1 IMH      0.058700
     30 H8          1.3710   -3.9050    1.8280 h4        1 IMH      0.190000
     31 HN7         2.1480   -6.0470    2.9820 hn        1 IMH      0.315700
     32 HO6         4.1860   -7.4580    5.9860 ho        1 IMH      0.450000
     33 H2          5.0890   -3.2910    7.2910 h5        1 IMH      0.055100
@<TRIPOS>BOND
     1    1    2 1   
     2    1   20 1   
     3    2    3 1   
     4    2   21 1   
     5    2   22 1   
     6    3    4 1   
     7    3    5 1   
     8    3   23 1   
     9    4    9 1   
    10    4   24 1   
    11    5    6 1   
    12    5    7 1   
    13    5   25 1   
    14    6   26 1   
    15    7    8 1   
    16    7    9 1   
    17    7   27 1   
    18    8   28 1   
    19    9   10 1   
    20    9   29 1   
    21   10   11 2   
    22   10   19 1   
    23   11   12 1   
    24   11   30 1   
    25   12   13 1   
    26   12   31 1   
    27   13   14 ar  
    28   13   19 ar  
    29   14   15 1   
    30   14   16 ar  
    31   15   32 1   
    32   16   17 ar  
    33   17   18 ar  
    34   17   33 1   
    35   18   19 ar  
@<TRIPOS>SUBSTRUCTURE
     1 IMH         1 TEMP              0 ****  ****    0 ROOT
