@<TRIPOS>MOLECULE
IMH
   33    35     1     0     0
SMALL
bcc


@<TRIPOS>ATOM
      1 O5'         0.7580   -1.6370   -0.0260 oh        1 IMH     -0.609800
      2 C5'         2.0310   -1.0290    0.0610 c3        1 IMH      0.098400
      3 C4'         2.1460   -0.0860    1.2720 c3        1 IMH      0.084500
      4 N4'         1.5120   -0.5500    2.5060 n3        1 IMH     -0.794200
      5 C3'         3.6460    0.1700    1.5800 c3        1 IMH      0.107100
      6 O3'         3.9390    1.5480    1.6280 oh        1 IMH     -0.596800
      7 C2'         3.9080   -0.5050    2.9510 c3        1 IMH      0.107100
      8 O2'         4.2850    0.4670    3.9070 oh        1 IMH     -0.583800
      9 C1'         2.5360   -1.0880    3.4110 c3        1 IMH      0.236700
     10 C9          2.6000   -2.5690    3.4950 cc        1 IMH     -0.293000
     11 C8          2.1160   -3.5020    2.5660 cd        1 IMH     -0.085100
     12 N7          2.3420   -4.8000    3.0100 na        1 IMH     -0.144400
     13 C5          2.9720   -4.7300    4.2450 ca        1 IMH     -0.308800
     14 C6          3.4390   -5.7000    5.1730 ca        1 IMH      0.667600
     15 O6          3.2640   -7.0200    4.8400 oh        1 IMH     -0.622300
     16 N1          4.0270   -5.3270    6.3290 nb        1 IMH     -0.769000
     17 C2          4.1440   -3.9750    6.5490 ca        1 IMH      0.640900
     18 N3          3.7520   -2.9540    5.7640 nb        1 IMH     -0.662000
     19 C4          3.1590   -3.3260    4.5980 ca        1 IMH      0.455100
     20 HO'5        0.1070   -0.9330   -0.1340 ho        1 IMH      0.409000
     21 H5'1        2.2600   -0.4580   -0.8760 h1        1 IMH      0.052700
     22 H5'2        2.7430   -1.8940    0.1530 h1        1 IMH      0.052700
     23 H4'         1.6440    0.8900    1.0070 h1        1 IMH      0.078700
     24 HN'4        0.8020   -1.2320    2.3080 hn        1 IMH      0.371800
     25 H3'         4.3130   -0.2350    0.7750 h1        1 IMH      0.081700
     26 HO'3        3.4370    1.9260    2.3650 ho        1 IMH      0.424000
     27 H2'         4.6890   -1.3040    2.8750 h1        1 IMH      0.060700
     28 HO'2        5.1370    0.8210    3.6190 ho        1 IMH      0.410000
     29 H1'         2.3020   -0.6810    4.4420 h1        1 IMH      0.115700
     30 H8          1.6170   -3.3180    1.6070 h4        1 IMH      0.191000
     31 HN7         2.0770   -5.6350    2.5560 hn        1 IMH      0.316700
     32 HO6         3.6180   -7.5820    5.5500 ho        1 IMH      0.449000
     33 H2          4.6310   -3.7030    7.5090 h5        1 IMH      0.056100
@<TRIPOS>BOND
     1    1    2 1   
     2    1   20 1   
     3    2    3 1   
     4    2   21 1   
     5    2   22 1   
     6    3    4 1   
     7    3    5 1   
     8    3   23 1   
     9    4    9 1   
    10    4   24 1   
    11    5    6 1   
    12    5    7 1   
    13    5   25 1   
    14    6   26 1   
    15    7    8 1   
    16    7    9 1   
    17    7   27 1   
    18    8   28 1   
    19    9   10 1   
    20    9   29 1   
    21   10   11 2   
    22   10   19 1   
    23   11   12 1   
    24   11   30 1   
    25   12   13 1   
    26   12   31 1   
    27   13   14 ar  
    28   13   19 ar  
    29   14   15 1   
    30   14   16 ar  
    31   15   32 1   
    32   16   17 ar  
    33   17   18 ar  
    34   17   33 1   
    35   18   19 ar  
@<TRIPOS>SUBSTRUCTURE
     1 IMH         1 TEMP              0 ****  ****    0 ROOT
