@<TRIPOS>MOLECULE
IMH
   33    35     1     0     0
SMALL
bcc


@<TRIPOS>ATOM
      1 O5'         0.8930   -0.8190   -0.5980 oh        1 IMH     -0.599800
      2 C5'         2.1520   -0.9020    0.0330 c3        1 IMH      0.139400
      3 C4'         2.1930   -0.0920    1.3400 c3        1 IMH      0.087500
      4 N4'         1.3600   -0.6970    2.3860 n3        1 IMH     -0.808200
      5 C3'         3.6580   -0.0030    1.8540 c3        1 IMH      0.086100
      6 O3'         4.1720    1.3120    1.7880 oh        1 IMH     -0.598800
      7 C2'         3.5980   -0.4160    3.3440 c3        1 IMH      0.137100
      8 O2'         3.5460    0.7010    4.2090 oh        1 IMH     -0.590800
      9 C1'         2.2230   -1.1420    3.4930 c3        1 IMH      0.237700
     10 C9          2.4050   -2.6140    3.5270 cc        1 IMH     -0.260000
     11 C8          1.8980   -3.5650    2.6310 cd        1 IMH     -0.058100
     12 N7          2.2490   -4.8510    3.0280 na        1 IMH     -0.152400
     13 C5          2.9840   -4.7540    4.2010 ca        1 IMH     -0.306800
     14 C6          3.5960   -5.7020    5.0660 ca        1 IMH      0.666600
     15 O6          3.4760   -7.0270    4.7280 oh        1 IMH     -0.622300
     16 N1          4.2640   -5.3050    6.1700 nb        1 IMH     -0.769000
     17 C2          4.3150   -3.9510    6.4010 ca        1 IMH      0.639900
     18 N3          3.7880   -2.9500    5.6730 nb        1 IMH     -0.668000
     19 C4          3.1130   -3.3450    4.5600 ca        1 IMH      0.446100
     20 HO'5        0.2380   -1.1790    0.0130 ho        1 IMH      0.410000
     21 H5'1        2.4270   -1.9750    0.2180 h1        1 IMH      0.044200
     22 H5'2        2.8710   -0.4520   -0.7040 h1        1 IMH      0.044200
     23 H4'         1.8220    0.9480    1.1020 h1        1 IMH      0.067700
     24 HN'4        0.7070   -0.0180    2.7310 hn        1 IMH      0.371800
     25 H3'         4.3260   -0.7000    1.2800 h1        1 IMH      0.050700
     26 HO'3        4.1260    1.5860    0.8640 ho        1 IMH      0.412000
     27 H2'         4.4580   -1.0770    3.6190 h1        1 IMH      0.071700
     28 HO'2        4.2940    1.2710    3.9870 ho        1 IMH      0.422000
     29 H1'         1.7700   -0.8320    4.4840 h1        1 IMH      0.095700
     30 H8          1.3000   -3.4010    1.7300 h4        1 IMH      0.183000
     31 HN7         1.9980   -5.6970    2.5870 hn        1 IMH      0.314700
     32 HO6         3.9290   -7.5730    5.3930 ho        1 IMH      0.449000
     33 H2          4.8700   -3.6590    7.3170 h5        1 IMH      0.056100
@<TRIPOS>BOND
     1    1    2 1   
     2    1   20 1   
     3    2    3 1   
     4    2   21 1   
     5    2   22 1   
     6    3    4 1   
     7    3    5 1   
     8    3   23 1   
     9    4    9 1   
    10    4   24 1   
    11    5    6 1   
    12    5    7 1   
    13    5   25 1   
    14    6   26 1   
    15    7    8 1   
    16    7    9 1   
    17    7   27 1   
    18    8   28 1   
    19    9   10 1   
    20    9   29 1   
    21   10   11 2   
    22   10   19 1   
    23   11   12 1   
    24   11   30 1   
    25   12   13 1   
    26   12   31 1   
    27   13   14 ar  
    28   13   19 ar  
    29   14   15 1   
    30   14   16 ar  
    31   15   32 1   
    32   16   17 ar  
    33   17   18 ar  
    34   17   33 1   
    35   18   19 ar  
@<TRIPOS>SUBSTRUCTURE
     1 IMH         1 TEMP              0 ****  ****    0 ROOT
