@<TRIPOS>MOLECULE
IMH
   33    35     1     0     0
SMALL
bcc


@<TRIPOS>ATOM
      1 O5'         2.0670    1.0020    4.5400 oh        1 IMH     -0.599800
      2 C5'         1.3890   -0.1630    4.0980 c3        1 IMH      0.140400
      3 C4'         0.2040    0.3110    3.2420 c3        1 IMH      0.167500
      4 N4'         0.6300    0.7990    1.9310 n3        1 IMH     -0.825200
      5 C3'        -0.7870   -0.8580    3.0090 c3        1 IMH      0.096100
      6 O3'        -1.9180   -0.6180    3.8250 oh        1 IMH     -0.600800
      7 C2'        -1.1570   -0.8090    1.5060 c3        1 IMH      0.105100
      8 O2'        -2.5490   -0.6660    1.3430 oh        1 IMH     -0.585800
      9 C1'        -0.3480    0.3880    0.9150 c3        1 IMH      0.220700
     10 C9          0.3040    0.0190   -0.3640 cc        1 IMH     -0.262000
     11 C8          1.5600   -0.5770   -0.5420 cd        1 IMH     -0.051100
     12 N7          1.8220   -0.7740   -1.8930 na        1 IMH     -0.152400
     13 C5          0.7390   -0.2940   -2.6170 ca        1 IMH     -0.308800
     14 C6          0.4310   -0.2140   -4.0020 ca        1 IMH      0.666600
     15 O6          1.3640   -0.7060   -4.8800 oh        1 IMH     -0.622300
     16 N1         -0.7320    0.3250   -4.4250 nb        1 IMH     -0.770000
     17 C2         -1.5840    0.7860   -3.4510 ca        1 IMH      0.641900
     18 N3         -1.4250    0.7740   -2.1140 nb        1 IMH     -0.671000
     19 C4         -0.2570    0.2270   -1.6840 ca        1 IMH      0.454100
     20 HO'5        2.8700    0.7020    4.9800 ho        1 IMH      0.401000
     21 H5'1        2.0820   -0.8250    3.5140 h1        1 IMH      0.030200
     22 H5'2        0.9920   -0.7280    4.9840 h1        1 IMH      0.030200
     23 H4'        -0.3270    1.1180    3.8340 h1        1 IMH      0.071700
     24 HN'4        0.7630    1.7890    1.9370 hn        1 IMH      0.383800
     25 H3'        -0.3300   -1.8470    3.2760 h1        1 IMH      0.051700
     26 HO'3       -2.6000   -1.2460    3.5490 ho        1 IMH      0.419000
     27 H2'        -0.9070   -1.7700    0.9840 h1        1 IMH      0.094700
     28 HO'2       -2.8020    0.2000    1.6920 ho        1 IMH      0.412000
     29 H1'        -1.0820    1.2230    0.6900 h1        1 IMH      0.060700
     30 H8          2.2890   -0.8620    0.2220 h4        1 IMH      0.184000
     31 HN7         2.6420   -1.1540   -2.2900 hn        1 IMH      0.314700
     32 HO6         1.0410   -0.5960   -5.7910 ho        1 IMH      0.448000
     33 H2         -2.5300    1.2250   -3.8330 h5        1 IMH      0.054100
@<TRIPOS>BOND
     1    1    2 1   
     2    1   20 1   
     3    2    3 1   
     4    2   21 1   
     5    2   22 1   
     6    3    4 1   
     7    3    5 1   
     8    3   23 1   
     9    4    9 1   
    10    4   24 1   
    11    5    6 1   
    12    5    7 1   
    13    5   25 1   
    14    6   26 1   
    15    7    8 1   
    16    7    9 1   
    17    7   27 1   
    18    8   28 1   
    19    9   10 1   
    20    9   29 1   
    21   10   11 2   
    22   10   19 1   
    23   11   12 1   
    24   11   30 1   
    25   12   13 1   
    26   12   31 1   
    27   13   14 ar  
    28   13   19 ar  
    29   14   15 1   
    30   14   16 ar  
    31   15   32 1   
    32   16   17 ar  
    33   17   18 ar  
    34   17   33 1   
    35   18   19 ar  
@<TRIPOS>SUBSTRUCTURE
     1 IMH         1 TEMP              0 ****  ****    0 ROOT
