@<TRIPOS>MOLECULE
IMI
   32    33     1     0     0
SMALL
bcc


@<TRIPOS>ATOM
      1 C11        -0.1260    0.3370    0.0680 c         1 IMI      0.908600
      2 O11         0.9010    1.0750    0.0870 o         1 IMI     -0.850800
      3 O12        -0.6190   -0.2140    1.0930 o         1 IMI     -0.850800
      4 C10        -0.8410    0.1110   -1.2780 c3        1 IMI     -0.195400
      5 C9          0.1500   -0.1250   -2.3920 c3        1 IMI     -0.067400
      6 C8         -0.5120   -0.0690   -3.7530 c3        1 IMI     -0.080400
      7 C7          0.4990   -0.2930   -4.8620 c3        1 IMI     -0.076400
      8 C2         -0.1460   -0.1920   -6.2240 c3        1 IMI     -0.003600
      9 S1         -1.2540   -1.5740   -6.4790 ss        1 IMI     -0.287200
     10 C6         -1.1530   -1.5260   -8.2370 c3        1 IMI     -0.046300
     11 C5          0.2050   -0.9600   -8.6290 c3        1 IMI      0.156500
     12 N1          1.2270   -1.9400   -9.0020 nu        1 IMI     -0.804200
     13 C3          2.3600   -1.7790   -8.0890 c2        1 IMI      0.718100
     14 N3          3.4630   -2.4690   -8.0790 n2        1 IMI     -0.829100
     15 N2          2.1720   -0.6180   -7.2480 nu        1 IMI     -0.768200
     16 C4          0.8070   -0.1300   -7.4210 c3        1 IMI      0.164500
     17 H101       -1.4510    1.0240   -1.4940 hc        1 IMI      0.020700
     18 H102       -1.5400   -0.7570   -1.1860 hc        1 IMI      0.020700
     19 H91         0.6390   -1.1250   -2.2530 hc        1 IMI      0.047200
     20 H92         0.9580    0.6520   -2.3220 hc        1 IMI      0.047200
     21 H81        -1.0030    0.9310   -3.8880 hc        1 IMI      0.036200
     22 H82        -1.3180   -0.8470   -3.8190 hc        1 IMI      0.036200
     23 H71         1.3080    0.4820   -4.7760 hc        1 IMI      0.055200
     24 H72         0.9730   -1.3010   -4.7250 hc        1 IMI      0.055200
     25 H2         -0.7710    0.7410   -6.2480 h1        1 IMI      0.080700
     26 H61        -1.9580   -0.8730   -8.6530 h1        1 IMI      0.073200
     27 H62        -1.3260   -2.5570   -8.6300 h1        1 IMI      0.073200
     28 H5          0.0850   -0.2750   -9.5160 h1        1 IMI      0.081700
     29 HN1         0.8830   -2.8810   -8.9970 hn        1 IMI      0.383800
     30 HN3         3.5110   -3.1960   -8.7610 hn        1 IMI      0.391400
     31 HN2         2.4650   -0.7520   -6.3010 hn        1 IMI      0.426800
     32 H4          0.9080    0.9490   -7.7350 h1        1 IMI      0.083700
@<TRIPOS>BOND
     1    1    2 1   
     2    1    3 1   
     3    1    4 1   
     4    4    5 1   
     5    4   17 1   
     6    4   18 1   
     7    5    6 1   
     8    5   19 1   
     9    5   20 1   
    10    6    7 1   
    11    6   21 1   
    12    6   22 1   
    13    7    8 1   
    14    7   23 1   
    15    7   24 1   
    16    8    9 1   
    17    8   16 1   
    18    8   25 1   
    19    9   10 1   
    20   10   11 1   
    21   10   26 1   
    22   10   27 1   
    23   11   12 1   
    24   11   16 1   
    25   11   28 1   
    26   12   13 1   
    27   12   29 1   
    28   13   14 2   
    29   13   15 1   
    30   14   30 1   
    31   15   16 1   
    32   15   31 1   
    33   16   32 1   
@<TRIPOS>SUBSTRUCTURE
     1 IMI         1 TEMP              0 ****  ****    0 ROOT
