@<TRIPOS>MOLECULE
IMI
   32    33     1     0     0
SMALL
bcc


@<TRIPOS>ATOM
      1 C11        -0.1120    0.3210    0.0710 c         1 IMI      0.908600
      2 O11         0.9080    1.0700    0.0890 o         1 IMI     -0.850800
      3 O12        -0.5950   -0.2380    1.0970 o         1 IMI     -0.850800
      4 C10        -0.8300    0.0910   -1.2710 c3        1 IMI     -0.195400
      5 C9          0.1570   -0.1330   -2.3900 c3        1 IMI     -0.067400
      6 C8         -0.5110   -0.0800   -3.7480 c3        1 IMI     -0.080400
      7 C7          0.4970   -0.2920   -4.8620 c3        1 IMI     -0.076400
      8 C2         -0.1550   -0.1950   -6.2210 c3        1 IMI     -0.003600
      9 S1         -1.2500   -1.5860   -6.4740 ss        1 IMI     -0.287200
     10 C6         -1.1570   -1.5330   -8.2330 c3        1 IMI     -0.046300
     11 C5          0.1940   -0.9530   -8.6290 c3        1 IMI      0.156500
     12 N1          1.2230   -1.9230   -9.0090 nh        1 IMI     -0.804200
     13 C3          2.3590   -1.7530   -8.1010 c2        1 IMI      0.718100
     14 N3          3.4680   -2.4330   -8.0970 n2        1 IMI     -0.829100
     15 N2          2.1630   -0.5960   -7.2560 nh        1 IMI     -0.768200
     16 C4          0.7930   -0.1200   -7.4220 c3        1 IMI      0.164500
     17 H101       -1.4500    0.9990   -1.4830 hc        1 IMI      0.020700
     18 H102       -1.5210   -0.7830   -1.1780 hc        1 IMI      0.020700
     19 H91         0.9580    0.6520   -2.3220 hc        1 IMI      0.047200
     20 H92         0.6560   -1.1280   -2.2560 hc        1 IMI      0.047200
     21 H81        -1.0110    0.9160   -3.8780 hc        1 IMI      0.036200
     22 H82        -1.3100   -0.8660   -3.8130 hc        1 IMI      0.036200
     23 H71         0.9820   -1.2960   -4.7300 hc        1 IMI      0.055200
     24 H72         1.3000    0.4910   -4.7780 hc        1 IMI      0.055200
     25 H2         -0.7880    0.7330   -6.2400 h1        1 IMI      0.080700
     26 H61        -1.9700   -0.8860   -8.6440 h1        1 IMI      0.073200
     27 H62        -1.3230   -2.5650   -8.6270 h1        1 IMI      0.073200
     28 H5          0.0630   -0.2680   -9.5140 h1        1 IMI      0.081700
     29 HN1         0.8880   -2.8670   -9.0040 hn        1 IMI      0.383800
     30 HN3         3.5200   -3.1580   -8.7800 hn        1 IMI      0.391400
     31 HN2         2.4610   -0.7300   -6.3100 hn        1 IMI      0.426800
     32 H4          0.8820    0.9610   -7.7340 h1        1 IMI      0.083700
@<TRIPOS>BOND
     1    1    2 1   
     2    1    3 1   
     3    1    4 1   
     4    4    5 1   
     5    4   17 1   
     6    4   18 1   
     7    5    6 1   
     8    5   19 1   
     9    5   20 1   
    10    6    7 1   
    11    6   21 1   
    12    6   22 1   
    13    7    8 1   
    14    7   23 1   
    15    7   24 1   
    16    8    9 1   
    17    8   16 1   
    18    8   25 1   
    19    9   10 1   
    20   10   11 1   
    21   10   26 1   
    22   10   27 1   
    23   11   12 1   
    24   11   16 1   
    25   11   28 1   
    26   12   13 1   
    27   12   29 1   
    28   13   14 2   
    29   13   15 1   
    30   14   30 1   
    31   15   16 1   
    32   15   31 1   
    33   16   32 1   
@<TRIPOS>SUBSTRUCTURE
     1 IMI         1 TEMP              0 ****  ****    0 ROOT
