@<TRIPOS>MOLECULE
IMI
   32    33     1     0     0
SMALL
bcc


@<TRIPOS>ATOM
      1 C11         0.1460    0.1000    5.2050 c         1 IMI      0.908600
      2 O11         1.0600    0.9740    5.2560 o         1 IMI     -0.850800
      3 O12        -0.1230   -0.6960    6.1500 o         1 IMI     -0.850800
      4 C10        -0.7130    0.0100    3.9290 c3        1 IMI     -0.195400
      5 C9          0.1360    0.1340    2.6880 c3        1 IMI     -0.067400
      6 C8         -0.7100    0.3300    1.4470 c3        1 IMI     -0.080400
      7 C7          0.1580    0.4680    0.2100 c3        1 IMI     -0.076400
      8 C2         -0.6770    0.7090   -1.0250 c3        1 IMI     -0.003600
      9 S1         -1.6180   -0.7600   -1.4230 ss        1 IMI     -0.287200
     10 C6         -1.7690   -0.3830   -3.1370 c3        1 IMI     -0.046300
     11 C5         -0.5650    0.4490   -3.5580 c3        1 IMI      0.156500
     12 N1          0.5150   -0.2780   -4.2290 nh        1 IMI     -0.804200
     13 C3          1.7330   -0.1090   -3.4340 c2        1 IMI      0.718100
     14 N3          2.9080   -0.6100   -3.6830 n2        1 IMI     -0.829100
     15 N2          1.5130    0.8390   -2.3640 nh        1 IMI     -0.768200
     16 C4          0.0850    1.1320   -2.2850 c3        1 IMI      0.164500
     17 H101       -1.2730   -0.9580    3.9260 hc        1 IMI      0.020700
     18 H102       -1.4620    0.8410    3.9670 hc        1 IMI      0.020700
     19 H91         0.8370    1.0030    2.8190 hc        1 IMI      0.047200
     20 H92         0.7660   -0.7860    2.5710 hc        1 IMI      0.047200
     21 H81        -1.4080   -0.5390    1.3180 hc        1 IMI      0.036200
     22 H82        -1.3410    1.2490    1.5670 hc        1 IMI      0.036200
     23 H71         0.8620    1.3310    0.3560 hc        1 IMI      0.055200
     24 H72         0.7750   -0.4620    0.0910 hc        1 IMI      0.055200
     25 H2         -1.4170    1.5240   -0.7950 h1        1 IMI      0.080700
     26 H61        -1.8580   -1.3410   -3.7040 h1        1 IMI      0.073200
     27 H62        -2.7030    0.2020   -3.3240 h1        1 IMI      0.073200
     28 H5         -0.8960    1.2540   -4.2740 h1        1 IMI      0.081700
     29 HN1         0.3020   -1.2460   -4.3710 hn        1 IMI      0.383800
     30 HN3         2.9560   -1.1870   -4.4950 hn        1 IMI      0.391400
     31 HN2         1.9490    0.5840   -1.5000 hn        1 IMI      0.426800
     32 H4         -0.0020    2.2530   -2.3890 h1        1 IMI      0.083700
@<TRIPOS>BOND
     1    1    2 1   
     2    1    3 1   
     3    1    4 1   
     4    4    5 1   
     5    4   17 1   
     6    4   18 1   
     7    5    6 1   
     8    5   19 1   
     9    5   20 1   
    10    6    7 1   
    11    6   21 1   
    12    6   22 1   
    13    7    8 1   
    14    7   23 1   
    15    7   24 1   
    16    8    9 1   
    17    8   16 1   
    18    8   25 1   
    19    9   10 1   
    20   10   11 1   
    21   10   26 1   
    22   10   27 1   
    23   11   12 1   
    24   11   16 1   
    25   11   28 1   
    26   12   13 1   
    27   12   29 1   
    28   13   14 2   
    29   13   15 1   
    30   14   30 1   
    31   15   16 1   
    32   15   31 1   
    33   16   32 1   
@<TRIPOS>SUBSTRUCTURE
     1 IMI         1 TEMP              0 ****  ****    0 ROOT
