@<TRIPOS>MOLECULE
IMI
   32    33     1     0     0
SMALL
bcc


@<TRIPOS>ATOM
      1 C11        -0.1060    0.3280    0.0710 c         1 IMI      0.908600
      2 O11         0.9270    1.0580    0.0890 o         1 IMI     -0.850800
      3 O12        -0.6010   -0.2210    1.0970 o         1 IMI     -0.850800
      4 C10        -0.8260    0.1080   -1.2730 c3        1 IMI     -0.195400
      5 C9          0.1600   -0.1310   -2.3900 c3        1 IMI     -0.067400
      6 C8         -0.5050   -0.0680   -3.7490 c3        1 IMI     -0.080400
      7 C7          0.5010   -0.2950   -4.8620 c3        1 IMI     -0.076400
      8 C2         -0.1470   -0.1890   -6.2220 c3        1 IMI     -0.003600
      9 S1         -1.2610   -1.5660   -6.4760 ss        1 IMI     -0.287200
     10 C6         -1.1650   -1.5140   -8.2350 c3        1 IMI     -0.046300
     11 C5          0.1940   -0.9530   -8.6290 c3        1 IMI      0.156500
     12 N1          1.2110   -1.9360   -9.0080 nh        1 IMI     -0.804200
     13 C3          2.3480   -1.7820   -8.0980 c2        1 IMI      0.718100
     14 N3          3.4480   -2.4770   -8.0920 n2        1 IMI     -0.829100
     15 N2          2.1670   -0.6220   -7.2530 nh        1 IMI     -0.768200
     16 C4          0.8030   -0.1280   -7.4210 c3        1 IMI      0.164500
     17 H101       -1.5300   -0.7550   -1.1810 hc        1 IMI      0.020700
     18 H102       -1.4310    1.0260   -1.4860 hc        1 IMI      0.020700
     19 H91         0.9730    0.6410   -2.3210 hc        1 IMI      0.047200
     20 H92         0.6430   -1.1340   -2.2550 hc        1 IMI      0.047200
     21 H81        -0.9910    0.9340   -3.8810 hc        1 IMI      0.036200
     22 H82        -1.3150   -0.8430   -3.8160 hc        1 IMI      0.036200
     23 H71         1.3140    0.4760   -4.7770 hc        1 IMI      0.055200
     24 H72         0.9710   -1.3050   -4.7280 hc        1 IMI      0.055200
     25 H2         -0.7680    0.7470   -6.2420 h1        1 IMI      0.080700
     26 H61        -1.3440   -2.5430   -8.6290 h1        1 IMI      0.073200
     27 H62        -1.9690   -0.8570   -8.6480 h1        1 IMI      0.073200
     28 H5          0.0740   -0.2650   -9.5140 h1        1 IMI      0.081700
     29 HN1         0.8640   -2.8760   -9.0030 hn        1 IMI      0.383800
     30 HN3         3.4910   -3.2020   -8.7760 hn        1 IMI      0.391400
     31 HN2         2.4610   -0.7600   -6.3070 hn        1 IMI      0.426800
     32 H4          0.9070    0.9520   -7.7340 h1        1 IMI      0.083700
@<TRIPOS>BOND
     1    1    2 1   
     2    1    3 1   
     3    1    4 1   
     4    4    5 1   
     5    4   17 1   
     6    4   18 1   
     7    5    6 1   
     8    5   19 1   
     9    5   20 1   
    10    6    7 1   
    11    6   21 1   
    12    6   22 1   
    13    7    8 1   
    14    7   23 1   
    15    7   24 1   
    16    8    9 1   
    17    8   16 1   
    18    8   25 1   
    19    9   10 1   
    20   10   11 1   
    21   10   26 1   
    22   10   27 1   
    23   11   12 1   
    24   11   16 1   
    25   11   28 1   
    26   12   13 1   
    27   12   29 1   
    28   13   14 2   
    29   13   15 1   
    30   14   30 1   
    31   15   16 1   
    32   15   31 1   
    33   16   32 1   
@<TRIPOS>SUBSTRUCTURE
     1 IMI         1 TEMP              0 ****  ****    0 ROOT
