@<TRIPOS>MOLECULE
IMJ
   54    57     1     0     0
SMALL
bcc


@<TRIPOS>ATOM
      1 C20         0.2690    0.7160    0.4750 ca        1 IMJ     -0.128000
      2 C21         1.5900    0.6420    0.8900 ca        1 IMJ     -0.116000
      3 C22         1.9230    0.2400    2.1970 ca        1 IMJ     -0.109000
      4 C23         0.9490   -0.1020    3.1230 ca        1 IMJ     -0.113000
      5 C24        -0.3930   -0.0330    2.7160 ca        1 IMJ     -0.047200
      6 C25        -0.7420    0.3850    1.3800 ca        1 IMJ     -0.080800
      7 N26        -1.5830   -0.3190    3.4110 na        1 IMJ     -0.045400
      8 C27        -2.6630   -0.0860    2.5610 cc        1 IMJ      0.041700
      9 C28        -2.1850    0.3440    1.3050 cd        1 IMJ     -0.290400
     10 C29        -1.6740   -0.7920    4.7560 c3        1 IMJ      0.013600
     11 C30        -4.0690   -0.2970    2.9590 c3        1 IMJ     -0.072900
     12 C31        -2.9740    0.6270    0.1080 c3        1 IMJ      0.224000
     13 N32        -2.9690    2.1070   -0.2190 nx        1 IMJ     -0.607200
     14 C33        -3.4440    2.3480   -1.6000 c3        1 IMJ      0.084100
     15 C34        -3.8400    2.8960    0.7610 c         1 IMJ      0.582300
     16 O35        -4.9750    2.4650    0.9240 o         1 IMJ     -0.448100
     17 C36        -3.1670    4.0210    1.3910 ce        1 IMJ     -0.347200
     18 C37        -3.6790    5.2540    1.5860 cf        1 IMJ      0.096800
     19 C38        -4.9030    5.8330    1.1100 ca        1 IMJ     -0.305100
     20 C39        -5.4190    6.9850    1.7440 ca        1 IMJ     -0.009000
     21 C40        -6.5920    7.5670    1.2930 ca        1 IMJ     -0.244600
     22 C41        -7.2030    8.7260    1.9920 c3        1 IMJ     -0.032100
     23 C42        -8.0170    9.6020    1.0670 c3        1 IMJ     -0.151400
     24 C43        -8.8770    8.8190    0.1070 c         1 IMJ      0.703500
     25 N44        -8.4190    7.5640   -0.3360 ns        1 IMJ     -0.541400
     26 C45        -7.2520    6.9920    0.1490 ca        1 IMJ      0.603200
     27 N46        -6.7500    5.8740   -0.4820 nb        1 IMJ     -0.714000
     28 C47        -5.6310    5.3370    0.0030 ca        1 IMJ      0.489200
     29 O48        -9.9510    9.2350   -0.3450 o         1 IMJ     -0.564500
     30 H20         0.0210    1.0110   -0.5530 ha        1 IMJ      0.118000
     31 H21         2.4000    0.8930    0.1880 ha        1 IMJ      0.147000
     32 H22         2.9850    0.1930    2.4870 ha        1 IMJ      0.152000
     33 H23         1.2210   -0.4200    4.1400 ha        1 IMJ      0.149000
     34 H29        -0.6840   -1.2180    5.0740 h1        1 IMJ      0.067367
     35 H29A       -2.4600   -1.5910    4.8260 h1        1 IMJ      0.067367
     36 H29B       -1.9490    0.0530    5.4450 h1        1 IMJ      0.067367
     37 H30        -4.2420   -0.0090    4.0270 hc        1 IMJ      0.072700
     38 H30A       -4.3410   -1.3780    2.8390 hc        1 IMJ      0.072700
     39 H30B       -4.7460    0.3180    2.3140 hc        1 IMJ      0.072700
     40 H31        -4.0510    0.3120    0.2260 hx        1 IMJ      0.102700
     41 H31A       -2.5280    0.1000   -0.7870 hx        1 IMJ      0.102700
     42 H33        -4.5030    1.9850   -1.6940 hx        1 IMJ      0.100367
     43 H33A       -3.4020    3.4470   -1.8240 hx        1 IMJ      0.100367
     44 H33B       -2.7920    1.7940   -2.3270 hx        1 IMJ      0.100367
     45 H36        -2.1660    3.7850    1.7990 ha        1 IMJ      0.175000
     46 H37        -3.0570    5.9490    2.1950 ha        1 IMJ      0.155000
     47 H39        -4.8930    7.4160    2.6130 ha        1 IMJ      0.152000
     48 H41        -6.4060    9.3510    2.4790 hc        1 IMJ      0.072700
     49 H41A       -7.8630    8.3340    2.8160 hc        1 IMJ      0.072700
     50 H42        -8.6870   10.2750    1.6670 hc        1 IMJ      0.096700
     51 H42A       -7.3440   10.2570    0.4500 hc        1 IMJ      0.096700
     52 HN44       -8.9350    7.1010   -1.0570 hn        1 IMJ      0.356500
     53 H47        -5.2800    4.4440   -0.5490 h4        1 IMJ      0.003100
     54 H321       -2.0010    2.4410   -0.1270 hn        1 IMJ      0.454800
@<TRIPOS>BOND
     1    1    2 ar  
     2    1    6 ar  
     3    1   30 1   
     4    2    3 ar  
     5    2   31 1   
     6    3    4 ar  
     7    3   32 1   
     8    4    5 ar  
     9    4   33 1   
    10    5    6 ar  
    11    5    7 1   
    12    6    9 1   
    13    7    8 1   
    14    7   10 1   
    15    8    9 2   
    16    8   11 1   
    17    9   12 1   
    18   10   34 1   
    19   10   35 1   
    20   10   36 1   
    21   11   37 1   
    22   11   38 1   
    23   11   39 1   
    24   12   13 1   
    25   12   40 1   
    26   12   41 1   
    27   13   14 1   
    28   13   15 1   
    29   13   54 1   
    30   14   42 1   
    31   14   43 1   
    32   14   44 1   
    33   15   16 2   
    34   15   17 1   
    35   17   18 2   
    36   17   45 1   
    37   18   19 1   
    38   18   46 1   
    39   19   20 ar  
    40   19   28 ar  
    41   20   21 ar  
    42   20   47 1   
    43   21   22 1   
    44   21   26 ar  
    45   22   23 1   
    46   22   48 1   
    47   22   49 1   
    48   23   24 1   
    49   23   50 1   
    50   23   51 1   
    51   24   25 1   
    52   24   29 2   
    53   25   26 1   
    54   25   52 1   
    55   26   27 ar  
    56   27   28 ar  
    57   28   53 1   
@<TRIPOS>SUBSTRUCTURE
     1 IMJ         1 TEMP              0 ****  ****    0 ROOT
