@<TRIPOS>MOLECULE
IMJ
   54    57     1     0     0
SMALL
bcc


@<TRIPOS>ATOM
      1 C20         0.2620    0.7140    0.4500 ca        1 IMJ     -0.128000
      2 C21         1.5900    0.6490    0.8430 ca        1 IMJ     -0.116000
      3 C22         1.9460    0.2710    2.1500 ca        1 IMJ     -0.109000
      4 C23         0.9900   -0.0580    3.0990 ca        1 IMJ     -0.113000
      5 C24        -0.3590    0.0010    2.7130 ca        1 IMJ     -0.047200
      6 C25        -0.7330    0.3950    1.3770 ca        1 IMJ     -0.080800
      7 N26        -1.5360   -0.2760    3.4340 na        1 IMJ     -0.045400
      8 C27        -2.6310   -0.0600    2.5990 cc        1 IMJ      0.041700
      9 C28        -2.1770    0.3500    1.3290 cd        1 IMJ     -0.290400
     10 C29        -1.6020   -0.7260    4.7890 c3        1 IMJ      0.013600
     11 C30        -4.0300   -0.2680    3.0260 c3        1 IMJ     -0.072900
     12 C31        -2.9870    0.6110    0.1410 c3        1 IMJ      0.224000
     13 N32        -2.9920    2.0850   -0.2110 n4        1 IMJ     -0.607200
     14 C33        -3.4920    2.3010   -1.5870 c3        1 IMJ      0.084100
     15 C34        -3.8480    2.8880    0.7710 c         1 IMJ      0.582300
     16 O35        -4.9790    2.4570    0.9610 o         1 IMJ     -0.448100
     17 C36        -3.1680    4.0250    1.3710 ce        1 IMJ     -0.348200
     18 C37        -3.6800    5.2600    1.5550 cf        1 IMJ      0.096800
     19 C38        -4.9140    5.8270    1.0920 ca        1 IMJ     -0.305100
     20 C39        -5.4220    6.9880    1.7170 ca        1 IMJ     -0.009000
     21 C40        -6.6050    7.5590    1.2770 ca        1 IMJ     -0.244600
     22 C41        -7.2070    8.7270    1.9690 c3        1 IMJ     -0.032100
     23 C42        -8.0400    9.5860    1.0450 c3        1 IMJ     -0.151400
     24 C43        -8.9150    8.7860    0.1130 c         1 IMJ      0.703500
     25 N44        -8.4610    7.5250   -0.3180 n         1 IMJ     -0.541400
     26 C45        -7.2840    6.9640    0.1550 ca        1 IMJ      0.603200
     27 N46        -6.7900    5.8370   -0.4670 nb        1 IMJ     -0.714000
     28 C47        -5.6600    5.3120    0.0060 ca        1 IMJ      0.489200
     29 O48        -9.9980    9.1910   -0.3260 o         1 IMJ     -0.564500
     30 H20        -0.0050    0.9900   -0.5790 ha        1 IMJ      0.118000
     31 H21         2.3870    0.8900    0.1220 ha        1 IMJ      0.147000
     32 H22         3.0130    0.2300    2.4220 ha        1 IMJ      0.152000
     33 H23         1.2800   -0.3590    4.1150 ha        1 IMJ      0.149000
     34 H29        -2.3850   -1.5260    4.8860 h1        1 IMJ      0.067367
     35 H29A       -1.8670    0.1290    5.4680 h1        1 IMJ      0.067367
     36 H29B       -0.6060   -1.1450    5.0960 h1        1 IMJ      0.067367
     37 H30        -4.1850    0.0380    4.0920 hc        1 IMJ      0.072700
     38 H30A       -4.7200    0.3340    2.3830 hc        1 IMJ      0.072700
     39 H30B       -4.3010   -1.3510    2.9290 hc        1 IMJ      0.072700
     40 H31        -4.0610    0.2950    0.2820 hx        1 IMJ      0.102700
     41 H31A       -2.5550    0.0700   -0.7520 hx        1 IMJ      0.102700
     42 H33        -2.8510    1.7380   -2.3160 hx        1 IMJ      0.100367
     43 H33A       -3.4580    3.3970   -1.8300 hx        1 IMJ      0.100367
     44 H33B       -4.5520    1.9340   -1.6570 hx        1 IMJ      0.100367
     45 H36        -2.1590    3.7990    1.7640 ha        1 IMJ      0.175000
     46 H37        -3.0490    5.9660    2.1420 ha        1 IMJ      0.155000
     47 H39        -4.8820    7.4340    2.5690 ha        1 IMJ      0.152000
     48 H41        -6.4040    9.3620    2.4310 hc        1 IMJ      0.072700
     49 H41A       -7.8510    8.3460    2.8110 hc        1 IMJ      0.072700
     50 H42        -7.3800   10.2330    0.4050 hc        1 IMJ      0.096700
     51 H42A       -8.7020   10.2660    1.6460 hc        1 IMJ      0.096700
     52 HN44       -8.9890    7.0490   -1.0220 hn        1 IMJ      0.356500
     53 H47        -5.3160    4.4110   -0.5380 h4        1 IMJ      0.003100
     54 H321       -2.0230    2.4230   -0.1410 hn        1 IMJ      0.454800
@<TRIPOS>BOND
     1    1    2 ar  
     2    1    6 ar  
     3    1   30 1   
     4    2    3 ar  
     5    2   31 1   
     6    3    4 ar  
     7    3   32 1   
     8    4    5 ar  
     9    4   33 1   
    10    5    6 ar  
    11    5    7 1   
    12    6    9 1   
    13    7    8 1   
    14    7   10 1   
    15    8    9 2   
    16    8   11 1   
    17    9   12 1   
    18   10   34 1   
    19   10   35 1   
    20   10   36 1   
    21   11   37 1   
    22   11   38 1   
    23   11   39 1   
    24   12   13 1   
    25   12   40 1   
    26   12   41 1   
    27   13   14 1   
    28   13   15 1   
    29   13   54 1   
    30   14   42 1   
    31   14   43 1   
    32   14   44 1   
    33   15   16 2   
    34   15   17 1   
    35   17   18 2   
    36   17   45 1   
    37   18   19 1   
    38   18   46 1   
    39   19   20 ar  
    40   19   28 ar  
    41   20   21 ar  
    42   20   47 1   
    43   21   22 1   
    44   21   26 ar  
    45   22   23 1   
    46   22   48 1   
    47   22   49 1   
    48   23   24 1   
    49   23   50 1   
    50   23   51 1   
    51   24   25 1   
    52   24   29 2   
    53   25   26 1   
    54   25   52 1   
    55   26   27 ar  
    56   27   28 ar  
    57   28   53 1   
@<TRIPOS>SUBSTRUCTURE
     1 IMJ         1 TEMP              0 ****  ****    0 ROOT
