@<TRIPOS>MOLECULE
IMJ
   53    45     1     0     0
SMALL
bcc


@<TRIPOS>ATOM
      1 C20         4.3390   -1.5300   -0.4940 c1        1 IMJ     -0.116000
      2 C21         5.6590   -1.9150   -0.7190 c1        1 IMJ     -0.133000
      3 C22         5.9840   -3.2680   -0.8160 c1        1 IMJ     -0.133000
      4 C23         4.9950   -4.2290   -0.6880 c1        1 IMJ     -0.116000
      5 C24         3.6590   -3.8400   -0.4600 c1        1 IMJ     -0.032000
      6 C25         3.3370   -2.5020   -0.3650 c1        1 IMJ     -0.032000
      7 N26         2.5090   -4.5780   -0.2060 n1        1 IMJ     -0.166000
      8 C27         1.4860   -3.6980    0.0440 c1        1 IMJ      0.004000
      9 C28         1.9930   -2.4090   -0.0530 c1        1 IMJ     -0.185000
     10 C29         2.7580   -5.9810   -0.1770 c2        1 IMJ     -0.120000
     11 C30         0.2340   -4.4890    0.2210 c2        1 IMJ     -0.120000
     12 C31         1.0120   -1.4510    0.6880 c2        1 IMJ      0.053000
     13 N32         0.8330   -0.2320   -0.0990 n         1 IMJ     -0.321000
     14 C33         1.9440    0.3140   -0.8470 c3        1 IMJ     -0.087000
     15 C34        -0.4330    0.4730   -0.0620 c2        1 IMJ      0.336000
     16 O35        -0.4810    1.6120    0.3590 o         1 IMJ     -0.375000
     17 C36        -1.7100   -0.2440   -0.4540 c2        1 IMJ     -0.194000
     18 C37        -2.8730    0.4650   -0.6200 c1        1 IMJ     -0.067000
     19 C38        -2.8820    2.0000   -0.4080 c1        1 IMJ     -0.151000
     20 C39        -3.6410    2.5550    0.6200 c2        1 IMJ     -0.048000
     21 C40        -3.7750    3.9230    0.7150 c1        1 IMJ     -0.174000
     22 C41        -4.6890    4.5970    1.7990 c2        1 IMJ     -0.110000
     23 C42        -4.6810    6.0320    1.8540 c3        1 IMJ     -0.177000
     24 C43        -4.5390    6.6380    0.5200 c2        1 IMJ      0.311000
     25 N44        -3.4960    6.2380   -0.2660 n         1 IMJ     -0.313000
     26 C45        -3.1270    4.7790   -0.2530 c2        1 IMJ      0.142000
     27 N46        -2.3770    4.2250   -1.2680 n1        1 IMJ     -0.177000
     28 C47        -2.2430    2.8510   -1.3630 c1        1 IMJ     -0.010000
     29 O48        -5.1560    7.6570    0.2430 o         1 IMJ     -0.340000
     30 H20         4.1130   -0.5860   -0.4270 ha        1 IMJ      0.133000
     31 H21         6.3560   -1.2380   -0.8100 ha        1 IMJ      0.131000
     32 H22         6.9120   -3.5380   -0.9740 ha        1 IMJ      0.131000
     33 H23         5.2250   -5.1830   -0.7560 ha        1 IMJ      0.133000
     34 H29         2.9140   -6.3050   -1.0910 ha        1 IMJ      0.091333
     35 H29A        3.5510   -6.1620    0.3740 ha        1 IMJ      0.091333
     36 H29B        1.9830   -6.4420    0.2050 ha        1 IMJ      0.091333
     37 H30        -0.5410   -3.9020    0.1130 ha        1 IMJ      0.091333
     38 H30A        0.2000   -5.2000   -0.4510 ha        1 IMJ      0.091333
     39 H30B        0.2220   -4.8840    1.1150 ha        1 IMJ      0.091333
     40 H31         0.1400   -1.8990    0.8030 h4        1 IMJ      0.095000
     41 H31A        1.3810   -1.2220    1.5680 h4        1 IMJ      0.095000
     42 H33         2.3080   -0.3770   -1.4410 h1        1 IMJ      0.090000
     43 H33A        1.6340    1.0800   -1.3840 h1        1 IMJ      0.090000
     44 H33B        2.6430    0.6120   -0.2230 h1        1 IMJ      0.090000
     45 H36        -1.7050   -1.2150   -0.5880 ha        1 IMJ      0.146000
     46 H37        -3.6980    0.0010   -0.8740 ha        1 IMJ      0.128000
     47 H39        -4.0030    1.9810    1.3220 ha        1 IMJ      0.138000
     48 H41        -4.4120    4.2620    2.6770 ha        1 IMJ      0.099500
     49 H41A       -5.6110    4.3060    1.6390 ha        1 IMJ      0.099500
     50 H42        -5.4120    6.3050    2.4580 hc        1 IMJ      0.122500
     51 H42A       -3.9070    6.3740    2.3540 hc        1 IMJ      0.122500
     52 HN44       -3.1960    6.7820   -0.9420 hn        1 IMJ      0.261000
     53 H47        -1.7360    2.4580   -2.1090 ha        1 IMJ      0.199000
@<TRIPOS>BOND
     1    1    6 1   
     2    1   30 1   
     3    2    3 1   
     4    2   31 1   
     5    3   32 1   
     6    4    5 1   
     7    4   33 1   
     8    7    8 1   
     9    8    9 1   
    10   10   34 1   
    11   10   35 1   
    12   10   36 1   
    13   11   37 1   
    14   11   38 1   
    15   11   39 1   
    16   12   13 1   
    17   12   40 1   
    18   12   41 1   
    19   13   14 1   
    20   13   15 1   
    21   14   42 1   
    22   14   43 1   
    23   14   44 1   
    24   15   16 1   
    25   15   17 1   
    26   17   18 1   
    27   17   45 1   
    28   18   46 1   
    29   19   20 1   
    30   19   28 1   
    31   20   21 1   
    32   20   47 1   
    33   21   26 1   
    34   22   23 1   
    35   22   48 1   
    36   22   49 1   
    37   23   24 1   
    38   23   50 1   
    39   23   51 1   
    40   24   25 1   
    41   24   29 1   
    42   25   26 1   
    43   25   52 1   
    44   26   27 1   
    45   28   53 1   
@<TRIPOS>SUBSTRUCTURE
     1 IMJ         1 TEMP              0 ****  ****    0 ROOT
