@<TRIPOS>MOLECULE
IMJ
   53    56     1     0     0
SMALL
bcc


@<TRIPOS>ATOM
      1 C20         5.4600    1.8070   -0.8610 ca        1 IMJ     -0.097000
      2 C21         6.5080    2.5190   -0.2960 ca        1 IMJ     -0.153000
      3 C22         7.1680    2.0550    0.8550 ca        1 IMJ     -0.119000
      4 C23         6.8040    0.8680    1.4720 ca        1 IMJ     -0.139000
      5 C24         5.7450    0.1360    0.9120 ca        1 IMJ     -0.043200
      6 C25         5.0560    0.6100   -0.2680 ca        1 IMJ     -0.080800
      7 N26         5.1730   -1.0860    1.2900 na        1 IMJ     -0.077400
      8 C27         4.1260   -1.3810    0.3940 cc        1 IMJ     -0.011300
      9 C28         4.0370   -0.3700   -0.5710 cd        1 IMJ     -0.185400
     10 C29         5.5120   -1.8430    2.4460 c3        1 IMJ      0.030600
     11 C30         3.3080   -2.6040    0.5020 c3        1 IMJ     -0.063900
     12 C31         3.1070   -0.3150   -1.7240 c3        1 IMJ      0.167200
     13 N32         1.8000    0.2500   -1.4470 n         1 IMJ     -0.465800
     14 C33         1.7400    1.6260   -1.0470 c3        1 IMJ      0.078300
     15 C34         0.6820   -0.5690   -1.3690 c         1 IMJ      0.661300
     16 O35         0.7850   -1.8040   -1.5530 o         1 IMJ     -0.632100
     17 C36        -0.6430    0.0540   -1.1080 ce        1 IMJ     -0.230200
     18 C37        -1.6770   -0.7110   -0.7230 cf        1 IMJ     -0.027200
     19 C38        -3.0150   -0.2320   -0.4500 ca        1 IMJ     -0.222100
     20 C39        -4.0720   -1.1460   -0.3110 ca        1 IMJ     -0.041000
     21 C40        -5.3600   -0.6890   -0.0500 ca        1 IMJ     -0.242600
     22 C41        -6.5100   -1.6230    0.0400 c3        1 IMJ     -0.026100
     23 C42        -7.6000   -1.1080    0.9530 c3        1 IMJ     -0.148400
     24 C43        -7.8910    0.3620    0.7640 c         1 IMJ      0.704500
     25 N44        -6.8570    1.2050    0.3590 n         1 IMJ     -0.547400
     26 C45        -5.5700    0.7220    0.0870 ca        1 IMJ      0.553200
     27 N46        -4.5440    1.6230   -0.0470 nb        1 IMJ     -0.708000
     28 C47        -3.3240    1.1400   -0.3090 ca        1 IMJ      0.452200
     29 O48        -9.0100    0.8570    0.9830 o         1 IMJ     -0.611500
     30 H20         4.9550    2.1720   -1.7670 ha        1 IMJ      0.130000
     31 H21         6.8360    3.4640   -0.7540 ha        1 IMJ      0.129000
     32 H22         7.9940    2.6490    1.2740 ha        1 IMJ      0.129000
     33 H23         7.3270    0.5120    2.3700 ha        1 IMJ      0.131000
     34 H29         4.8840   -1.5300    3.3250 h1        1 IMJ      0.049367
     35 H29A        5.3340   -2.9340    2.2470 h1        1 IMJ      0.049367
     36 H29B        6.5940   -1.6830    2.6990 h1        1 IMJ      0.049367
     37 H30         2.8530   -2.6930    1.5200 hc        1 IMJ      0.064033
     38 H30A        2.4840   -2.5730   -0.2580 hc        1 IMJ      0.064033
     39 H30B        3.9350   -3.5130    0.3150 hc        1 IMJ      0.064033
     40 H31         3.5800    0.3210   -2.5300 h1        1 IMJ      0.067700
     41 H31A        2.9620   -1.3570   -2.1360 h1        1 IMJ      0.067700
     42 H33         1.2350    2.2370   -1.8450 h1        1 IMJ      0.041033
     43 H33A        1.1690    1.7470   -0.0870 h1        1 IMJ      0.041033
     44 H33B        2.7800    2.0230   -0.8910 h1        1 IMJ      0.041033
     45 H36        -0.7370    1.1370   -1.2700 ha        1 IMJ      0.138000
     46 H37        -1.5290   -1.8040   -0.6070 ha        1 IMJ      0.152000
     47 H39        -3.8850   -2.2260   -0.4160 ha        1 IMJ      0.147000
     48 H41        -6.9270   -1.7750   -0.9950 hc        1 IMJ      0.063200
     49 H41A       -6.1680   -2.6270    0.4080 hc        1 IMJ      0.063200
     50 H42        -8.5510   -1.6770    0.7780 hc        1 IMJ      0.084700
     51 H42A       -7.3090   -1.2500    2.0290 hc        1 IMJ      0.084700
     52 HN44       -7.0240    2.1890    0.3310 hn        1 IMJ      0.346500
     53 H47        -2.5360    1.9110   -0.4050 h4        1 IMJ      0.028100
@<TRIPOS>BOND
     1    1    2 ar  
     2    1    6 ar  
     3    1   30 1   
     4    2    3 ar  
     5    2   31 1   
     6    3    4 ar  
     7    3   32 1   
     8    4    5 ar  
     9    4   33 1   
    10    5    6 ar  
    11    5    7 1   
    12    6    9 1   
    13    7    8 1   
    14    7   10 1   
    15    8    9 2   
    16    8   11 1   
    17    9   12 1   
    18   10   34 1   
    19   10   35 1   
    20   10   36 1   
    21   11   37 1   
    22   11   38 1   
    23   11   39 1   
    24   12   13 1   
    25   12   40 1   
    26   12   41 1   
    27   13   14 1   
    28   13   15 1   
    29   14   42 1   
    30   14   43 1   
    31   14   44 1   
    32   15   16 2   
    33   15   17 1   
    34   17   18 2   
    35   17   45 1   
    36   18   19 1   
    37   18   46 1   
    38   19   20 ar  
    39   19   28 ar  
    40   20   21 ar  
    41   20   47 1   
    42   21   22 1   
    43   21   26 ar  
    44   22   23 1   
    45   22   48 1   
    46   22   49 1   
    47   23   24 1   
    48   23   50 1   
    49   23   51 1   
    50   24   25 1   
    51   24   29 2   
    52   25   26 1   
    53   25   52 1   
    54   26   27 ar  
    55   27   28 ar  
    56   28   53 1   
@<TRIPOS>SUBSTRUCTURE
     1 IMJ         1 TEMP              0 ****  ****    0 ROOT
