@<TRIPOS>MOLECULE
IMJ
   54    57     1     0     0
SMALL
bcc


@<TRIPOS>ATOM
      1 C20         0.2820    0.7270    0.4820 ca        1 IMJ     -0.128000
      2 C21         1.5980    0.6470    0.9100 ca        1 IMJ     -0.116000
      3 C22         1.9180    0.2340    2.2160 ca        1 IMJ     -0.109000
      4 C23         0.9340   -0.1160    3.1290 ca        1 IMJ     -0.113000
      5 C24        -0.4030   -0.0430    2.7080 ca        1 IMJ     -0.047200
      6 C25        -0.7380    0.3870    1.3730 ca        1 IMJ     -0.080800
      7 N26        -1.6000   -0.3350    3.3890 na        1 IMJ     -0.045400
      8 C27        -2.6710   -0.0950    2.5300 cc        1 IMJ      0.041700
      9 C28        -2.1810    0.3480    1.2840 cd        1 IMJ     -0.290400
     10 C29        -1.7050   -0.8200    4.7290 c3        1 IMJ      0.013600
     11 C30        -4.0820   -0.3090    2.9130 c3        1 IMJ     -0.072900
     12 C31        -2.9570    0.6410    0.0810 c3        1 IMJ      0.224000
     13 N32        -2.9500    2.1250   -0.2310 n4        1 IMJ     -0.606200
     14 C33        -3.4110    2.3780   -1.6150 c3        1 IMJ      0.084100
     15 C34        -3.8310    2.9040    0.7470 c         1 IMJ      0.582300
     16 O35        -4.9680    2.4710    0.8940 o         1 IMJ     -0.448100
     17 C36        -3.1650    4.0220    1.3960 ce        1 IMJ     -0.348200
     18 C37        -3.6810    5.2520    1.6030 cf        1 IMJ      0.096800
     19 C38        -4.9020    5.8340    1.1250 ca        1 IMJ     -0.305100
     20 C39        -5.4260    6.9760    1.7710 ca        1 IMJ     -0.009000
     21 C40        -6.5970    7.5620    1.3180 ca        1 IMJ     -0.244600
     22 C41        -7.2160    8.7090    2.0290 c3        1 IMJ     -0.032100
     23 C42        -8.0250    9.5960    1.1090 c3        1 IMJ     -0.151400
     24 C43        -8.8760    8.8250    0.1320 c         1 IMJ      0.703500
     25 N44        -8.4110    7.5770   -0.3250 n         1 IMJ     -0.541400
     26 C45        -7.2470    7.0010    0.1610 ca        1 IMJ      0.603200
     27 N46        -6.7370    5.8930   -0.4810 nb        1 IMJ     -0.714000
     28 C47        -5.6200    5.3520    0.0060 ca        1 IMJ      0.489200
     29 O48        -9.9470    9.2450   -0.3230 o         1 IMJ     -0.564500
     30 H20         0.0440    1.0300   -0.5460 ha        1 IMJ      0.118000
     31 H21         2.4160    0.9050    0.2180 ha        1 IMJ      0.147000
     32 H22         2.9770    0.1830    2.5170 ha        1 IMJ      0.152000
     33 H23         1.1960   -0.4440    4.1450 ha        1 IMJ      0.149000
     34 H29        -1.9860    0.0190    5.4230 h1        1 IMJ      0.067367
     35 H29A       -0.7190   -1.2500    5.0520 h1        1 IMJ      0.067367
     36 H29B       -2.4930   -1.6190    4.7840 h1        1 IMJ      0.067367
     37 H30        -4.7520    0.3110    2.2660 hc        1 IMJ      0.072700
     38 H30A       -4.3530   -1.3890    2.7810 hc        1 IMJ      0.072700
     39 H30B       -4.2660   -0.0300    3.9810 hc        1 IMJ      0.072700
     40 H31        -4.0350    0.3250    0.1840 hx        1 IMJ      0.102700
     41 H31A       -2.5020    0.1230   -0.8140 hx        1 IMJ      0.102700
     42 H33        -4.4690    2.0150   -1.7240 hx        1 IMJ      0.100367
     43 H33A       -3.3690    3.4800   -1.8270 hx        1 IMJ      0.100367
     44 H33B       -2.7510    1.8330   -2.3410 hx        1 IMJ      0.100367
     45 H36        -2.1660    3.7830    1.8080 ha        1 IMJ      0.175000
     46 H37        -3.0650    5.9400    2.2250 ha        1 IMJ      0.155000
     47 H39        -4.9080    7.3960    2.6490 ha        1 IMJ      0.152000
     48 H41        -6.4250    9.3290    2.5300 hc        1 IMJ      0.072700
     49 H41A       -7.8820    8.3040    2.8420 hc        1 IMJ      0.072700
     50 H42        -7.3480   10.2610    0.5070 hc        1 IMJ      0.096700
     51 H42A       -8.7020   10.2590    1.7130 hc        1 IMJ      0.096700
     52 HN44       -8.9200    7.1230   -1.0560 hn        1 IMJ      0.356500
     53 H47        -5.2630    4.4680   -0.5560 h4        1 IMJ      0.003100
     54 H321       -1.9830    2.4580   -0.1260 hn        1 IMJ      0.454800
@<TRIPOS>BOND
     1    1    2 ar  
     2    1    6 ar  
     3    1   30 1   
     4    2    3 ar  
     5    2   31 1   
     6    3    4 ar  
     7    3   32 1   
     8    4    5 ar  
     9    4   33 1   
    10    5    6 ar  
    11    5    7 1   
    12    6    9 1   
    13    7    8 1   
    14    7   10 1   
    15    8    9 2   
    16    8   11 1   
    17    9   12 1   
    18   10   34 1   
    19   10   35 1   
    20   10   36 1   
    21   11   37 1   
    22   11   38 1   
    23   11   39 1   
    24   12   13 1   
    25   12   40 1   
    26   12   41 1   
    27   13   14 1   
    28   13   15 1   
    29   13   54 1   
    30   14   42 1   
    31   14   43 1   
    32   14   44 1   
    33   15   16 2   
    34   15   17 1   
    35   17   18 2   
    36   17   45 1   
    37   18   19 1   
    38   18   46 1   
    39   19   20 ar  
    40   19   28 ar  
    41   20   21 ar  
    42   20   47 1   
    43   21   22 1   
    44   21   26 ar  
    45   22   23 1   
    46   22   48 1   
    47   22   49 1   
    48   23   24 1   
    49   23   50 1   
    50   23   51 1   
    51   24   25 1   
    52   24   29 2   
    53   25   26 1   
    54   25   52 1   
    55   26   27 ar  
    56   27   28 ar  
    57   28   53 1   
@<TRIPOS>SUBSTRUCTURE
     1 IMJ         1 TEMP              0 ****  ****    0 ROOT
