@<TRIPOS>MOLECULE
IMK
   39    35     1     0     0
SMALL
bcc


@<TRIPOS>ATOM
      1 C1          0.1570   -0.6320    1.0830 c3        1 IMK      0.102000
      2 C2          1.6620   -0.6280    1.0560 c3        1 IMK      0.004000
      3 O2          2.1210   -1.8240    0.3790 oh        1 IMK     -0.337000
      4 C3          2.2510   -0.5920    2.4230 c3        1 IMK     -0.038000
      5 O3          3.6730   -0.4080    2.3120 oh        1 IMK     -0.334000
      6 C4          1.6870    0.5130    3.2530 c3        1 IMK     -0.034000
      7 O4          2.1710    0.3750    4.6090 oh        1 IMK     -0.316000
      8 C5          0.1730    0.5050    3.2670 c3        1 IMK     -0.046000
      9 O5         -0.4020    0.4660    1.9170 os        1 IMK     -0.245000
     10 C6         -0.3100    1.7270    3.9580 c3        1 IMK     -0.009000
     11 O6         -1.7320    1.6610    4.1010 oh        1 IMK     -0.323000
     12 C7         -0.6040    0.7090   -3.6740 c1        1 IMK     -0.068000
     13 C8         -0.6350    0.1300   -2.4050 c1        1 IMK     -0.053000
     14 C9         -1.5220   -0.8730   -2.1330 c1        1 IMK     -0.053000
     15 C10        -2.4000   -1.3210   -3.1280 c1        1 IMK     -0.121000
     16 C11        -2.3690   -0.7440   -4.3950 c1        1 IMK     -0.121000
     17 C12        -1.4800    0.2630   -4.6680 c1        1 IMK     -0.094000
     18 N1         -1.3440   -1.2510   -0.8420 n1        1 IMK     -0.167500
     19 C13        -0.3520   -0.4860   -0.3140 c2        1 IMK      0.008000
     20 N2          0.0850    0.3670   -1.2820 n1        1 IMK     -0.167500
     21 C14        -1.4300    0.8580   -6.1020 c3        1 IMK     -0.175000
     22 H1         -0.1460   -1.4750    1.4380 h1        1 IMK      0.119000
     23 H2          1.9700    0.1620    0.5540 h1        1 IMK      0.111000
     24 HO2         2.8850   -1.6430   -0.0700 ho        1 IMK      0.233000
     25 H3          2.0740   -1.4500    2.8710 h1        1 IMK      0.091000
     26 HO3         4.0830   -1.0540    2.7250 ho        1 IMK      0.228000
     27 H4          1.9950    1.3680    2.8920 h1        1 IMK      0.145000
     28 HO4         1.8860   -0.4040    4.9520 ho        1 IMK      0.205000
     29 H5         -0.1260   -0.2600    3.7500 h1        1 IMK      0.098000
     30 H61         0.1050    1.7870    4.8460 h1        1 IMK      0.104000
     31 H62        -0.0730    2.5090    3.4360 h1        1 IMK      0.104000
     32 HO6        -2.0000    2.2710    4.6860 ho        1 IMK      0.220000
     33 H7          0.0240    1.4190   -3.8650 ha        1 IMK      0.148000
     34 H10        -3.0440   -2.0510   -2.9300 ha        1 IMK      0.134000
     35 H11        -2.9730   -1.0520   -5.0780 ha        1 IMK      0.134000
     36 HN1        -1.8030   -1.9070   -0.4080 DU        1 IMK      0.268000
     37 H141       -2.3450    0.9720   -6.4420 hc        1 IMK      0.082333
     38 H142       -0.9380    0.2530   -6.6890 hc        1 IMK      0.082333
     39 H143       -0.9740    1.7420   -6.0790 hc        1 IMK      0.082333
@<TRIPOS>BOND
     1    1    2 1   
     2    1    9 1   
     3    1   19 1   
     4    1   22 1   
     5    2    3 1   
     6    2    4 1   
     7    2   23 1   
     8    3   24 1   
     9    4    5 1   
    10    4    6 1   
    11    4   25 1   
    12    5   26 1   
    13    6    7 1   
    14    6    8 1   
    15    6   27 1   
    16    7   28 1   
    17    8    9 1   
    18    8   10 1   
    19    8   29 1   
    20   10   11 1   
    21   10   30 1   
    22   10   31 1   
    23   11   32 1   
    24   12   17 1   
    25   12   33 1   
    26   13   14 1   
    27   15   16 1   
    28   15   34 1   
    29   16   35 1   
    30   17   21 1   
    31   18   19 1   
    32   19   20 1   
    33   21   37 1   
    34   21   38 1   
    35   21   39 1   
@<TRIPOS>SUBSTRUCTURE
     1 IMK         1 TEMP              0 ****  ****    0 ROOT
