@<TRIPOS>MOLECULE
IMK
   39    41     1     0     0
SMALL
bcc


@<TRIPOS>ATOM
      1 C1          0.9300   -0.4430    0.4980 c3        1 IMK      0.104800
      2 C2          1.5310   -1.4580   -0.4920 c3        1 IMK      0.103100
      3 O2          1.1190   -2.7780   -0.1860 oh        1 IMK     -0.609800
      4 C3          3.0630   -1.4860   -0.3440 c3        1 IMK      0.104100
      5 O3          3.6510   -2.2520   -1.3810 oh        1 IMK     -0.606800
      6 C4          3.6380   -0.0680   -0.4660 c3        1 IMK      0.124100
      7 O4          5.0240   -0.0630   -0.1710 oh        1 IMK     -0.595800
      8 C5          2.9510    0.8380    0.5640 c3        1 IMK      0.103100
      9 O5          1.5380    0.8450    0.3410 os        1 IMK     -0.434600
     10 C6          3.4030    2.2920    0.3990 c3        1 IMK      0.138400
     11 O6          2.8600    3.1140    1.4080 oh        1 IMK     -0.591800
     12 C7         -3.8860   -0.8410   -0.8430 ca        1 IMK     -0.071000
     13 C8         -2.6470   -0.4470   -0.3200 ca        1 IMK      0.072400
     14 C9         -2.5600    0.7580    0.4870 ca        1 IMK     -0.076200
     15 C10        -3.6930    1.5390    0.7490 ca        1 IMK     -0.128000
     16 C11        -4.8960    1.1160    0.2100 ca        1 IMK     -0.110000
     17 C12        -5.0010   -0.0550   -0.5750 ca        1 IMK     -0.096300
     18 N1         -1.2240    0.8600    0.8830 na        1 IMK     -0.258300
     19 C13        -0.5460   -0.2250    0.2810 cc        1 IMK      0.412800
     20 N2         -1.3690   -1.0280   -0.4260 nd        1 IMK     -0.587100
     21 H1          1.0930   -0.8090    1.5530 h1        1 IMK      0.076700
     22 H2          1.2510   -1.1840   -1.5450 h1        1 IMK      0.076700
     23 HO2         0.2060   -2.8820   -0.4840 ho        1 IMK      0.438000
     24 H3          3.3380   -1.9330    0.6530 h1        1 IMK      0.065700
     25 HO3         3.2380   -3.1260   -1.3460 ho        1 IMK      0.428000
     26 H4          3.4690    0.3210   -1.5080 h1        1 IMK      0.064700
     27 HO4         5.4260   -0.7290   -0.7450 ho        1 IMK      0.427000
     28 H5          3.1670    0.4780    1.6070 h1        1 IMK      0.071700
     29 H61         4.5170    2.3420    0.5340 h1        1 IMK      0.068200
     30 H62         3.1150    2.6710   -0.6170 h1        1 IMK      0.068200
     31 HO6         1.9010    3.0890    1.3060 ho        1 IMK      0.402000
     32 H7         -3.9650   -1.7540   -1.4520 ha        1 IMK      0.148000
     33 H10        -3.6290    2.4490    1.3590 ha        1 IMK      0.138000
     34 H11        -5.8070    1.7070    0.3940 ha        1 IMK      0.134000
     35 HN1        -0.7870    1.6440    1.2910 hn        1 IMK      0.311700
     36 H141       -7.0540   -0.5920   -0.2730 hc        1 IMK      0.044033
     37 H142       -6.7300    0.3810   -1.7660 hc        1 IMK      0.044033
     38 H143       -6.2760   -1.3730   -1.7120 hc        1 IMK      0.044033
     39 C14        -6.3310   -0.4330   -1.1110 c3        1 IMK     -0.051800
@<TRIPOS>BOND
     1    1    2 1   
     2    1    9 1   
     3    1   19 1   
     4    1   21 1   
     5    2    3 1   
     6    2    4 1   
     7    2   22 1   
     8    3   23 1   
     9    4    5 1   
    10    4    6 1   
    11    4   24 1   
    12    5   25 1   
    13    6    7 1   
    14    6    8 1   
    15    6   26 1   
    16    7   27 1   
    17    8    9 1   
    18    8   10 1   
    19    8   28 1   
    20   10   11 1   
    21   10   29 1   
    22   10   30 1   
    23   11   31 1   
    24   12   13 ar  
    25   12   17 ar  
    26   12   32 1   
    27   13   14 ar  
    28   13   20 1   
    29   14   15 ar  
    30   14   18 1   
    31   15   16 ar  
    32   15   33 1   
    33   16   17 ar  
    34   16   34 1   
    35   17   39 1   
    36   18   19 1   
    37   18   35 1   
    38   19   20 2   
    39   36   39 1   
    40   37   39 1   
    41   38   39 1   
@<TRIPOS>SUBSTRUCTURE
     1 IMK         1 TEMP              0 ****  ****    0 ROOT
