@<TRIPOS>MOLECULE
IML
   24    23     1     0     0
SMALL
bcc


@<TRIPOS>ATOM
      1 N          -1.3770   -0.0550   -1.4290 n3        1 IML     -0.807200
      2 CA         -0.4610    0.4760   -0.4170 c3        1 IML      0.032500
      3 C           1.0500    0.2730   -0.7690 c         1 IML      0.889600
      4 O           1.8540    1.1830   -0.4240 o         1 IML     -0.844800
      5 OXT         1.3850   -0.7790   -1.3860 o         1 IML     -0.844800
      6 CB         -0.7530   -0.1250    0.9750 c3        1 IML     -0.032700
      7 CN         -1.2910    0.6650   -2.6770 c3        1 IML      0.153100
      8 CG2        -0.6130   -1.6330    0.9670 c3        1 IML     -0.095100
      9 CG1         0.1900    0.5090    1.9910 c3        1 IML     -0.085400
     10 CD1        -0.3240    0.4010    3.4030 c3        1 IML     -0.084100
     11 H          -1.1140   -1.0150   -1.5920 hn        1 IML      0.354800
     12 HA         -0.6410    1.5880   -0.3470 h1        1 IML      0.040700
     13 HB         -1.8110    0.1370    1.2610 hc        1 IML      0.017700
     14 HN1        -1.9580    0.1650   -3.4280 h1        1 IML      0.015367
     15 HN2        -1.6530    1.7150   -2.5210 h1        1 IML      0.015367
     16 HN3        -0.2490    0.7130   -3.0980 h1        1 IML      0.015367
     17 HG21        0.3070   -1.9240    0.3980 hc        1 IML      0.031033
     18 HG22       -0.5380   -2.0290    2.0090 hc        1 IML      0.031033
     19 HG23       -1.4980   -2.1070    0.4790 hc        1 IML      0.031033
     20 HG12        0.3410    1.5910    1.7270 hc        1 IML      0.062700
     21 HG13        1.1980    0.0240    1.9020 hc        1 IML      0.062700
     22 HD11        0.3950    0.8770    4.1130 hc        1 IML      0.013700
     23 HD12       -1.3110    0.9140    3.5080 hc        1 IML      0.013700
     24 HD13       -0.4550   -0.6670    3.7020 hc        1 IML      0.013700
@<TRIPOS>BOND
     1    1    2 1   
     2    1    7 1   
     3    1   11 1   
     4    2    3 1   
     5    2    6 1   
     6    2   12 1   
     7    3    4 1   
     8    3    5 1   
     9    6    8 1   
    10    6    9 1   
    11    6   13 1   
    12    7   14 1   
    13    7   15 1   
    14    7   16 1   
    15    8   17 1   
    16    8   18 1   
    17    8   19 1   
    18    9   10 1   
    19    9   20 1   
    20    9   21 1   
    21   10   22 1   
    22   10   23 1   
    23   10   24 1   
@<TRIPOS>SUBSTRUCTURE
     1 IML         1 TEMP              0 ****  ****    0 ROOT
