@<TRIPOS>MOLECULE
IMM
   40    42     1     0     0
SMALL
bcc


@<TRIPOS>ATOM
      1 N1         -0.5910   -0.1780    0.0050 n         1 IMM     -0.246200
      2 C2          0.7630    0.2900    0.1170 cc        1 IMM     -0.031600
      3 C3          1.1570    0.3360    1.4480 cd        1 IMM     -0.053400
      4 C4          0.0510   -0.1760    2.2470 ca        1 IMM     -0.035800
      5 C5         -0.1070   -0.3990    3.6090 ca        1 IMM     -0.159000
      6 C6         -1.3240   -0.9310    4.0480 ca        1 IMM      0.092100
      7 C7         -2.3690   -1.2440    3.1550 ca        1 IMM     -0.162000
      8 C8         -2.2220   -1.0250    1.7900 ca        1 IMM     -0.098000
      9 C9         -1.0160   -0.4910    1.3320 ca        1 IMM     -0.034400
     10 C10        -1.5180    0.2910   -0.9430 c         1 IMM      0.689700
     11 C11        -1.1990    1.4720   -1.7980 ca        1 IMM     -0.141600
     12 C12        -1.7500    1.5010   -3.0880 ca        1 IMM     -0.082000
     13 C13        -1.5550    2.6080   -3.9080 ca        1 IMM     -0.117000
     14 C14        -0.8170    3.6980   -3.4420 ca        1 IMM      0.041900
     15 C15        -0.2720    3.6750   -2.1610 ca        1 IMM     -0.117000
     16 C16        -0.4580    2.5620   -1.3320 ca        1 IMM     -0.082000
     17 C17         1.6450    0.5470   -1.0380 c3        1 IMM     -0.053900
     18 C18         2.4140    0.8940    1.9500 c3        1 IMM     -0.156200
     19 C19         2.4460    2.4450    1.8470 c         1 IMM      0.923600
     20 C20        -0.6780   -0.6970    6.3240 c3        1 IMM      0.115700
     21 O1         -2.6110   -0.2940   -1.0690 o         1 IMM     -0.586100
     22 O2         -1.6040   -1.2160    5.3780 os        1 IMM     -0.343900
     23 O3          1.9960    2.9950    0.8000 o         1 IMM     -0.841300
     24 O4          2.9540    3.0680    2.8170 o         1 IMM     -0.841300
     25 I1         -0.5460    5.3070   -4.6400 i         1 IMM     -0.172900
     26 H5          0.7060   -0.1440    4.3020 ha        1 IMM      0.150000
     27 H7         -3.3040   -1.6620    3.5540 ha        1 IMM      0.135000
     28 H8         -3.0360   -1.2570    1.0860 ha        1 IMM      0.154000
     29 H12        -2.3480    0.6450   -3.4390 ha        1 IMM      0.184500
     30 H13        -1.9900    2.6160   -4.9190 ha        1 IMM      0.151000
     31 H15         0.3240    4.5190   -1.7740 ha        1 IMM      0.151000
     32 H16         0.0210    2.5720   -0.3270 ha        1 IMM      0.184500
     33 H171        2.4720   -0.2070   -1.0400 hc        1 IMM      0.060700
     34 H172        2.0960    1.5720   -0.9130 hc        1 IMM      0.060700
     35 H173        1.1110    0.4900   -2.0170 hc        1 IMM      0.060700
     36 H181        3.2760    0.5120    1.3430 hc        1 IMM      0.041200
     37 H182        2.5770    0.6040    3.0180 hc        1 IMM      0.041200
     38 H201       -1.1540   -0.9220    7.3110 h1        1 IMM      0.039033
     39 H202       -0.5430    0.4040    6.1920 h1        1 IMM      0.039033
     40 H203        0.3040   -1.2220    6.2360 h1        1 IMM      0.039033
@<TRIPOS>BOND
     1    1    2 1   
     2    1    9 1   
     3    1   10 1   
     4    2    3 2   
     5    2   17 1   
     6    3    4 1   
     7    3   18 1   
     8    4    5 ar  
     9    4    9 ar  
    10    5    6 ar  
    11    5   26 1   
    12    6    7 ar  
    13    6   22 1   
    14    7    8 ar  
    15    7   27 1   
    16    8    9 ar  
    17    8   28 1   
    18   10   11 1   
    19   10   21 2   
    20   11   12 ar  
    21   11   16 ar  
    22   12   13 ar  
    23   12   29 1   
    24   13   14 ar  
    25   13   30 1   
    26   14   15 ar  
    27   14   25 1   
    28   15   16 ar  
    29   15   31 1   
    30   16   32 1   
    31   17   33 1   
    32   17   34 1   
    33   17   35 1   
    34   18   19 1   
    35   18   36 1   
    36   18   37 1   
    37   19   23 1   
    38   19   24 1   
    39   20   22 1   
    40   20   38 1   
    41   20   39 1   
    42   20   40 1   
@<TRIPOS>SUBSTRUCTURE
     1 IMM         1 TEMP              0 ****  ****    0 ROOT
