@<TRIPOS>MOLECULE
IMM
   40    42     1     0     0
SMALL
bcc


@<TRIPOS>ATOM
      1 N1         -0.8280    1.2430    1.5550 n         1 IMM     -0.260200
      2 C2         -1.8820    1.2320    2.5350 cc        1 IMM     -0.008600
      3 C3         -1.4370    0.6270    3.7040 cd        1 IMM     -0.047400
      4 C4         -0.0510    0.2310    3.4900 ca        1 IMM     -0.034800
      5 C5          0.8780   -0.4000    4.3030 ca        1 IMM     -0.097000
      6 C6          2.1680   -0.6070    3.7920 ca        1 IMM      0.082100
      7 C7          2.5280   -0.2010    2.4980 ca        1 IMM     -0.194000
      8 C8          1.5980    0.4220    1.6670 ca        1 IMM     -0.126000
      9 C9          0.3050    0.6300    2.1450 ca        1 IMM     -0.025400
     10 C10        -0.9510    1.7350    0.2610 c         1 IMM      0.685700
     11 C11         0.0010    1.2600   -0.7910 ca        1 IMM     -0.108600
     12 C12         0.7970    2.1890   -1.4670 ca        1 IMM     -0.094500
     13 C13         1.6290    1.7680   -2.5030 ca        1 IMM     -0.108000
     14 C14         1.6590    0.4220   -2.8720 ca        1 IMM      0.032900
     15 C15         0.8580   -0.5040   -2.2030 ca        1 IMM     -0.108000
     16 C16         0.0290   -0.0880   -1.1600 ca        1 IMM     -0.094500
     17 C17        -3.2290    1.7660    2.2730 c3        1 IMM     -0.061900
     18 C18        -2.1910    0.4260    4.9450 c3        1 IMM     -0.159200
     19 C19        -3.3090   -0.6440    4.8170 c         1 IMM      0.920600
     20 C20         4.1730   -1.8490    4.0800 c3        1 IMM      0.119700
     21 O1         -1.8460    2.5450   -0.0450 o         1 IMM     -0.565100
     22 O2          3.0650   -1.1930    4.6780 os        1 IMM     -0.333900
     23 O3         -4.4330   -0.2650    4.3800 o         1 IMM     -0.834800
     24 O4         -3.0440   -1.8170    5.1930 o         1 IMM     -0.834800
     25 I1          2.8630   -0.1840   -4.3800 i         1 IMM     -0.160900
     26 H5          0.6120   -0.7360    5.3160 ha        1 IMM      0.168000
     27 H7          3.5470   -0.3690    2.1260 ha        1 IMM      0.124000
     28 H8          1.8960    0.7360    0.6570 ha        1 IMM      0.129000
     29 H12         0.7550    3.2530   -1.1850 ha        1 IMM      0.157500
     30 H13         2.2540    2.5070   -3.0270 ha        1 IMM      0.143500
     31 H15         0.8720   -1.5670   -2.4870 ha        1 IMM      0.143500
     32 H16        -0.5980   -0.8210   -0.6270 ha        1 IMM      0.157500
     33 H171       -3.9300    1.3580    3.0560 hc        1 IMM      0.070700
     34 H172       -3.2180    2.8840    2.3110 hc        1 IMM      0.070700
     35 H173       -3.5990    1.4590    1.2630 hc        1 IMM      0.070700
     36 H181       -1.4950    0.1050    5.7620 hc        1 IMM      0.040200
     37 H182       -2.6790    1.3890    5.2480 hc        1 IMM      0.040200
     38 H201        4.6150   -2.4450    4.9170 h1        1 IMM      0.033033
     39 H202        3.8490   -2.5190    3.2470 h1        1 IMM      0.033033
     40 H203        4.9110   -1.0980    3.7060 h1        1 IMM      0.033033
@<TRIPOS>BOND
     1    1    2 1   
     2    1    9 1   
     3    1   10 1   
     4    2    3 2   
     5    2   17 1   
     6    3    4 1   
     7    3   18 1   
     8    4    5 ar  
     9    4    9 ar  
    10    5    6 ar  
    11    5   26 1   
    12    6    7 ar  
    13    6   22 1   
    14    7    8 ar  
    15    7   27 1   
    16    8    9 ar  
    17    8   28 1   
    18   10   11 1   
    19   10   21 2   
    20   11   12 ar  
    21   11   16 ar  
    22   12   13 ar  
    23   12   29 1   
    24   13   14 ar  
    25   13   30 1   
    26   14   15 ar  
    27   14   25 1   
    28   15   16 ar  
    29   15   31 1   
    30   16   32 1   
    31   17   33 1   
    32   17   34 1   
    33   17   35 1   
    34   18   19 1   
    35   18   36 1   
    36   18   37 1   
    37   19   23 1   
    38   19   24 1   
    39   20   22 1   
    40   20   38 1   
    41   20   39 1   
    42   20   40 1   
@<TRIPOS>SUBSTRUCTURE
     1 IMM         1 TEMP              0 ****  ****    0 ROOT
