@<TRIPOS>MOLECULE
IMM
   40    42     1     0     0
SMALL
bcc


@<TRIPOS>ATOM
      1 N1          0.4880    0.3400   -0.3090 n         1 IMM     -0.260200
      2 C2          1.8540   -0.0480   -0.0770 cc        1 IMM     -0.008600
      3 C3          2.0650   -0.2540    1.2810 cd        1 IMM     -0.047400
      4 C4          0.8020    0.0020    1.9620 ca        1 IMM     -0.034800
      5 C5          0.4310   -0.0520    3.2970 ca        1 IMM     -0.097000
      6 C6         -0.9060    0.2250    3.6210 ca        1 IMM      0.082100
      7 C7         -1.8540    0.5540    2.6410 ca        1 IMM     -0.194000
      8 C8         -1.4890    0.6260    1.2980 ca        1 IMM     -0.126000
      9 C9         -0.1640    0.3660    0.9480 ca        1 IMM     -0.025400
     10 C10        -0.0450    0.6660   -1.5510 c         1 IMM      0.685700
     11 C11        -1.2810    1.5080   -1.6130 ca        1 IMM     -0.108600
     12 C12        -2.4210    1.0080   -2.2490 ca        1 IMM     -0.094500
     13 C13        -3.5510    1.8140   -2.3820 ca        1 IMM     -0.108000
     14 C14        -3.5400    3.1210   -1.8930 ca        1 IMM      0.032900
     15 C15        -2.3980    3.6220   -1.2670 ca        1 IMM     -0.108000
     16 C16        -1.2670    2.8170   -1.1240 ca        1 IMM     -0.094500
     17 C17         2.8530   -0.1600   -1.1540 c3        1 IMM     -0.061900
     18 C18         3.3080   -0.6700    1.9360 c3        1 IMM     -0.159200
     19 C19         4.4010    0.4340    1.9350 c         1 IMM      0.920600
     20 C20        -2.3700    0.8160    5.3960 c3        1 IMM      0.119700
     21 O1          0.4910    0.2890   -2.6090 o         1 IMM     -0.565100
     22 O2         -1.2220    0.0970    4.9680 os        1 IMM     -0.333900
     23 O3          5.1480    0.5140    0.9180 o         1 IMM     -0.834800
     24 O4          4.5070    1.1560    2.9610 o         1 IMM     -0.834800
     25 I1         -5.1790    4.2880   -2.0940 i         1 IMM     -0.160900
     26 H5          1.1620   -0.2990    4.0810 ha        1 IMM      0.168000
     27 H7         -2.8950    0.7590    2.9220 ha        1 IMM      0.124000
     28 H8         -2.2440    0.8830    0.5420 ha        1 IMM      0.129000
     29 H12        -2.4190   -0.0170   -2.6500 ha        1 IMM      0.157500
     30 H13        -4.4460    1.4100   -2.8810 ha        1 IMM      0.143500
     31 H15        -2.3770    4.6520   -0.8780 ha        1 IMM      0.143500
     32 H16        -0.3680    3.2120   -0.6230 ha        1 IMM      0.157500
     33 H171        2.6930   -1.1030   -1.7340 hc        1 IMM      0.070700
     34 H172        3.8790   -0.1600   -0.6870 hc        1 IMM      0.070700
     35 H173        2.7810    0.6990   -1.8670 hc        1 IMM      0.070700
     36 H181        3.7310   -1.5640    1.4060 hc        1 IMM      0.040200
     37 H182        3.0990   -0.9510    3.0000 hc        1 IMM      0.040200
     38 H201       -2.3050    0.7850    6.5130 h1        1 IMM      0.033033
     39 H202       -3.3000    0.3030    5.0470 h1        1 IMM      0.033033
     40 H203       -2.3500    1.8700    5.0290 h1        1 IMM      0.033033
@<TRIPOS>BOND
     1    1    2 1   
     2    1    9 1   
     3    1   10 1   
     4    2    3 2   
     5    2   17 1   
     6    3    4 1   
     7    3   18 1   
     8    4    5 ar  
     9    4    9 ar  
    10    5    6 ar  
    11    5   26 1   
    12    6    7 ar  
    13    6   22 1   
    14    7    8 ar  
    15    7   27 1   
    16    8    9 ar  
    17    8   28 1   
    18   10   11 1   
    19   10   21 2   
    20   11   12 ar  
    21   11   16 ar  
    22   12   13 ar  
    23   12   29 1   
    24   13   14 ar  
    25   13   30 1   
    26   14   15 ar  
    27   14   25 1   
    28   15   16 ar  
    29   15   31 1   
    30   16   32 1   
    31   17   33 1   
    32   17   34 1   
    33   17   35 1   
    34   18   19 1   
    35   18   36 1   
    36   18   37 1   
    37   19   23 1   
    38   19   24 1   
    39   20   22 1   
    40   20   38 1   
    41   20   39 1   
    42   20   40 1   
@<TRIPOS>SUBSTRUCTURE
     1 IMM         1 TEMP              0 ****  ****    0 ROOT
