@<TRIPOS>MOLECULE
IMN
   40    39     1     0     0
SMALL
bcc


@<TRIPOS>ATOM
      1 C          -0.2810   -2.7300   -1.1790 cg        1 IMN      0.011000
      2 C1          1.6090   -0.6070    0.6110 ce        1 IMN     -0.077100
      3 C2          0.8410   -0.0500    1.5000 c1        1 IMN     -0.159800
      4 C3          0.0560    0.5150    2.3800 c2        1 IMN      0.024000
      5 C4         -1.9780   -4.5780   -0.5380 c1        1 IMN     -0.157500
      6 C5         -1.2830   -3.6390   -0.8300 cg        1 IMN     -0.144000
      7 C6          1.5650    2.3020    2.7750 c3        1 IMN      0.091700
      8 C7          1.6750   -0.2450   -0.8080 ce        1 IMN     -0.010200
      9 C8          0.7720   -0.6660   -1.7300 c2        1 IMN     -0.027600
     10 C10        -1.4870    0.7570   -1.4090 cg        1 IMN     -0.200200
     11 C11        -3.9570    3.3100   -0.8470 c2        1 IMN     -0.193000
     12 C12        -3.3250    4.2200   -1.5920 ce        1 IMN     -0.141000
     13 C13        -1.8840    4.3030   -1.7500 ce        1 IMN      0.035400
     14 C14        -0.9940    3.2900   -1.7220 cf        1 IMN     -0.021700
     15 C15        -1.3230    1.9400   -1.5420 ch        1 IMN     -0.005300
     16 C16         0.9430   -0.3750   -3.1850 c3        1 IMN     -0.070900
     17 C17         2.8340    0.6110   -1.1780 c3        1 IMN     -0.169200
     18 C18         2.4300    2.1030   -1.2610 c         1 IMN      0.919600
     19 N          -0.4020   -1.4290   -1.3590 n         1 IMN     -0.180600
     20 O           0.3490    1.6370    3.1230 os        1 IMN     -0.351900
     21 O1         -2.7040   -1.2130   -1.0120 o         1 IMN     -0.542100
     22 O2          1.9530    2.5330   -2.3520 o         1 IMN     -0.839800
     23 O3          2.6100    2.8280   -0.2450 o         1 IMN     -0.839800
     24 Cl         -1.3070    5.8950   -2.0160 cl        1 IMN     -0.119400
     25 H2          2.3220   -1.4030    0.9020 ha        1 IMN      0.130000
     26 H4         -0.9470    0.1490    2.6560 h4        1 IMN      0.155000
     27 H5         -2.5920   -5.4000   -0.2790 ha        1 IMN      0.151500
     28 H61         1.4920    3.2850    3.3030 h1        1 IMN      0.058700
     29 H62         1.6560    2.4440    1.6660 h1        1 IMN      0.058700
     30 H63         2.4310    1.7110    3.1600 h1        1 IMN      0.058700
     31 H11        -3.4300    2.5290   -0.2810 ha        1 IMN      0.120000
     32 H12        -5.0510    3.2910   -0.7650 ha        1 IMN      0.120000
     33 H14        -3.9000    4.9930   -2.1340 ha        1 IMN      0.125000
     34 H15         0.1130    3.4550   -1.8550 ha        1 IMN      0.253000
     35 H161        1.2620    0.6970   -3.3080 hc        1 IMN      0.060367
     36 H162        1.7360   -1.0430   -3.6040 hc        1 IMN      0.060367
     37 H163        0.0040   -0.5360   -3.7670 hc        1 IMN      0.060367
     38 H171        3.2470    0.3010   -2.1720 hc        1 IMN      0.046700
     39 H172        3.6430    0.5090   -0.4110 hc        1 IMN      0.046700
     40 C9         -1.6220   -0.6520   -1.2420 c         1 IMN      0.667300
@<TRIPOS>BOND
     1    1    6 1   
     2    1   19 3   
     3    2    3 2   
     4    2    8 1   
     5    2   25 1   
     6    3    4 2   
     7    4   20 1   
     8    4   26 1   
     9    5    6 3   
    10    5   27 1   
    11    7   20 1   
    12    7   28 1   
    13    7   29 1   
    14    7   30 1   
    15    8    9 2   
    16    8   17 1   
    17    9   16 1   
    18    9   19 1   
    19   10   15 3   
    20   10   40 1   
    21   11   12 2   
    22   11   31 1   
    23   11   32 1   
    24   12   13 1   
    25   12   33 1   
    26   13   14 2   
    27   13   24 1   
    28   14   15 1   
    29   14   34 1   
    30   16   35 1   
    31   16   36 1   
    32   16   37 1   
    33   17   18 1   
    34   17   38 1   
    35   17   39 1   
    36   18   22 1   
    37   18   23 1   
    38   19   40 1   
    39   21   40 2   
@<TRIPOS>SUBSTRUCTURE
     1 IMN         1 TEMP              0 ****  ****    0 ROOT
