@<TRIPOS>MOLECULE
IMN
   40    42     1     0     0
SMALL
bcc


@<TRIPOS>ATOM
      1 C           1.3820    1.1850    1.0420 ca        1 IMN     -0.034400
      2 C1          0.7920    0.4150    2.1080 ca        1 IMN     -0.035800
      3 C2          1.5680    0.0030    3.1830 ca        1 IMN     -0.159000
      4 C3          2.9210    0.3580    3.1890 ca        1 IMN      0.091100
      5 C4          3.5010    1.1140    2.1500 ca        1 IMN     -0.162000
      6 C5          2.7340    1.5320    1.0680 ca        1 IMN     -0.099000
      7 C6          3.3170   -0.9330    5.1460 c3        1 IMN      0.115700
      8 C7         -0.6180    0.2490    1.7800 cc        1 IMN     -0.054400
      9 C8         -0.8490    0.9240    0.5870 cd        1 IMN     -0.031600
     10 C10        -0.1390    0.8870   -2.3160 ca        1 IMN     -0.158600
     11 C11        -0.2170    1.4850   -3.5830 ca        1 IMN     -0.070000
     12 C12        -0.9180    0.8660   -4.6120 ca        1 IMN     -0.144500
     13 C13        -1.5370   -0.3670   -4.3730 ca        1 IMN      0.033400
     14 C14        -1.4620   -0.9730   -3.1180 ca        1 IMN     -0.144500
     15 C15        -0.7630   -0.3440   -2.0840 ca        1 IMN     -0.070000
     16 C16        -2.1770    1.1610   -0.0090 c3        1 IMN     -0.054900
     17 C17        -1.5960   -0.5590    2.5090 c3        1 IMN     -0.156200
     18 C18        -1.9170   -1.8910    1.7750 c         1 IMN      0.923600
     19 N           0.3730    1.4830    0.0780 n         1 IMN     -0.246200
     20 O           3.8000    0.0230    4.2120 os        1 IMN     -0.343900
     21 O1          1.6980    2.2300   -1.6350 o         1 IMN     -0.588100
     22 O2         -2.0670   -1.8730    0.5180 o         1 IMN     -0.841800
     23 O3         -2.0400   -2.9200    2.4910 o         1 IMN     -0.841800
     24 CL         -2.3910   -1.1290   -5.6360 cl        1 IMN     -0.118400
     25 H2          1.1140   -0.5950    3.9860 ha        1 IMN      0.150000
     26 H4          4.5680    1.3670    2.2070 ha        1 IMN      0.135000
     27 H5          3.1800    2.1150    0.2480 ha        1 IMN      0.154000
     28 H61         4.2080   -1.1520    5.7870 h1        1 IMN      0.039033
     29 H62         2.4930   -0.4950    5.7610 h1        1 IMN      0.039033
     30 H63         2.9650   -1.8580    4.6290 h1        1 IMN      0.039033
     31 H11         0.2940    2.4450   -3.7580 ha        1 IMN      0.184000
     32 H12        -0.9800    1.3390   -5.6020 ha        1 IMN      0.153500
     33 H14        -1.9560   -1.9380   -2.9200 ha        1 IMN      0.153500
     34 H15        -0.7480   -0.8420   -1.0870 ha        1 IMN      0.184000
     35 H161       -2.6840    0.1640   -0.1430 hc        1 IMN      0.061033
     36 H162       -2.7890    1.7780    0.6970 hc        1 IMN      0.061033
     37 H163       -2.1270    1.6900   -0.9900 hc        1 IMN      0.061033
     38 H171       -1.2220   -0.8000    3.5370 hc        1 IMN      0.041200
     39 H172       -2.5640   -0.0010    2.6050 hc        1 IMN      0.041200
     40 C9          0.6990    1.5690   -1.2890 c         1 IMN      0.692700
@<TRIPOS>BOND
     1    1    2 ar  
     2    1    6 ar  
     3    1   19 1   
     4    2    3 ar  
     5    2    8 1   
     6    3    4 ar  
     7    3   25 1   
     8    4    5 ar  
     9    4   20 1   
    10    5    6 ar  
    11    5   26 1   
    12    6   27 1   
    13    7   20 1   
    14    7   28 1   
    15    7   29 1   
    16    7   30 1   
    17    8    9 2   
    18    8   17 1   
    19    9   16 1   
    20    9   19 1   
    21   10   11 ar  
    22   10   15 ar  
    23   10   40 1   
    24   11   12 ar  
    25   11   31 1   
    26   12   13 ar  
    27   12   32 1   
    28   13   14 ar  
    29   13   24 1   
    30   14   15 ar  
    31   14   33 1   
    32   15   34 1   
    33   16   35 1   
    34   16   36 1   
    35   16   37 1   
    36   17   18 1   
    37   17   38 1   
    38   17   39 1   
    39   18   22 1   
    40   18   23 1   
    41   19   40 1   
    42   21   40 2   
@<TRIPOS>SUBSTRUCTURE
     1 IMN         1 TEMP              0 ****  ****    0 ROOT
