@<TRIPOS>MOLECULE
IMN
   40    41     1     0     0
SMALL
bcc


@<TRIPOS>ATOM
      1 C          -0.4400   -0.7510    0.3340 c2        1 IMN      0.064000
      2 C1          1.0770   -0.9750    0.2510 c3        1 IMN      0.106000
      3 C2          1.7760   -0.6390    1.4500 c1        1 IMN     -0.198000
      4 C3          2.4300   -0.3060    2.3910 c1        1 IMN     -0.016000
      5 C4         -1.9540   -1.9840    2.0570 c2        1 IMN     -0.136000
      6 C5         -1.2260   -1.3590    1.1880 c1        1 IMN     -0.185000
      7 C6          4.0110    1.1920    3.1460 c3        1 IMN     -0.100000
      8 C7          1.4820   -0.0550   -0.8960 c2        1 IMN     -0.076000
      9 C8          0.3830    0.6110   -1.3640 c2        1 IMN     -0.028000
     10 C10        -2.4340    1.5520   -1.9580 c2        1 IMN     -0.119000
     11 C11        -3.2490    1.2620   -3.2070 c3        1 IMN     -0.184000
     12 C12        -4.3210    2.2330   -3.4250 c1        1 IMN     -0.003000
     13 C13        -4.3700    3.5430   -2.7130 c3        1 IMN     -0.089000
     14 C14        -3.0170    3.9250   -2.1580 c2        1 IMN     -0.180000
     15 C15        -2.3570    2.8560   -1.7530 c1        1 IMN     -0.063000
     16 C16         0.3950    1.6280   -2.4330 c3        1 IMN     -0.182000
     17 C17         2.8680    0.0100   -1.3650 c3        1 IMN     -0.194000
     18 C18         3.5530    1.3840   -1.1370 c2        1 IMN      0.347000
     19 N          -0.8090    0.2190   -0.6530 n         1 IMN     -0.203000
     20 O           3.1750    0.0410    3.4330 os        1 IMN     -0.141000
     21 O1         -3.0550   -0.2870   -0.6270 o         1 IMN     -0.366000
     22 O2          3.4030    2.2660   -2.0290 o         1 IMN     -0.574500
     23 O3          4.2620    1.5300   -0.1040 o         1 IMN     -0.574500
     24 CL         -5.6590    3.4080   -1.5190 cl        1 IMN     -0.059000
     25 H2          1.2730   -2.0500   -0.0250 hc        1 IMN      0.113000
     26 H4         -2.4130   -2.9610    1.8460 ha        1 IMN      0.114500
     27 H5         -2.1630   -1.5690    3.0540 ha        1 IMN      0.114500
     28 H61         3.4540    2.1000    3.4790 h1        1 IMN      0.106333
     29 H62         4.2690    1.2610    2.0560 h1        1 IMN      0.106333
     30 H63         4.9160    1.0200    3.7770 h1        1 IMN      0.106333
     31 H11        -3.7170    0.2400   -3.0900 hc        1 IMN      0.169500
     32 H12        -2.6160    1.2360   -4.1390 hc        1 IMN      0.169500
     33 H14        -4.7000    4.3400   -3.4340 h1        1 IMN      0.149000
     34 H15        -2.6490    4.9470   -2.2620 ha        1 IMN      0.167000
     35 H161       -0.2850    1.3440   -3.2750 hc        1 IMN      0.102667
     36 H162        1.4510    1.7370   -2.8120 hc        1 IMN      0.102667
     37 H163        0.0780    2.6240   -2.0320 hc        1 IMN      0.102667
     38 H171        2.8980   -0.1970   -2.4680 hc        1 IMN      0.082500
     39 H172        3.4790   -0.7690   -0.8400 hc        1 IMN      0.082500
     40 C9         -2.1210    0.4330   -1.0420 c2        1 IMN      0.366000
@<TRIPOS>BOND
     1    1    2 1   
     2    1    6 1   
     3    1   19 1   
     4    2    3 1   
     5    2    8 1   
     6    2   25 1   
     7    3    4 1   
     8    4   20 1   
     9    5    6 1   
    10    5   26 1   
    11    5   27 1   
    12    7   20 1   
    13    7   28 1   
    14    7   29 1   
    15    7   30 1   
    16    8    9 1   
    17    8   17 1   
    18    9   16 1   
    19    9   19 1   
    20   10   11 1   
    21   10   15 1   
    22   10   40 1   
    23   11   12 1   
    24   11   31 1   
    25   11   32 1   
    26   12   13 1   
    27   13   14 1   
    28   13   24 1   
    29   13   33 1   
    30   14   15 1   
    31   14   34 1   
    32   16   35 1   
    33   16   36 1   
    34   16   37 1   
    35   17   18 1   
    36   17   38 1   
    37   17   39 1   
    38   18   22 1   
    39   18   23 1   
    40   19   40 1   
    41   21   40 1   
@<TRIPOS>SUBSTRUCTURE
     1 IMN         1 TEMP              0 ****  ****    0 ROOT
