@<TRIPOS>MOLECULE
IMO
   37    38     1     0     0
SMALL
bcc


@<TRIPOS>ATOM
      1 P          -1.3410   -0.4060    7.3730 p4        1 IMO      1.580300
      2 O1         -2.7370   -0.8290    7.1210 o         1 IMO     -0.848167
      3 C2          2.3340    0.7020    3.4240 cc        1 IMO      0.644200
      4 C1'         0.9560    0.4290   -0.8030 c3        1 IMO      0.228800
      5 C2'         1.8850   -0.6970   -1.3810 c3        1 IMO      0.098100
      6 C3'         1.6010   -0.6960   -2.9000 c3        1 IMO      0.158100
      7 C4'         0.5460    0.4110   -3.1100 c3        1 IMO      0.065100
      8 C5'        -0.5870    0.0330   -4.0920 c3        1 IMO      0.233400
      9 O2         -0.3750   -1.4440    7.8000 o         1 IMO     -0.848167
     10 O3         -1.1120    0.9940    7.7940 o         1 IMO     -0.896967
     11 PA          0.0260   -0.2660   -6.6260 p5        1 IMO      1.331900
     12 O1A         0.0590    0.7100   -7.7690 o         1 IMO     -0.938833
     13 O2A         1.3680   -0.7560   -6.1270 o         1 IMO     -0.938833
     14 O3A        -1.0500   -1.3170   -6.6800 o         1 IMO     -0.938833
     15 O5'        -0.4530    0.7110   -5.2780 os        1 IMO     -0.570200
     16 O4'        -0.0310    0.7000   -1.8140 os        1 IMO     -0.438600
     17 N9          0.3270    0.1150    0.4530 na        1 IMO     -0.244900
     18 C4          0.9000    0.2920    1.7280 cd        1 IMO     -0.042600
     19 N3          2.1750    0.6660    2.0680 nc        1 IMO     -0.571300
     20 N1          1.4880    0.4420    4.4240 nd        1 IMO     -0.772100
     21 C6          0.1730    0.0510    4.1140 c         1 IMO      0.649000
     22 O6         -0.6520   -0.2030    5.0350 o         1 IMO     -0.716100
     23 C5         -0.1470   -0.0340    2.6860 cd        1 IMO      0.127800
     24 N7         -1.3150   -0.3770    1.9970 nc        1 IMO     -0.629000
     25 C8         -1.0150   -0.2750    0.6920 cc        1 IMO      0.368400
     26 O2'         3.2420   -0.4160   -1.1120 oh        1 IMO     -0.588800
     27 O3'         2.7750   -0.4480   -3.6320 oh        1 IMO     -0.645800
     28 H2          3.3550    1.0040    3.7400 h5        1 IMO     -0.015200
     29 H1'         1.5760    1.3660   -0.6580 h2        1 IMO      0.059700
     30 H2'         1.6250   -1.6990   -0.9450 h1        1 IMO      0.033700
     31 H3'         1.1780   -1.6970   -3.1940 h1        1 IMO      0.045700
     32 H4'         1.0520    1.3480   -3.4690 h1        1 IMO      0.062700
     33 H5'1       -0.5830   -1.0810   -4.2650 h1        1 IMO      0.003700
     34 H5'2       -1.5630    0.3200   -3.6010 h1        1 IMO      0.003700
     35 H81        -1.6900   -0.4490   -0.1500 h5        1 IMO      0.051100
     36 HO'2        3.2920   -0.2280   -0.1640 ho        1 IMO      0.405000
     37 HO'3        2.5060   -0.4830   -4.5810 ho        1 IMO      0.493000
@<TRIPOS>BOND
     1    1    2 1   
     2    1    9 1   
     3    1   10 2   
     4    3   19 1   
     5    3   20 2   
     6    3   28 1   
     7    4    5 1   
     8    4   16 1   
     9    4   17 1   
    10    4   29 1   
    11    5    6 1   
    12    5   26 1   
    13    5   30 1   
    14    6    7 1   
    15    6   27 1   
    16    6   31 1   
    17    7    8 1   
    18    7   16 1   
    19    7   32 1   
    20    8   15 1   
    21    8   33 1   
    22    8   34 1   
    23   11   12 1   
    24   11   13 1   
    25   11   14 1   
    26   11   15 1   
    27   17   18 1   
    28   17   25 2   
    29   18   19 2   
    30   18   23 1   
    31   20   21 1   
    32   21   22 2   
    33   21   23 1   
    34   23   24 2   
    35   24   25 1   
    36   25   35 1   
    37   26   36 1   
    38   27   37 1   
@<TRIPOS>SUBSTRUCTURE
     1 IMO         1 TEMP              0 ****  ****    0 ROOT
