@<TRIPOS>MOLECULE
IMO
   37    32     1     0     0
SMALL
bcc


@<TRIPOS>ATOM
      1 P           1.0310    0.9490    5.9980 p3        1 IMO      2.493000
      2 O1          1.3400    0.4860    7.4040 os        1 IMO     -1.211000
      3 C2         -0.0310   -2.2780    2.8690 c1        1 IMO      0.005000
      4 C1'         1.3780    0.1630   -0.8620 c3        1 IMO      0.139000
      5 C2'         1.0950   -1.1690   -1.6510 c3        1 IMO     -0.016000
      6 C3'         0.4290   -0.7440   -2.9380 c3        1 IMO      0.012000
      7 C4'         0.1230    0.5350   -2.7580 c3        1 IMO     -0.051000
      8 C5'        -1.2790    0.6610   -2.2130 c3        1 IMO      0.066000
      9 O2          0.0070    2.0600    6.0470 o         1 IMO     -0.941000
     10 O3          2.2960    1.4570    5.3450 o         1 IMO     -0.941000
     11 PA         -3.6960    0.9670   -3.0920 p3        1 IMO      2.518000
     12 O1A        -3.6590    2.4770   -3.0350 os        1 IMO     -1.211000
     13 O2A        -4.5320    0.5270   -4.2750 o         1 IMO     -1.244500
     14 O3A        -4.3060    0.4290   -1.8170 o         1 IMO     -1.244500
     15 O5'        -2.2160    0.4050   -3.2500 os        1 IMO     -0.740000
     16 O4'         1.1750    1.1020   -1.7050 os        1 IMO     -0.296000
     17 N9          0.4650    0.2880    0.2610 n3        1 IMO     -0.187000
     18 C4          0.3230   -0.4560    1.3970 c1        1 IMO      0.066000
     19 N3          0.0700   -1.7840    1.5970 n1        1 IMO     -0.334000
     20 N1          0.1210   -1.4440    3.9430 n1        1 IMO     -0.348000
     21 C6          0.3710   -0.1350    3.7500 c1        1 IMO      0.360000
     22 O6          0.4530   -0.2670    5.1560 o         1 IMO     -0.941000
     23 C5          0.4740    0.3700    2.4580 c1        1 IMO     -0.296000
     24 N7          0.7100    1.6270    1.9830 n1        1 IMO     -0.099000
     25 C8          0.7030    1.5720    0.6270 c1        1 IMO     -0.133000
     26 O2'         2.2560   -1.8150   -1.9130 oh        1 IMO     -0.341000
     27 O3'         1.3750   -0.8930   -4.0840 oh        1 IMO     -0.421000
     28 H2         -0.2130   -3.2330    3.0110 ha        1 IMO      0.112000
     29 H1'         2.3110    0.1820   -0.5480 h2        1 IMO      0.117000
     30 H2'         0.4930   -1.7490   -1.1330 h1        1 IMO      0.105000
     31 H3'        -0.3850   -1.2730   -3.0940 h1        1 IMO      0.102000
     32 H4'         0.2000    1.0230   -3.6090 h1        1 IMO      0.086000
     33 H5'1       -1.4080    0.0130   -1.4890 h1        1 IMO      0.052500
     34 H5'2       -1.4150    1.5710   -1.8670 h1        1 IMO      0.052500
     35 H81         0.8360    2.3300    0.0190 DU        1 IMO      0.178000
     36 HO'2        2.1540   -2.6880   -1.7550 ho        1 IMO      0.216000
     37 HO'3        0.9510   -1.2670   -4.7740 ho        1 IMO      0.317000
@<TRIPOS>BOND
     1    1    9 1   
     2    1   10 1   
     3    1   22 1   
     4    3   19 1   
     5    3   28 1   
     6    4    5 1   
     7    4   16 1   
     8    4   17 1   
     9    4   29 1   
    10    5    6 1   
    11    5   26 1   
    12    5   30 1   
    13    6    7 1   
    14    6   27 1   
    15    6   31 1   
    16    7    8 1   
    17    7   16 1   
    18    7   32 1   
    19    8   15 1   
    20    8   33 1   
    21    8   34 1   
    22   11   13 1   
    23   11   14 1   
    24   11   15 1   
    25   17   18 1   
    26   17   25 1   
    27   18   23 1   
    28   20   21 1   
    29   21   23 1   
    30   24   25 1   
    31   26   36 1   
    32   27   37 1   
@<TRIPOS>SUBSTRUCTURE
     1 IMO         1 TEMP              0 ****  ****    0 ROOT
