@<TRIPOS>MOLECULE
IMO
   37    38     1     0     0
SMALL
bcc


@<TRIPOS>ATOM
      1 P           1.3580   -0.6780   -1.1690 p4        1 IMO      1.580300
      2 O1          2.3190    0.1580   -0.4150 o         1 IMO     -0.848167
      3 C2         -4.1020   -0.4230   -0.6560 cc        1 IMO      0.643200
      4 C1'        -5.7870    2.7120    2.0100 c3        1 IMO      0.233800
      5 C2'        -6.6260    1.9850    3.1110 c3        1 IMO      0.070100
      6 C3'        -7.6620    3.0610    3.5140 c3        1 IMO      0.091100
      7 C4'        -6.9760    4.3940    3.1710 c3        1 IMO      0.105100
      8 C5'        -6.5760    5.2050    4.4280 c3        1 IMO      0.235400
      9 O2          1.2000   -2.0900   -0.7520 o         1 IMO     -0.848167
     10 O3          1.0980   -0.3220   -2.5820 o         1 IMO     -0.896967
     11 PA         -8.2680    5.7280    6.3750 p5        1 IMO      1.322900
     12 O1A        -9.5290    6.5500    6.3730 o         1 IMO     -0.937833
     13 O2A        -8.4430    4.2280    6.3040 o         1 IMO     -0.937833
     14 O3A        -7.1840    6.2020    7.3050 o         1 IMO     -0.937833
     15 O5'        -7.5950    6.0410    4.8030 os        1 IMO     -0.568200
     16 O4'        -5.7860    4.1010    2.3900 os        1 IMO     -0.447600
     17 N9         -4.4490    2.2190    1.8180 na        1 IMO     -0.244900
     18 C4         -4.0730    1.2440    0.8680 cd        1 IMO     -0.044600
     19 N3         -4.8600    0.4030    0.1250 nc        1 IMO     -0.572300
     20 N1         -2.7800   -0.5340   -0.8060 nd        1 IMO     -0.770100
     21 C6         -1.9400    0.3120   -0.0590 c         1 IMO      0.648000
     22 O6         -0.6860    0.2340   -0.1800 o         1 IMO     -0.716100
     23 C5         -2.6190    1.2540    0.8360 cd        1 IMO      0.128800
     24 N7         -2.1420    2.2310    1.7190 nc        1 IMO     -0.629000
     25 C8         -3.2310    2.7920    2.2670 cc        1 IMO      0.372400
     26 O2'        -7.3040    0.8440    2.6190 oh        1 IMO     -0.625800
     27 O3'        -8.8170    2.9410    2.6920 oh        1 IMO     -0.607800
     28 H2         -4.7050   -1.1200   -1.2760 h5        1 IMO     -0.015200
     29 H1'        -6.3400    2.6230    1.0250 h2        1 IMO      0.061700
     30 H2'        -5.9930    1.6880    3.9870 h1        1 IMO      0.057700
     31 H3'        -7.9490    3.0270    4.6090 h1        1 IMO      0.170700
     32 H4'        -7.6380    5.0160    2.5110 h1        1 IMO      0.060700
     33 H5'1       -6.2970    4.4980    5.2580 h1        1 IMO      0.000200
     34 H5'2       -5.6650    5.8110    4.1390 h1        1 IMO      0.000200
     35 H81        -3.2500    3.6110    2.9930 h5        1 IMO      0.054100
     36 HO'2       -6.7070    0.4110    1.9960 ho        1 IMO      0.422000
     37 HO'3       -9.2660    2.1460    2.9980 ho        1 IMO      0.388000
@<TRIPOS>BOND
     1    1    2 1   
     2    1    9 1   
     3    1   10 2   
     4    3   19 1   
     5    3   20 2   
     6    3   28 1   
     7    4    5 1   
     8    4   16 1   
     9    4   17 1   
    10    4   29 1   
    11    5    6 1   
    12    5   26 1   
    13    5   30 1   
    14    6    7 1   
    15    6   27 1   
    16    6   31 1   
    17    7    8 1   
    18    7   16 1   
    19    7   32 1   
    20    8   15 1   
    21    8   33 1   
    22    8   34 1   
    23   11   12 1   
    24   11   13 1   
    25   11   14 1   
    26   11   15 1   
    27   17   18 1   
    28   17   25 2   
    29   18   19 2   
    30   18   23 1   
    31   20   21 1   
    32   21   22 2   
    33   21   23 1   
    34   23   24 2   
    35   24   25 1   
    36   25   35 1   
    37   26   36 1   
    38   27   37 1   
@<TRIPOS>SUBSTRUCTURE
     1 IMO         1 TEMP              0 ****  ****    0 ROOT
