@<TRIPOS>MOLECULE
IMO
   37    38     1     0     0
SMALL
bcc


@<TRIPOS>ATOM
      1 P           1.3320   -0.7010   -1.1960 p4        1 IMO      1.580300
      2 O1          2.2990    0.1370   -0.4530 o         1 IMO     -0.848167
      3 C2         -4.1250   -0.4390   -0.6470 cc        1 IMO      0.643200
      4 C1'        -5.7890    2.7110    2.0140 c3        1 IMO      0.233800
      5 C2'        -6.6210    1.9900    3.1250 c3        1 IMO      0.070100
      6 C3'        -7.6530    3.0690    3.5290 c3        1 IMO      0.091100
      7 C4'        -6.9680    4.4000    3.1740 c3        1 IMO      0.105100
      8 C5'        -6.5590    5.2170    4.4240 c3        1 IMO      0.235400
      9 O2          1.1750   -2.1110   -0.7710 o         1 IMO     -0.848167
     10 O3          1.0620   -0.3510   -2.6090 o         1 IMO     -0.896967
     11 PA         -8.2370    5.7520    6.3800 p5        1 IMO      1.322900
     12 O1A        -9.4970    6.5750    6.3820 o         1 IMO     -0.937833
     13 O2A        -8.4140    4.2520    6.3180 o         1 IMO     -0.937833
     14 O3A        -7.1470    6.2300    7.3000 o         1 IMO     -0.937833
     15 O5'        -7.5750    6.0560    4.8010 os        1 IMO     -0.568200
     16 O4'        -5.7840    4.1020    2.3860 os        1 IMO     -0.447600
     17 N9         -4.4520    2.2160    1.8150 na        1 IMO     -0.244900
     18 C4         -4.0840    1.2360    0.8670 cd        1 IMO     -0.044600
     19 N3         -4.8770    0.3910    0.1350 nc        1 IMO     -0.572300
     20 N1         -2.8040   -0.5530   -0.8060 nd        1 IMO     -0.770100
     21 C6         -1.9580    0.2970   -0.0690 c         1 IMO      0.648000
     22 O6         -0.7050    0.2170   -0.1990 o         1 IMO     -0.716100
     23 C5         -2.6300    1.2440    0.8260 cd        1 IMO      0.128800
     24 N7         -2.1460    2.2250    1.7010 nc        1 IMO     -0.629000
     25 C8         -3.2310    2.7900    2.2530 cc        1 IMO      0.372400
     26 O2'        -7.3030    0.8480    2.6430 oh        1 IMO     -0.625800
     27 O3'        -8.8130    2.9460    2.7140 oh        1 IMO     -0.607800
     28 H2         -4.7320   -1.1390   -1.2590 h5        1 IMO     -0.015200
     29 H1'        -6.3480    2.6170    1.0330 h2        1 IMO      0.061700
     30 H2'        -5.9820    1.6980    3.9980 h1        1 IMO      0.057700
     31 H3'        -7.9330    3.0410    4.6260 h1        1 IMO      0.170700
     32 H4'        -7.6340    5.0190    2.5160 h1        1 IMO      0.060700
     33 H5'1       -5.6500    5.8210    4.1260 h1        1 IMO      0.000200
     34 H5'2       -6.2750    4.5140    5.2560 h1        1 IMO      0.000200
     35 H81        -3.2440    3.6130    2.9740 h5        1 IMO      0.054100
     36 HO'2       -6.7110    0.4100    2.0180 ho        1 IMO      0.422000
     37 HO'3       -9.2610    2.1540    3.0280 ho        1 IMO      0.388000
@<TRIPOS>BOND
     1    1    2 1   
     2    1    9 1   
     3    1   10 2   
     4    3   19 1   
     5    3   20 2   
     6    3   28 1   
     7    4    5 1   
     8    4   16 1   
     9    4   17 1   
    10    4   29 1   
    11    5    6 1   
    12    5   26 1   
    13    5   30 1   
    14    6    7 1   
    15    6   27 1   
    16    6   31 1   
    17    7    8 1   
    18    7   16 1   
    19    7   32 1   
    20    8   15 1   
    21    8   33 1   
    22    8   34 1   
    23   11   12 1   
    24   11   13 1   
    25   11   14 1   
    26   11   15 1   
    27   17   18 1   
    28   17   25 2   
    29   18   19 2   
    30   18   23 1   
    31   20   21 1   
    32   21   22 2   
    33   21   23 1   
    34   23   24 2   
    35   24   25 1   
    36   25   35 1   
    37   26   36 1   
    38   27   37 1   
@<TRIPOS>SUBSTRUCTURE
     1 IMO         1 TEMP              0 ****  ****    0 ROOT
