@<TRIPOS>MOLECULE
IMP
   34    36     1     0     0
SMALL
bcc


@<TRIPOS>ATOM
      1 P          -3.4650   -0.4860   -1.0390 p5        1 IMP      1.343900
      2 O1P        -3.7550    0.9170   -1.5220 o         1 IMP     -0.924167
      3 O2P        -4.5430   -1.5170   -1.0550 o         1 IMP     -0.924167
      4 O3P        -2.0590   -0.9010   -1.4290 o         1 IMP     -0.924167
      5 O5'        -3.2320   -0.0960    0.6370 os        1 IMP     -0.568200
      6 C5'        -1.9540   -0.0650    1.1170 c3        1 IMP      0.224400
      7 C4'        -1.3180    1.3470    1.0540 c3        1 IMP      0.063100
      8 O4'         0.0520    1.2570    1.5180 os        1 IMP     -0.434600
      9 C3'        -1.2850    1.9490   -0.3660 c3        1 IMP      0.075100
     10 O3'        -2.1600    3.0460   -0.4790 oh        1 IMP     -0.669800
     11 C2'         0.1680    2.3860   -0.6030 c3        1 IMP      0.109100
     12 O2'         0.4300    3.7570   -0.3840 oh        1 IMP     -0.623800
     13 C1'         0.9610    1.5630    0.4680 c3        1 IMP      0.219800
     14 N9          1.5720    0.3590   -0.0820 na        1 IMP     -0.189900
     15 C8          0.9880   -0.6840   -0.8420 cc        1 IMP      0.462400
     16 N7          1.8860   -1.6380   -1.1870 nd        1 IMP     -0.646000
     17 C5          3.0960   -1.2300   -0.6350 cd        1 IMP      0.213800
     18 C6          4.4070   -1.8500   -0.6730 c         1 IMP      0.634000
     19 O6          4.7590   -2.9080   -1.2270 o         1 IMP     -0.655500
     20 N1          5.4040   -1.1190    0.0250 n         1 IMP     -0.508400
     21 C2          5.1160    0.0790    0.6720 cd        1 IMP      0.431800
     22 N3          3.9490    0.6870    0.7340 nc        1 IMP     -0.571100
     23 C4          2.9190    0.0200    0.0720 cc        1 IMP      0.011800
     24 H5'1       -1.9650   -0.3540    2.2100 h1        1 IMP      0.000700
     25 H5'2       -1.2860   -0.7830    0.5640 h1        1 IMP      0.000700
     26 H4'        -1.8290    2.0430    1.7690 h1        1 IMP      0.048700
     27 H3'        -1.5800    1.1370   -1.1160 h1        1 IMP      0.169700
     28 HO3'       -2.9880    2.6670   -0.8580 ho        1 IMP      0.498000
     29 H2'         0.5050    2.1690   -1.6490 h1        1 IMP      0.076700
     30 HO2'       -0.3560    4.1370    0.0330 ho        1 IMP      0.424000
     31 H1'         1.7750    2.1870    0.9400 h2        1 IMP      0.089700
     32 H8         -0.1190   -0.7120   -1.1130 h5        1 IMP      0.205100
     33 HN1         6.3250   -1.4850    0.0550 hn        1 IMP      0.311500
     34 H2          5.9680    0.5670    1.1880 h5        1 IMP      0.024800
@<TRIPOS>BOND
     1    1    2 1   
     2    1    3 1   
     3    1    4 1   
     4    1    5 1   
     5    5    6 1   
     6    6    7 1   
     7    6   24 1   
     8    6   25 1   
     9    7    8 1   
    10    7    9 1   
    11    7   26 1   
    12    8   13 1   
    13    9   10 1   
    14    9   11 1   
    15    9   27 1   
    16   10   28 1   
    17   11   12 1   
    18   11   13 1   
    19   11   29 1   
    20   12   30 1   
    21   13   14 1   
    22   13   31 1   
    23   14   15 1   
    24   14   23 1   
    25   15   16 2   
    26   15   32 1   
    27   16   17 1   
    28   17   18 1   
    29   17   23 2   
    30   18   19 2   
    31   18   20 1   
    32   20   21 1   
    33   20   33 1   
    34   21   22 2   
    35   21   34 1   
    36   22   23 1   
@<TRIPOS>SUBSTRUCTURE
     1 IMP         1 TEMP              0 ****  ****    0 ROOT
