@<TRIPOS>MOLECULE
IMP
   34    36     1     0     0
SMALL
bcc


@<TRIPOS>ATOM
      1 P          -0.5190   -0.0090   -0.7780 p5        1 IMP      1.429800
      2 O1P         0.4560   -1.1560   -0.1400 oh        1 IMP     -0.781400
      3 O2P        -1.3960    0.5530    0.2660 o         1 IMP     -0.845500
      4 O3P         0.3930    0.7730   -1.6460 o         1 IMP     -0.845500
      5 O5'        -1.4230   -0.9760   -1.7650 os        1 IMP     -0.587200
      6 C5'        -0.7970   -1.4920   -2.9020 c3        1 IMP      0.160400
      7 C4'        -0.6440   -3.0140   -2.8570 c3        1 IMP      0.034100
      8 O4'        -1.8910   -3.6480   -2.5100 os        1 IMP     -0.401600
      9 C3'        -0.1690   -3.5830   -4.2380 c3        1 IMP      0.363800
     10 O3'         0.7900   -4.4790   -4.1640 o         1 IMP     -0.866500
     11 C2'        -1.5080   -4.2150   -4.8250 c3        1 IMP      0.035100
     12 O2'        -1.3160   -5.5480   -5.2230 oh        1 IMP     -0.641800
     13 C1'        -2.5280   -4.1890   -3.6530 c3        1 IMP      0.221800
     14 N9         -3.7500   -3.4160   -3.9170 na        1 IMP     -0.160900
     15 C8         -4.0880   -2.1470   -3.4120 cc        1 IMP      0.439400
     16 N7         -5.3040   -1.7120   -3.8260 nd        1 IMP     -0.646000
     17 C5         -5.7940   -2.7330   -4.6330 cd        1 IMP      0.195800
     18 C6         -7.0430   -2.8430   -5.3610 c         1 IMP      0.636000
     19 O6         -7.9790   -2.0240   -5.4340 o         1 IMP     -0.662500
     20 N1         -7.1840   -4.0620   -6.0720 ns        1 IMP     -0.510400
     21 C2         -6.1950   -5.0430   -6.0480 cd        1 IMP      0.431800
     22 N3         -5.0450   -4.9980   -5.4080 nc        1 IMP     -0.545100
     23 C4         -4.8310   -3.8190   -4.6950 cc        1 IMP      0.024800
     24 H5'1       -1.4340   -1.2190   -3.7940 h1        1 IMP      0.028700
     25 H5'2        0.2220   -1.0290   -3.0300 h1        1 IMP      0.028700
     26 H4'         0.0510   -3.3220   -2.0330 h1        1 IMP      0.075700
     27 H3'         0.0740   -2.6990   -4.9080 h1        1 IMP     -0.057300
     28 HO3'        1.1320   -1.4310   -0.7480 ho        1 IMP      0.422000
     29 H2'        -1.8760   -3.6550   -5.7200 h1        1 IMP      0.036700
     30 HO2'       -0.4330   -5.8130   -4.8900 ho        1 IMP      0.436000
     31 H1'        -2.8650   -5.2320   -3.3770 h2        1 IMP      0.075700
     32 H8         -3.3930   -1.6100   -2.7310 h5        1 IMP      0.136100
     33 HN1        -8.0080   -4.2060   -6.6050 hn        1 IMP      0.311500
     34 H2         -6.4100   -5.9590   -6.6340 h5        1 IMP      0.028800
@<TRIPOS>BOND
     1    1    2 1   
     2    1    3 1   
     3    1    4 1   
     4    1    5 1   
     5    2   28 1   
     6    5    6 1   
     7    6    7 1   
     8    6   24 1   
     9    6   25 1   
    10    7    8 1   
    11    7    9 1   
    12    7   26 1   
    13    8   13 1   
    14    9   10 1   
    15    9   11 1   
    16    9   27 1   
    17   11   12 1   
    18   11   13 1   
    19   11   29 1   
    20   12   30 1   
    21   13   14 1   
    22   13   31 1   
    23   14   15 1   
    24   14   23 1   
    25   15   16 2   
    26   15   32 1   
    27   16   17 1   
    28   17   18 1   
    29   17   23 2   
    30   18   19 2   
    31   18   20 1   
    32   20   21 1   
    33   20   33 1   
    34   21   22 2   
    35   21   34 1   
    36   22   23 1   
@<TRIPOS>SUBSTRUCTURE
     1 IMP         1 TEMP              0 ****  ****    0 ROOT
