@<TRIPOS>MOLECULE
IMP
   34    36     1     0     0
SMALL
bcc


@<TRIPOS>ATOM
      1 P           0.6710   -0.1830   -1.3340 p5        1 IMP      1.334900
      2 O1P         1.1670   -1.0690   -2.4630 o         1 IMP     -0.929167
      3 O2P         1.6120    0.0500   -0.1960 o         1 IMP     -0.929167
      4 O3P        -0.2070    0.9440   -1.7900 o         1 IMP     -0.929167
      5 O5'        -0.5090   -1.2920   -0.6750 os        1 IMP     -0.553200
      6 C5'        -1.4960   -1.6310   -1.5570 c3        1 IMP      0.229400
      7 C4'        -1.2240   -3.0320   -2.1580 c3        1 IMP      0.051100
      8 O4'        -2.4700   -3.7620   -2.3110 os        1 IMP     -0.430600
      9 C3'        -0.5200   -2.9920   -3.5270 c3        1 IMP      0.130100
     10 O3'         0.7650   -3.5630   -3.4490 oh        1 IMP     -0.685800
     11 C2'        -1.3890   -3.8490   -4.4730 c3        1 IMP      0.103100
     12 O2'        -0.8420   -5.1010   -4.8260 oh        1 IMP     -0.616800
     13 C1'        -2.7040   -4.1090   -3.6620 c3        1 IMP      0.212800
     14 N9         -3.8570   -3.3610   -4.1630 na        1 IMP     -0.172900
     15 C8         -4.2020   -2.0230   -3.8880 cc        1 IMP      0.446400
     16 N7         -5.3620   -1.6390   -4.4710 nd        1 IMP     -0.631000
     17 C5         -5.8090   -2.7650   -5.1560 cd        1 IMP      0.202800
     18 C6         -6.9940   -2.9650   -5.9700 c         1 IMP      0.636000
     19 O6         -7.8960   -2.1530   -6.2440 o         1 IMP     -0.645500
     20 N1         -7.1020   -4.2750   -6.5050 n         1 IMP     -0.507400
     21 C2         -6.1460   -5.2530   -6.2500 cd        1 IMP      0.447800
     22 N3         -5.0550   -5.1290   -5.5210 nc        1 IMP     -0.567100
     23 C4         -4.8800   -3.8610   -4.9670 cc        1 IMP      0.033800
     24 H5'1       -2.4870   -1.6950   -1.0160 h1        1 IMP     -0.001800
     25 H5'2       -1.5790   -0.8690   -2.3850 h1        1 IMP     -0.001800
     26 H4'        -0.6230   -3.6370   -1.4250 h1        1 IMP      0.082700
     27 H3'        -0.4410   -1.9350   -3.9070 h1        1 IMP      0.118700
     28 HO3'        1.3360   -2.8600   -3.0500 ho        1 IMP      0.517000
     29 H2'        -1.5860   -3.3220   -5.4430 h1        1 IMP      0.067700
     30 HO2'       -0.1240   -5.2960   -4.2070 ho        1 IMP      0.432000
     31 H1'        -2.9820   -5.2040   -3.6830 h2        1 IMP      0.088700
     32 H8         -3.5560   -1.3970   -3.2440 h5        1 IMP      0.116100
     33 HN1        -7.8830   -4.4870   -7.0790 hn        1 IMP      0.316500
     34 H2         -6.3300   -6.2430   -6.7160 h5        1 IMP      0.032800
@<TRIPOS>BOND
     1    1    2 1   
     2    1    3 1   
     3    1    4 1   
     4    1    5 1   
     5    5    6 1   
     6    6    7 1   
     7    6   24 1   
     8    6   25 1   
     9    7    8 1   
    10    7    9 1   
    11    7   26 1   
    12    8   13 1   
    13    9   10 1   
    14    9   11 1   
    15    9   27 1   
    16   10   28 1   
    17   11   12 1   
    18   11   13 1   
    19   11   29 1   
    20   12   30 1   
    21   13   14 1   
    22   13   31 1   
    23   14   15 1   
    24   14   23 1   
    25   15   16 2   
    26   15   32 1   
    27   16   17 1   
    28   17   18 1   
    29   17   23 2   
    30   18   19 2   
    31   18   20 1   
    32   20   21 1   
    33   20   33 1   
    34   21   22 2   
    35   21   34 1   
    36   22   23 1   
@<TRIPOS>SUBSTRUCTURE
     1 IMP         1 TEMP              0 ****  ****    0 ROOT
