@<TRIPOS>MOLECULE
IMP
   34    36     1     0     0
SMALL
bcc


@<TRIPOS>ATOM
      1 P           0.6580   -0.2120   -1.2840 p5        1 IMP      1.334900
      2 O1P         1.1550   -1.0630   -2.4380 o         1 IMP     -0.929167
      3 O2P         1.6040    0.0010   -0.1450 o         1 IMP     -0.929167
      4 O3P        -0.2350    0.9170   -1.7050 o         1 IMP     -0.929167
      5 O5'        -0.5060   -1.3500   -0.6470 os        1 IMP     -0.553200
      6 C5'        -1.4950   -1.6760   -1.5300 c3        1 IMP      0.229400
      7 C4'        -1.2130   -3.0590   -2.1700 c3        1 IMP      0.051100
      8 O4'        -2.4520   -3.7980   -2.3340 os        1 IMP     -0.430600
      9 C3'        -0.5180   -2.9750   -3.5420 c3        1 IMP      0.131100
     10 O3'         0.7730   -3.5340   -3.4870 oh        1 IMP     -0.685800
     11 C2'        -1.3850   -3.8170   -4.5050 c3        1 IMP      0.103100
     12 O2'        -0.8260   -5.0520   -4.8940 oh        1 IMP     -0.616800
     13 C1'        -2.6920   -4.1110   -3.6920 c3        1 IMP      0.212800
     14 N9         -3.8560   -3.3630   -4.1660 na        1 IMP     -0.172900
     15 C8         -4.2130   -2.0360   -3.8540 cc        1 IMP      0.446400
     16 N7         -5.3800   -1.6490   -4.4200 nd        1 IMP     -0.631000
     17 C5         -5.8200   -2.7620   -5.1310 cd        1 IMP      0.202800
     18 C6         -7.0080   -2.9530   -5.9430 c         1 IMP      0.636000
     19 O6         -7.9200   -2.1440   -6.1890 o         1 IMP     -0.645500
     20 N1         -7.1050   -4.2500   -6.5120 n         1 IMP     -0.507400
     21 C2         -6.1380   -5.2240   -6.2880 cd        1 IMP      0.447800
     22 N3         -5.0430   -5.1080   -5.5630 nc        1 IMP     -0.567100
     23 C4         -4.8780   -3.8530   -4.9770 cc        1 IMP      0.033800
     24 H5'1       -2.4820   -1.7650   -0.9860 h1        1 IMP     -0.001800
     25 H5'2       -1.5920   -0.8940   -2.3380 h1        1 IMP     -0.001800
     26 H4'        -0.6010   -3.6760   -1.4570 h1        1 IMP      0.082700
     27 H3'        -0.4530   -1.9070   -3.8950 h1        1 IMP      0.118700
     28 HO3'        1.3390   -2.8360   -3.0730 ho        1 IMP      0.517000
     29 H2'        -1.5930   -3.2660   -5.4590 h1        1 IMP      0.067700
     30 HO2'       -0.1030   -5.2560   -4.2840 ho        1 IMP      0.432000
     31 H1'        -2.9580   -5.2080   -3.7400 h2        1 IMP      0.088700
     32 H8         -3.5690   -1.4210   -3.1970 h5        1 IMP      0.116100
     33 HN1        -7.8880   -4.4550   -7.0860 hn        1 IMP      0.316500
     34 H2         -6.3140   -6.2030   -6.7790 h5        1 IMP      0.032800
@<TRIPOS>BOND
     1    1    2 1   
     2    1    3 1   
     3    1    4 1   
     4    1    5 1   
     5    5    6 1   
     6    6    7 1   
     7    6   24 1   
     8    6   25 1   
     9    7    8 1   
    10    7    9 1   
    11    7   26 1   
    12    8   13 1   
    13    9   10 1   
    14    9   11 1   
    15    9   27 1   
    16   10   28 1   
    17   11   12 1   
    18   11   13 1   
    19   11   29 1   
    20   12   30 1   
    21   13   14 1   
    22   13   31 1   
    23   14   15 1   
    24   14   23 1   
    25   15   16 2   
    26   15   32 1   
    27   16   17 1   
    28   17   18 1   
    29   17   23 2   
    30   18   19 2   
    31   18   20 1   
    32   20   21 1   
    33   20   33 1   
    34   21   22 2   
    35   21   34 1   
    36   22   23 1   
@<TRIPOS>SUBSTRUCTURE
     1 IMP         1 TEMP              0 ****  ****    0 ROOT
