@<TRIPOS>MOLECULE
IMQ
   38    40     1     0     0
SMALL
bcc


@<TRIPOS>ATOM
      1 C9          2.1690   -0.2000   -0.1800 ca        1 IMQ      0.410600
      2 N1          1.9140   -1.5430   -0.3960 nb        1 IMQ     -0.645000
      3 C10         2.8370   -2.4170   -0.0400 ca        1 IMQ      0.409200
      4 C2          4.0930   -2.0710    0.5530 ca        1 IMQ     -0.249300
      5 C3          4.3700   -0.7440    0.7580 ca        1 IMQ     -0.082000
      6 C4          3.4060    0.2390    0.3900 ca        1 IMQ     -0.150300
      7 C5          3.6510    1.6230    0.5750 ca        1 IMQ     -0.110000
      8 C6          2.7040    2.5480    0.2140 ca        1 IMQ     -0.128000
      9 C7          1.4720    2.1270   -0.3340 ca        1 IMQ     -0.122000
     10 C8          1.1910    0.7920   -0.5310 ca        1 IMQ     -0.115600
     11 C1         -0.1290    0.3910   -1.1290 c3        1 IMQ      0.219100
     12 N4'        -1.0810   -0.0890   -0.1410 n3        1 IMQ     -0.709600
     13 C1'        -1.3960    0.8740    0.9110 c3        1 IMQ      0.129800
     14 C2'        -2.8480    0.6350    1.3720 c3        1 IMQ      0.104100
     15 O2'        -2.9170   -0.0240    2.6190 oh        1 IMQ     -0.600800
     16 C3'        -3.4890   -0.2270    0.2600 c3        1 IMQ      0.100100
     17 O3'        -4.0430   -1.4250    0.7710 oh        1 IMQ     -0.601800
     18 C4'        -2.3280   -0.6280   -0.6950 c3        1 IMQ      0.177500
     19 C5'        -2.7010   -0.2570   -2.1390 c3        1 IMQ      0.107400
     20 O5'        -2.8680    1.1490   -2.2280 oh        1 IMQ     -0.607800
     21 H10         2.5970   -3.4800   -0.2250 h4        1 IMQ      0.022100
     22 H2          4.8000   -2.8650    0.8240 ha        1 IMQ      0.143000
     23 H3          5.3220   -0.4160    1.2030 ha        1 IMQ      0.137000
     24 H5          4.6110    1.9360    1.0120 ha        1 IMQ      0.134000
     25 H6          2.8870    3.6240    0.3510 ha        1 IMQ      0.135000
     26 H7          0.7250    2.8900   -0.6040 ha        1 IMQ      0.137000
     27 H1         -0.5420    1.2730   -1.7090 h1        1 IMQ      0.052700
     28 H1A         0.0390   -0.4480   -1.8640 h1        1 IMQ      0.052700
     29 H1'        -0.6820    0.6990    1.7620 h1        1 IMQ      0.053700
     30 H1'A       -1.2820    1.9410    0.5700 h1        1 IMQ      0.053700
     31 H2'        -3.3980    1.5990    1.5280 h1        1 IMQ      0.085700
     32 HO2'       -2.4080   -0.8430    2.5410 ho        1 IMQ      0.419000
     33 H3'        -4.2800    0.3500   -0.2880 h1        1 IMQ      0.060700
     34 HO3'       -4.5430   -1.1880    1.5650 ho        1 IMQ      0.417000
     35 H4'        -2.2110   -1.7540   -0.6780 h1        1 IMQ      0.092700
     36 H5'        -1.9020   -0.5920   -2.8530 h1        1 IMQ      0.034200
     37 H5'A       -3.6640   -0.7750   -2.4000 h1        1 IMQ      0.034200
     38 HO5'       -3.1550    1.3350   -3.1290 ho        1 IMQ      0.401000
@<TRIPOS>BOND
     1    1    2 ar  
     2    1    6 ar  
     3    1   10 ar  
     4    2    3 ar  
     5    3    4 ar  
     6    3   21 1   
     7    4    5 ar  
     8    4   22 1   
     9    5    6 ar  
    10    5   23 1   
    11    6    7 ar  
    12    7    8 ar  
    13    7   24 1   
    14    8    9 ar  
    15    8   25 1   
    16    9   10 ar  
    17    9   26 1   
    18   10   11 1   
    19   11   12 1   
    20   11   27 1   
    21   11   28 1   
    22   12   13 1   
    23   12   18 1   
    24   13   14 1   
    25   13   29 1   
    26   13   30 1   
    27   14   15 1   
    28   14   16 1   
    29   14   31 1   
    30   15   32 1   
    31   16   17 1   
    32   16   18 1   
    33   16   33 1   
    34   17   34 1   
    35   18   19 1   
    36   18   35 1   
    37   19   20 1   
    38   19   36 1   
    39   19   37 1   
    40   20   38 1   
@<TRIPOS>SUBSTRUCTURE
     1 IMQ         1 TEMP              0 ****  ****    0 ROOT
