@<TRIPOS>MOLECULE
IMQ
   38    36     1     0     0
SMALL
bcc


@<TRIPOS>ATOM
      1 C9         -0.2990    0.5870    2.1650 c1        1 IMQ      0.019000
      2 N1          1.0910    0.5660    2.1720 n1        1 IMQ     -0.120000
      3 C10         1.7730    0.5780    3.3630 c1        1 IMQ     -0.054000
      4 C2          1.0740    0.6110    4.5660 c1        1 IMQ     -0.132000
      5 C3         -0.2970    0.6310    4.5620 c1        1 IMQ     -0.132000
      6 C4         -0.9910    0.6190    3.3530 c1        1 IMQ     -0.085000
      7 C5         -2.4130    0.5920    3.3490 c2        1 IMQ     -0.107000
      8 C6         -3.1060    0.5320    2.1420 c1        1 IMQ     -0.129000
      9 C7         -2.4040    0.4990    0.9320 c1        1 IMQ     -0.121000
     10 C8         -1.0050    0.5260    0.9350 c2        1 IMQ     -0.045000
     11 C1         -0.4600    0.6090   -0.5400 c3        1 IMQ     -0.020000
     12 N4'         0.5190   -0.4350   -0.7530 n3        1 IMQ     -0.239000
     13 C1'        -0.2090   -1.7610   -1.1480 c3        1 IMQ     -0.110000
     14 C2'         0.0370   -1.9400   -2.6970 c3        1 IMQ     -0.009000
     15 O2'         1.0040   -3.0130   -2.9360 oh        1 IMQ     -0.325000
     16 C3'         0.5290   -0.7850   -3.0990 c3        1 IMQ     -0.020000
     17 O3'         1.4820   -0.9950   -4.1550 oh        1 IMQ     -0.327000
     18 C4'         1.2680   -0.1310   -1.8030 c3        1 IMQ     -0.062000
     19 C5'         1.3580    1.3470   -1.9570 c3        1 IMQ     -0.041000
     20 O5'         2.3220    1.6610   -2.9540 oh        1 IMQ     -0.326000
     21 H10         2.7510    0.5630    3.3670 ha        1 IMQ      0.160000
     22 H2          1.5600    0.6190    5.4150 ha        1 IMQ      0.141500
     23 H3         -0.7890    0.6540    5.4100 ha        1 IMQ      0.141500
     24 H5         -2.9050    0.6150    4.1960 ha        1 IMQ      0.135000
     25 H6         -4.0820    0.5120    2.1400 ha        1 IMQ      0.136000
     26 H7         -2.8950    0.4570    0.0800 ha        1 IMQ      0.134000
     27 H1         -0.0400    1.4860   -0.6840 h1        1 IMQ      0.085500
     28 H1A        -1.2040    0.4950   -1.1710 h1        1 IMQ      0.085500
     29 H1'         0.1710   -2.5140   -0.6570 h1        1 IMQ      0.092500
     30 H1'A       -1.1660   -1.6880   -0.9660 h1        1 IMQ      0.092500
     31 H2'        -0.8090   -2.1320   -3.1570 h1        1 IMQ      0.125000
     32 HO2'        0.5690   -3.7840   -3.0550 ho        1 IMQ      0.219000
     33 H3'        -0.1940   -0.2000   -3.4080 h1        1 IMQ      0.108000
     34 HO3'        1.0860   -0.8610   -4.9440 ho        1 IMQ      0.217000
     35 H4'         2.1700   -0.5160   -1.6990 h1        1 IMQ      0.129000
     36 H5'         0.4820    1.7030   -2.2240 h1        1 IMQ      0.087500
     37 H5'A        1.6270    1.7460   -1.1090 h1        1 IMQ      0.087500
     38 HO5'        2.3950    2.5490   -3.0290 ho        1 IMQ      0.209000
@<TRIPOS>BOND
     1    1    6 1   
     2    1   10 1   
     3    2    3 1   
     4    3   21 1   
     5    4    5 1   
     6    4   22 1   
     7    5   23 1   
     8    6    7 1   
     9    7    8 1   
    10    7   24 1   
    11    8   25 1   
    12    9   10 1   
    13    9   26 1   
    14   10   11 1   
    15   11   12 1   
    16   11   27 1   
    17   11   28 1   
    18   12   13 1   
    19   12   18 1   
    20   13   14 1   
    21   13   29 1   
    22   13   30 1   
    23   14   15 1   
    24   14   16 1   
    25   14   31 1   
    26   15   32 1   
    27   16   17 1   
    28   16   18 1   
    29   16   33 1   
    30   17   34 1   
    31   18   19 1   
    32   18   35 1   
    33   19   20 1   
    34   19   36 1   
    35   19   37 1   
    36   20   38 1   
@<TRIPOS>SUBSTRUCTURE
     1 IMQ         1 TEMP              0 ****  ****    0 ROOT
