@<TRIPOS>MOLECULE
IMQ
   38    40     1     0     0
SMALL
bcc


@<TRIPOS>ATOM
      1 C9          0.0010   -0.1000    0.0350 ca        1 IMQ      0.409600
      2 N1          1.3800   -0.2070    0.0100 nb        1 IMQ     -0.646000
      3 C10         2.0120   -0.3680    1.1580 ca        1 IMQ      0.408200
      4 C2          1.3670   -0.4350    2.4340 ca        1 IMQ     -0.249300
      5 C3          0.0020   -0.3170    2.4780 ca        1 IMQ     -0.082000
      6 C4         -0.7270   -0.1400    1.2660 ca        1 IMQ     -0.150300
      7 C5         -2.1380   -0.0050    1.2630 ca        1 IMQ     -0.110000
      8 C6         -2.8140    0.1620    0.0800 ca        1 IMQ     -0.128000
      9 C7         -2.1100    0.1890   -1.1440 ca        1 IMQ     -0.121000
     10 C8         -0.7390    0.0600   -1.1870 ca        1 IMQ     -0.116600
     11 C1         -0.0290    0.1120   -2.5120 c3        1 IMQ      0.220100
     12 N4'         0.3840   -1.1960   -2.9890 n3        1 IMQ     -0.714600
     13 C1'        -0.7140   -2.1430   -3.1860 c3        1 IMQ      0.123800
     14 C2'        -0.2390   -3.1810   -4.2240 c3        1 IMQ      0.108100
     15 O2'         0.3250   -4.3260   -3.6160 oh        1 IMQ     -0.596800
     16 C3'         0.8110   -2.4180   -5.0660 c3        1 IMQ      0.104100
     17 O3'         1.9340   -3.1830   -5.4260 oh        1 IMQ     -0.586800
     18 C4'         1.2180   -1.1870   -4.1960 c3        1 IMQ      0.141500
     19 C5'         1.2170    0.0760   -5.0680 c3        1 IMQ      0.110400
     20 O5'        -0.1020    0.3140   -5.5360 oh        1 IMQ     -0.608800
     21 H10         3.1130   -0.4510    1.0990 h4        1 IMQ      0.021100
     22 H2          1.9720   -0.5760    3.3390 ha        1 IMQ      0.144000
     23 H3         -0.5490   -0.3540    3.4300 ha        1 IMQ      0.138000
     24 H5         -2.6740   -0.0350    2.2230 ha        1 IMQ      0.134000
     25 H6         -3.9090    0.2710    0.0690 ha        1 IMQ      0.136000
     26 H7         -2.6790    0.3120   -2.0790 ha        1 IMQ      0.138000
     27 H1         -0.7020    0.6320   -3.2610 h1        1 IMQ      0.054200
     28 H1A         0.9040    0.7380   -2.4050 h1        1 IMQ      0.054200
     29 H1'        -1.6550   -1.6490   -3.5530 h1        1 IMQ      0.054700
     30 H1'A       -0.9320   -2.6340   -2.1990 h1        1 IMQ      0.054700
     31 H2'        -1.0780   -3.5720   -4.8550 h1        1 IMQ      0.091700
     32 HO2'        0.8500   -4.0300   -2.8600 ho        1 IMQ      0.412000
     33 H3'         0.3640   -2.0770   -6.0390 h1        1 IMQ      0.093700
     34 HO3'        2.1360   -3.7870   -4.6990 ho        1 IMQ      0.412000
     35 H4'         2.2830   -1.3210   -3.8400 h1        1 IMQ      0.077700
     36 H5'         1.9100   -0.0940   -5.9360 h1        1 IMQ      0.034700
     37 H5'A        1.5740    0.9660   -4.4820 h1        1 IMQ      0.034700
     38 HO5'       -0.0430    1.0390   -6.1680 ho        1 IMQ      0.402000
@<TRIPOS>BOND
     1    1    2 ar  
     2    1    6 ar  
     3    1   10 ar  
     4    2    3 ar  
     5    3    4 ar  
     6    3   21 1   
     7    4    5 ar  
     8    4   22 1   
     9    5    6 ar  
    10    5   23 1   
    11    6    7 ar  
    12    7    8 ar  
    13    7   24 1   
    14    8    9 ar  
    15    8   25 1   
    16    9   10 ar  
    17    9   26 1   
    18   10   11 1   
    19   11   12 1   
    20   11   27 1   
    21   11   28 1   
    22   12   13 1   
    23   12   18 1   
    24   13   14 1   
    25   13   29 1   
    26   13   30 1   
    27   14   15 1   
    28   14   16 1   
    29   14   31 1   
    30   15   32 1   
    31   16   17 1   
    32   16   18 1   
    33   16   33 1   
    34   17   34 1   
    35   18   19 1   
    36   18   35 1   
    37   19   20 1   
    38   19   36 1   
    39   19   37 1   
    40   20   38 1   
@<TRIPOS>SUBSTRUCTURE
     1 IMQ         1 TEMP              0 ****  ****    0 ROOT
