@<TRIPOS>MOLECULE
IMQ
   38    40     1     0     0
SMALL
bcc


@<TRIPOS>ATOM
      1 C9         -0.0000   -0.1110    0.0380 ca        1 IMQ      0.409600
      2 N1          1.3790   -0.2270    0.0160 nb        1 IMQ     -0.646000
      3 C10         2.0060   -0.3980    1.1650 ca        1 IMQ      0.408200
      4 C2          1.3580   -0.4670    2.4390 ca        1 IMQ     -0.249300
      5 C3         -0.0060   -0.3390    2.4810 ca        1 IMQ     -0.082000
      6 C4         -0.7310   -0.1520    1.2680 ca        1 IMQ     -0.150300
      7 C5         -2.1410   -0.0060    1.2620 ca        1 IMQ     -0.110000
      8 C6         -2.8130    0.1710    0.0780 ca        1 IMQ     -0.128000
      9 C7         -2.1060    0.1990   -1.1440 ca        1 IMQ     -0.121000
     10 C8         -0.7350    0.0610   -1.1840 ca        1 IMQ     -0.116600
     11 C1         -0.0220    0.1150   -2.5070 c3        1 IMQ      0.220100
     12 N4'         0.3850   -1.1930   -2.9890 n3        1 IMQ     -0.714600
     13 C1'        -0.7180   -2.1330   -3.1940 c3        1 IMQ      0.123800
     14 C2'        -0.2460   -3.1690   -4.2350 c3        1 IMQ      0.108100
     15 O2'         0.3080   -4.3200   -3.6310 oh        1 IMQ     -0.596800
     16 C3'         0.8110   -2.4090   -5.0710 c3        1 IMQ      0.104100
     17 O3'         1.9310   -3.1780   -5.4310 oh        1 IMQ     -0.586800
     18 C4'         1.2220   -1.1840   -4.1940 c3        1 IMQ      0.141500
     19 C5'         1.2310    0.0840   -5.0600 c3        1 IMQ      0.110400
     20 O5'        -0.0850    0.3310   -5.5300 oh        1 IMQ     -0.608800
     21 H10         3.1070   -0.4880    1.1090 h4        1 IMQ      0.021100
     22 H2          1.9590   -0.6170    3.3450 ha        1 IMQ      0.144000
     23 H3         -0.5600   -0.3780    3.4310 ha        1 IMQ      0.138000
     24 H5         -2.6800   -0.0380    2.2200 ha        1 IMQ      0.134000
     25 H6         -3.9070    0.2880    0.0650 ha        1 IMQ      0.136000
     26 H7         -2.6720    0.3310   -2.0800 ha        1 IMQ      0.138000
     27 H1         -0.6900    0.6430   -3.2550 h1        1 IMQ      0.054200
     28 H1A         0.9150    0.7340   -2.3940 h1        1 IMQ      0.054200
     29 H1'        -1.6560   -1.6310   -3.5620 h1        1 IMQ      0.054700
     30 H1'A       -0.9420   -2.6270   -2.2110 h1        1 IMQ      0.054700
     31 H2'        -1.0860   -3.5520   -4.8700 h1        1 IMQ      0.091700
     32 HO2'        0.8330   -4.0310   -2.8720 ho        1 IMQ      0.412000
     33 H3'         0.3690   -2.0600   -6.0440 h1        1 IMQ      0.093700
     34 HO3'        2.1270   -3.7870   -4.7050 ho        1 IMQ      0.412000
     35 H4'         2.2850   -1.3250   -3.8350 h1        1 IMQ      0.077700
     36 H5'         1.5920    0.9680   -4.4690 h1        1 IMQ      0.034700
     37 H5'A        1.9250   -0.0860   -5.9270 h1        1 IMQ      0.034700
     38 HO5'       -0.0200    1.0590   -6.1590 ho        1 IMQ      0.402000
@<TRIPOS>BOND
     1    1    2 ar  
     2    1    6 ar  
     3    1   10 ar  
     4    2    3 ar  
     5    3    4 ar  
     6    3   21 1   
     7    4    5 ar  
     8    4   22 1   
     9    5    6 ar  
    10    5   23 1   
    11    6    7 ar  
    12    7    8 ar  
    13    7   24 1   
    14    8    9 ar  
    15    8   25 1   
    16    9   10 ar  
    17    9   26 1   
    18   10   11 1   
    19   11   12 1   
    20   11   27 1   
    21   11   28 1   
    22   12   13 1   
    23   12   18 1   
    24   13   14 1   
    25   13   29 1   
    26   13   30 1   
    27   14   15 1   
    28   14   16 1   
    29   14   31 1   
    30   15   32 1   
    31   16   17 1   
    32   16   18 1   
    33   16   33 1   
    34   17   34 1   
    35   18   19 1   
    36   18   35 1   
    37   19   20 1   
    38   19   36 1   
    39   19   37 1   
    40   20   38 1   
@<TRIPOS>SUBSTRUCTURE
     1 IMQ         1 TEMP              0 ****  ****    0 ROOT
