@<TRIPOS>MOLECULE
IMQ
   38    40     1     0     0
SMALL
bcc


@<TRIPOS>ATOM
      1 C9          0.0010   -0.1010    0.0350 ca        1 IMQ      0.409600
      2 N1          1.3810   -0.2010    0.0070 nb        1 IMQ     -0.646000
      3 C10         2.0160   -0.3590    1.1540 ca        1 IMQ      0.408200
      4 C2          1.3740   -0.4300    2.4310 ca        1 IMQ     -0.249300
      5 C3          0.0090   -0.3170    2.4780 ca        1 IMQ     -0.082000
      6 C4         -0.7230   -0.1440    1.2680 ca        1 IMQ     -0.150300
      7 C5         -2.1350   -0.0150    1.2680 ca        1 IMQ     -0.110000
      8 C6         -2.8150    0.1490    0.0860 ca        1 IMQ     -0.128000
      9 C7         -2.1130    0.1790   -1.1390 ca        1 IMQ     -0.121000
     10 C8         -0.7410    0.0570   -1.1850 ca        1 IMQ     -0.116600
     11 C1         -0.0350    0.1120   -2.5120 c3        1 IMQ      0.220100
     12 N4'         0.3830   -1.1940   -2.9890 n3        1 IMQ     -0.714600
     13 C1'        -0.7100   -2.1470   -3.1840 c3        1 IMQ      0.123800
     14 C2'        -0.2330   -3.1820   -4.2230 c3        1 IMQ      0.108100
     15 O2'         0.3370   -4.3250   -3.6170 oh        1 IMQ     -0.596800
     16 C3'         0.8120   -2.4150   -5.0680 c3        1 IMQ      0.104100
     17 O3'         1.9380   -3.1750   -5.4300 oh        1 IMQ     -0.586800
     18 C4'         1.2150   -1.1820   -4.1980 c3        1 IMQ      0.141500
     19 C5'         1.2050    0.0820   -5.0700 c3        1 IMQ      0.110400
     20 O5'        -0.1150    0.3130   -5.5360 oh        1 IMQ     -0.608800
     21 H10         3.1170   -0.4380    1.0930 h4        1 IMQ      0.021100
     22 H2          1.9820   -0.5680    3.3350 ha        1 IMQ      0.144000
     23 H3         -0.5400   -0.3570    3.4310 ha        1 IMQ      0.138000
     24 H5         -2.6690   -0.0480    2.2290 ha        1 IMQ      0.134000
     25 H6         -3.9100    0.2540    0.0780 ha        1 IMQ      0.136000
     26 H7         -2.6850    0.3000   -2.0730 ha        1 IMQ      0.138000
     27 H1         -0.7120    0.6290   -3.2590 h1        1 IMQ      0.054200
     28 H1A         0.8950    0.7420   -2.4060 h1        1 IMQ      0.054200
     29 H1'        -0.9250   -2.6390   -2.1980 h1        1 IMQ      0.054700
     30 H1'A       -1.6550   -1.6570   -3.5500 h1        1 IMQ      0.054700
     31 H2'        -1.0710   -3.5770   -4.8530 h1        1 IMQ      0.091700
     32 HO2'        0.8620   -4.0270   -2.8620 ho        1 IMQ      0.412000
     33 H3'         0.3610   -2.0760   -6.0400 h1        1 IMQ      0.093700
     34 HO3'        2.1440   -3.7780   -4.7020 ho        1 IMQ      0.412000
     35 H4'         2.2810   -1.3100   -3.8440 h1        1 IMQ      0.077700
     36 H5'         1.8980   -0.0850   -5.9390 h1        1 IMQ      0.034700
     37 H5'A        1.5600    0.9730   -4.4850 h1        1 IMQ      0.034700
     38 HO5'       -0.0610    1.0390   -6.1680 ho        1 IMQ      0.402000
@<TRIPOS>BOND
     1    1    2 ar  
     2    1    6 ar  
     3    1   10 ar  
     4    2    3 ar  
     5    3    4 ar  
     6    3   21 1   
     7    4    5 ar  
     8    4   22 1   
     9    5    6 ar  
    10    5   23 1   
    11    6    7 ar  
    12    7    8 ar  
    13    7   24 1   
    14    8    9 ar  
    15    8   25 1   
    16    9   10 ar  
    17    9   26 1   
    18   10   11 1   
    19   11   12 1   
    20   11   27 1   
    21   11   28 1   
    22   12   13 1   
    23   12   18 1   
    24   13   14 1   
    25   13   29 1   
    26   13   30 1   
    27   14   15 1   
    28   14   16 1   
    29   14   31 1   
    30   15   32 1   
    31   16   17 1   
    32   16   18 1   
    33   16   33 1   
    34   17   34 1   
    35   18   19 1   
    36   18   35 1   
    37   19   20 1   
    38   19   36 1   
    39   19   37 1   
    40   20   38 1   
@<TRIPOS>SUBSTRUCTURE
     1 IMQ         1 TEMP              0 ****  ****    0 ROOT
