@<TRIPOS>MOLECULE
IMR
   20    20     1     0     0
SMALL
bcc


@<TRIPOS>ATOM
      1 O5'         0.1350    0.2090    3.2220 oh        1 IMR     -0.598800
      2 C5'         0.4880    0.7250    1.9580 c3        1 IMR      0.145400
      3 C4'         0.3380   -0.3280    0.8460 c3        1 IMR      0.111500
      4 N4'        -1.0640   -0.7070    0.6300 n3        1 IMR     -0.798200
      5 C3'         0.9040    0.2450   -0.4860 c3        1 IMR      0.133100
      6 O3'         1.7440   -0.7530   -1.0290 oh        1 IMR     -0.592800
      7 C2'        -0.3410    0.5490   -1.3540 c3        1 IMR      0.077100
      8 O2'        -0.1520   -0.0640   -2.6150 oh        1 IMR     -0.601800
      9 C1'        -1.5420   -0.0450   -0.5770 c3        1 IMR      0.118800
     10 HO'5       -0.7920   -0.0560    3.1800 ho        1 IMR      0.412000
     11 H5'1       -0.1180    1.6400    1.7250 h1        1 IMR      0.045200
     12 H5'2        1.5720    1.0030    2.0570 h1        1 IMR      0.045200
     13 H4'         0.9420   -1.2330    1.1470 h1        1 IMR      0.090700
     14 HN'4       -1.1280   -1.7030    0.5270 hn        1 IMR      0.364800
     15 H3'         1.5010    1.1800   -0.3190 h1        1 IMR      0.051700
     16 HO'3        1.8420   -0.5760   -1.9740 ho        1 IMR      0.424000
     17 H2'        -0.4690    1.6560   -1.4900 h1        1 IMR      0.048700
     18 HO'2       -0.9610    0.0780   -3.1210 ho        1 IMR      0.413000
     19 H1'1       -2.2280    0.7870   -0.2580 h1        1 IMR      0.055200
     20 H1'2       -2.1220   -0.7480   -1.2320 h1        1 IMR      0.055200
@<TRIPOS>BOND
     1    1    2 1   
     2    1   10 1   
     3    2    3 1   
     4    2   11 1   
     5    2   12 1   
     6    3    4 1   
     7    3    5 1   
     8    3   13 1   
     9    4    9 1   
    10    4   14 1   
    11    5    6 1   
    12    5    7 1   
    13    5   15 1   
    14    6   16 1   
    15    7    8 1   
    16    7    9 1   
    17    7   17 1   
    18    8   18 1   
    19    9   19 1   
    20    9   20 1   
@<TRIPOS>SUBSTRUCTURE
     1 IMR         1 TEMP              0 ****  ****    0 ROOT
