@<TRIPOS>MOLECULE
IMR
   20    20     1     0     0
SMALL
bcc


@<TRIPOS>ATOM
      1 O5'         0.0360    0.0070   -0.1970 oh        1 IMR     -0.598800
      2 C5'         1.4340   -0.1440   -0.0880 c3        1 IMR      0.145400
      3 C4'         1.9360    0.1700    1.3320 c3        1 IMR      0.111500
      4 N4'         1.4550   -0.8070    2.3170 n3        1 IMR     -0.798200
      5 C3'         3.4930    0.1560    1.3430 c3        1 IMR      0.133100
      6 O3'         3.9010    1.3280    2.0150 oh        1 IMR     -0.592800
      7 C2'         3.8770   -1.1500    2.0820 c3        1 IMR      0.077100
      8 O2'         4.7950   -0.8160    3.1050 oh        1 IMR     -0.601800
      9 C1'         2.5470   -1.7180    2.6360 c3        1 IMR      0.118800
     10 HO'5       -0.3730   -0.6190    0.4130 ho        1 IMR      0.412000
     11 H5'1        1.7420   -1.1770   -0.4010 h1        1 IMR      0.045200
     12 H5'2        1.8580    0.6110   -0.8040 h1        1 IMR      0.045200
     13 H4'         1.5730    1.2040    1.6030 h1        1 IMR      0.090700
     14 HN'4        1.1510   -0.3260    3.1430 hn        1 IMR      0.364800
     15 H3'         3.9190    0.1550    0.3050 h1        1 IMR      0.051700
     16 HO'3        4.8080    1.1940    2.3230 ho        1 IMR      0.424000
     17 H2'         4.3530   -1.8800    1.3750 h1        1 IMR      0.048700
     18 HO'2        4.9750   -1.6260    3.5970 ho        1 IMR      0.413000
     19 H1'1        2.3250   -2.7010    2.1390 h1        1 IMR      0.055200
     20 H1'2        2.6280   -1.8940    3.7430 h1        1 IMR      0.055200
@<TRIPOS>BOND
     1    1    2 1   
     2    1   10 1   
     3    2    3 1   
     4    2   11 1   
     5    2   12 1   
     6    3    4 1   
     7    3    5 1   
     8    3   13 1   
     9    4    9 1   
    10    4   14 1   
    11    5    6 1   
    12    5    7 1   
    13    5   15 1   
    14    6   16 1   
    15    7    8 1   
    16    7    9 1   
    17    7   17 1   
    18    8   18 1   
    19    9   19 1   
    20    9   20 1   
@<TRIPOS>SUBSTRUCTURE
     1 IMR         1 TEMP              0 ****  ****    0 ROOT
