@<TRIPOS>MOLECULE
IMR
   20    20     1     0     0
SMALL
bcc


@<TRIPOS>ATOM
      1 O5'         0.0470   -0.0130   -0.2180 oh        1 IMR     -0.598800
      2 C5'         1.4450   -0.1520   -0.0980 c3        1 IMR      0.145400
      3 C4'         1.9320    0.1640    1.3270 c3        1 IMR      0.111500
      4 N4'         1.4520   -0.8190    2.3070 n7        1 IMR     -0.798200
      5 C3'         3.4890    0.1630    1.3510 c3        1 IMR      0.133100
      6 O3'         3.8820    1.3390    2.0280 oh        1 IMR     -0.592800
      7 C2'         3.8780   -1.1400    2.0920 c3        1 IMR      0.077100
      8 O2'         4.7840   -0.8000    3.1230 oh        1 IMR     -0.601800
      9 C1'         2.5490   -1.7200    2.6340 c3        1 IMR      0.118800
     10 HO'5       -0.3620   -0.6430    0.3880 ho        1 IMR      0.412000
     11 H5'1        1.8680    0.6080   -0.8090 h1        1 IMR      0.045200
     12 H5'2        1.7640   -1.1820   -0.4090 h1        1 IMR      0.045200
     13 H4'         1.5580    1.1940    1.5970 h1        1 IMR      0.090700
     14 HN'4        1.1370   -0.3410    3.1310 hn        1 IMR      0.364800
     15 H3'         3.9240    0.1680    0.3170 h1        1 IMR      0.051700
     16 HO'3        4.7870    1.2110    2.3430 ho        1 IMR      0.424000
     17 H2'         4.3660   -1.8650    1.3870 h1        1 IMR      0.048700
     18 HO'2        4.9670   -1.6090    3.6160 ho        1 IMR      0.413000
     19 H1'1        2.3390   -2.7040    2.1330 h1        1 IMR      0.055200
     20 H1'2        2.6220   -1.8970    3.7400 h1        1 IMR      0.055200
@<TRIPOS>BOND
     1    1    2 1   
     2    1   10 1   
     3    2    3 1   
     4    2   11 1   
     5    2   12 1   
     6    3    4 1   
     7    3    5 1   
     8    3   13 1   
     9    4    9 1   
    10    4   14 1   
    11    5    6 1   
    12    5    7 1   
    13    5   15 1   
    14    6   16 1   
    15    7    8 1   
    16    7    9 1   
    17    7   17 1   
    18    8   18 1   
    19    9   19 1   
    20    9   20 1   
@<TRIPOS>SUBSTRUCTURE
     1 IMR         1 TEMP              0 ****  ****    0 ROOT
