@<TRIPOS>MOLECULE
IMS
   56    55     1     0     0
SMALL
bcc


@<TRIPOS>ATOM
      1 C2         -1.4510    0.2010    0.3970 c2        1 IMS     -0.139000
      2 C3         -0.3930    1.0190    0.2530 c2        1 IMS     -0.049000
      3 C4          1.7590   -0.4260    2.6730 c1        1 IMS     -0.166000
      4 C5          0.6190   -0.7860    2.5890 c1        1 IMS     -0.124000
      5 C6          0.8030    2.2280   -1.3740 c3        1 IMS     -0.073000
      6 C7         -2.8300   -1.5460    1.6090 c2        1 IMS     -0.173000
      7 C8         -2.6300   -2.4110    2.6930 c2        1 IMS      0.020000
      8 O2         -4.6810    0.8060    0.2560 o         1 IMS     -0.411000
      9 C18        -4.7580   -0.1730    1.0110 c2        1 IMS      0.247000
     10 N2         -4.4570    3.2100   -1.2480 n3        1 IMS     -0.146000
     11 C19        -3.2710    3.2450   -0.7190 c2        1 IMS      0.144000
     12 C21        -6.9360    4.4090   -2.8200 c2        1 IMS     -0.240000
     13 C22        -7.1320    3.1470   -2.4550 c2        1 IMS     -0.240000
     14 C20        -2.3430    4.4230   -0.7350 c3        1 IMS     -0.051000
     15 O3         -2.9330    5.4830   -1.4620 oh        1 IMS     -0.342000
     16 C17        -4.0220   -1.4560    0.7540 c3        1 IMS     -0.157000
     17 C1         -1.6160   -0.7750    1.4300 c2        1 IMS     -0.062000
     18 C16        -3.5620   -3.4130    3.2470 c3        1 IMS     -0.175000
     19 N          -1.3400   -2.1850    3.2140 n         1 IMS     -0.156000
     20 C          -0.7090   -1.1960    2.4250 c2        1 IMS      0.074000
     21 O          -0.4560    1.9910   -0.7410 os        1 IMS     -0.291000
     22 O1         -1.1390   -4.0950    4.4660 o         1 IMS     -0.283000
     23 C10         0.1540   -2.2490    5.2030 c2        1 IMS     -0.169000
     24 C15         1.1060   -3.1040    6.0280 c3        1 IMS     -0.182000
     25 C14         1.1550   -2.6950    7.4280 c1        1 IMS      0.030000
     26 C13         0.6330   -1.3900    7.9050 c3        1 IMS     -0.105000
     27 CL         -0.8680   -1.7290    8.7520 cl        1 IMS     -0.021000
     28 C12         0.5060   -0.3940    6.7650 c2        1 IMS     -0.149000
     29 C11         0.1370   -1.0030    5.6550 c1        1 IMS     -0.067000
     30 H2         -2.2940    0.2620   -0.3190 ha        1 IMS      0.131000
     31 H4          0.5170    1.0180    0.8720 h4        1 IMS      0.158000
     32 H5          2.7700   -0.1140    2.7570 ha        1 IMS      0.236000
     33 H61         1.5520    2.5840   -0.6260 h1        1 IMS      0.089667
     34 H62         1.1650    1.2980   -1.8760 h1        1 IMS      0.089667
     35 H63         0.5830    3.0240   -2.1280 h1        1 IMS      0.089667
     36 HN2        -5.3820   -0.1360    1.9320 h4        1 IMS      0.114000
     37 H19        -5.0410    2.3850   -1.1880 hn        1 IMS      0.294000
     38 H211       -2.8700    2.3270   -0.2070 h4        1 IMS      0.233000
     39 H212       -7.2240    5.2620   -2.1890 ha        1 IMS      0.123750
     40 H221       -6.5100    4.6860   -3.7960 ha        1 IMS      0.123750
     41 H222       -6.8900    2.2960   -3.1080 ha        1 IMS      0.123750
     42 H223       -7.6040    2.8720   -1.5010 ha        1 IMS      0.123750
     43 H201       -1.3730    4.0860   -1.2090 h1        1 IMS      0.148500
     44 H202       -2.1480    4.7260    0.3340 h1        1 IMS      0.148500
     45 HO3        -2.2990    6.2140   -1.4720 ho        1 IMS      0.253000
     46 H171       -4.7200   -2.3150    0.9540 hc        1 IMS      0.122500
     47 H172       -3.7160   -1.5160   -0.3280 hc        1 IMS      0.122500
     48 H161       -3.2220   -4.4440    2.9670 hc        1 IMS      0.108333
     49 H162       -4.5900   -3.2450    2.8460 hc        1 IMS      0.108333
     50 H163       -3.5980   -3.3610    4.3650 hc        1 IMS      0.108333
     51 H15         0.7570   -4.1800    5.9770 hc        1 IMS      0.182500
     52 H14         2.1620   -3.0880    5.6330 hc        1 IMS      0.182500
     53 H12         1.3390   -0.9630    8.6710 h1        1 IMS      0.175000
     54 H11         0.8380    0.6370    6.9030 ha        1 IMS      0.179000
     55 C9         -0.7870   -2.9180    4.3030 c2        1 IMS      0.395000
     56 H22        -4.8600    4.0050   -1.7300 hn        1 IMS      0.294000
@<TRIPOS>BOND
     1    1    2 1   
     2    1   17 1   
     3    1   30 1   
     4    2   21 1   
     5    2   31 1   
     6    3    4 1   
     7    3   32 1   
     8    4   20 1   
     9    5   21 1   
    10    5   33 1   
    11    5   34 1   
    12    5   35 1   
    13    6    7 1   
    14    6   16 1   
    15    6   17 1   
    16    7   18 1   
    17    7   19 1   
    18    8    9 1   
    19    9   16 1   
    20    9   36 1   
    21   10   11 1   
    22   10   37 1   
    23   10   56 1   
    24   11   14 1   
    25   11   38 1   
    26   12   13 1   
    27   12   39 1   
    28   12   40 1   
    29   13   41 1   
    30   13   42 1   
    31   14   15 1   
    32   14   43 1   
    33   14   44 1   
    34   15   45 1   
    35   16   46 1   
    36   16   47 1   
    37   17   20 1   
    38   18   48 1   
    39   18   49 1   
    40   18   50 1   
    41   19   20 1   
    42   19   55 1   
    43   22   55 1   
    44   23   24 1   
    45   23   29 1   
    46   23   55 1   
    47   24   25 1   
    48   24   51 1   
    49   24   52 1   
    50   25   26 1   
    51   26   27 1   
    52   26   28 1   
    53   26   53 1   
    54   28   29 1   
    55   28   54 1   
@<TRIPOS>SUBSTRUCTURE
     1 IMS         1 TEMP              0 ****  ****    0 ROOT
