@<TRIPOS>MOLECULE
IMS
   55    57     1     0     0
SMALL
bcc


@<TRIPOS>ATOM
      1 C2          1.5260    1.2180    1.9920 ca        1 IMS     -0.134000
      2 C3          0.9640    2.4920    1.8120 ca        1 IMS      0.118100
      3 C4         -0.2630    2.6680    1.1490 ca        1 IMS     -0.189000
      4 C5         -0.9620    1.5770    0.6420 ca        1 IMS     -0.099000
      5 C6          1.1970    4.8390    2.1550 c3        1 IMS      0.113700
      6 C7          1.1020   -1.3040    1.5250 cc        1 IMS     -0.156400
      7 C8          0.0490   -1.9450    0.8790 cd        1 IMS      0.043400
      8 O2          4.0500   -3.2000    1.1580 o         1 IMS     -0.626100
      9 C18         3.4540   -2.1040    1.2250 c         1 IMS      0.661100
     10 N2          3.8500   -1.0110    0.4930 n         1 IMS     -0.558900
     11 C19         4.9820   -1.0300   -0.4010 c3        1 IMS      0.105700
     12 C21         4.6320   -0.5810   -1.8290 c3        1 IMS     -0.090400
     13 C22         3.6700   -1.5160   -2.5100 c3        1 IMS     -0.093100
     14 C20         6.1440   -0.1480    0.1150 c3        1 IMS      0.109400
     15 O3          5.7000    1.1980    0.1380 oh        1 IMS     -0.604800
     16 C17         2.2660   -1.9290    2.1640 c3        1 IMS     -0.081200
     17 C1          0.8350    0.1240    1.4920 ca        1 IMS     -0.045800
     18 C16        -0.1180   -3.3960    0.6720 c3        1 IMS     -0.054900
     19 N          -0.8900   -0.9800    0.4060 n         1 IMS     -0.259200
     20 C          -0.4190    0.3000    0.7970 ca        1 IMS     -0.024400
     21 O           1.7110    3.5270    2.3440 os        1 IMS     -0.325900
     22 O1         -2.5140   -2.4650   -0.2320 o         1 IMS     -0.545100
     23 C10        -2.8190   -0.2320   -0.9890 ca        1 IMS     -0.142600
     24 C15        -4.1260    0.0880   -0.6050 ca        1 IMS     -0.080500
     25 C14        -4.8540    1.0280   -1.3320 ca        1 IMS     -0.131500
     26 C13        -4.2730    1.6360   -2.4500 ca        1 IMS      0.034400
     27 CL         -5.1590    2.7790   -3.3410 cl        1 IMS     -0.079400
     28 C12        -2.9710    1.3090   -2.8440 ca        1 IMS     -0.131500
     29 C11        -2.2440    0.3750   -2.1100 ca        1 IMS     -0.080500
     30 H2          2.4820    1.1040    2.5210 ha        1 IMS      0.156000
     31 H4         -0.6900    3.6740    1.0250 ha        1 IMS      0.141000
     32 H5         -1.9230    1.7340    0.1310 ha        1 IMS      0.146000
     33 H61         1.9660    5.4920    2.6410 h1        1 IMS      0.044700
     34 H62         1.1100    5.0780    1.0670 h1        1 IMS      0.044700
     35 H63         0.2080    4.9530    2.6620 h1        1 IMS      0.044700
     36 HN2         3.3450   -0.1580    0.5660 hn        1 IMS      0.327500
     37 H19         5.3740   -2.0920   -0.4430 h1        1 IMS      0.089700
     38 H211        5.5900   -0.5380   -2.4120 hc        1 IMS      0.050700
     39 H212        4.2130    0.4600   -1.8020 hc        1 IMS      0.050700
     40 H221        3.5300   -1.2120   -3.5760 hc        1 IMS      0.035700
     41 H222        4.0560   -2.5650   -2.4900 hc        1 IMS      0.035700
     42 H223        2.6730   -1.5020   -2.0090 hc        1 IMS      0.035700
     43 H201        6.4570   -0.4720    1.1430 h1        1 IMS      0.030200
     44 H202        7.0160   -0.2490   -0.5850 h1        1 IMS      0.030200
     45 HO3         6.4060    1.7140    0.5450 ho        1 IMS      0.401000
     46 H171        2.0020   -2.9480    2.5580 hc        1 IMS      0.080700
     47 H172        2.6030   -1.3020    3.0350 hc        1 IMS      0.080700
     48 H161       -0.9890   -3.7740    1.2670 hc        1 IMS      0.068700
     49 H162       -0.3180   -3.6270   -0.4050 hc        1 IMS      0.068700
     50 H163        0.8100   -3.9330    0.9920 hc        1 IMS      0.068700
     51 H15        -4.5810   -0.4100    0.2650 ha        1 IMS      0.154500
     52 H14        -5.8810    1.2830   -1.0290 ha        1 IMS      0.156000
     53 H12        -2.5210    1.7840   -3.7300 ha        1 IMS      0.156000
     54 H11        -1.2180    0.1160   -2.4160 ha        1 IMS      0.154500
     55 C9         -2.0890   -1.2990   -0.2510 c         1 IMS      0.694700
@<TRIPOS>BOND
     1    1    2 ar  
     2    1   17 ar  
     3    1   30 1   
     4    2    3 ar  
     5    2   21 1   
     6    3    4 ar  
     7    3   31 1   
     8    4   20 ar  
     9    4   32 1   
    10    5   21 1   
    11    5   33 1   
    12    5   34 1   
    13    5   35 1   
    14    6    7 2   
    15    6   16 1   
    16    6   17 1   
    17    7   18 1   
    18    7   19 1   
    19    8    9 2   
    20    9   10 1   
    21    9   16 1   
    22   10   11 1   
    23   10   36 1   
    24   11   12 1   
    25   11   14 1   
    26   11   37 1   
    27   12   13 1   
    28   12   38 1   
    29   12   39 1   
    30   13   40 1   
    31   13   41 1   
    32   13   42 1   
    33   14   15 1   
    34   14   43 1   
    35   14   44 1   
    36   15   45 1   
    37   16   46 1   
    38   16   47 1   
    39   17   20 ar  
    40   18   48 1   
    41   18   49 1   
    42   18   50 1   
    43   19   20 1   
    44   19   55 1   
    45   22   55 2   
    46   23   24 ar  
    47   23   29 ar  
    48   23   55 1   
    49   24   25 ar  
    50   24   51 1   
    51   25   26 ar  
    52   25   52 1   
    53   26   27 1   
    54   26   28 ar  
    55   28   29 ar  
    56   28   53 1   
    57   29   54 1   
@<TRIPOS>SUBSTRUCTURE
     1 IMS         1 TEMP              0 ****  ****    0 ROOT
