@<TRIPOS>MOLECULE
IMS
   55    48     1     0     0
SMALL
bcc


@<TRIPOS>ATOM
      1 C2          1.6210   -0.0370   -1.2720 c1        1 IMS     -0.141000
      2 C3          3.0050    0.0690   -1.3360 c1        1 IMS      0.072000
      3 C4          3.7590    0.2090   -0.1440 c1        1 IMS     -0.143000
      4 C5          3.1180    0.2390    1.0840 c1        1 IMS     -0.143000
      5 C6          4.3380    0.1420   -3.2690 c3        1 IMS     -0.076000
      6 C7         -0.3700   -0.1940    0.3280 c1        1 IMS     -0.103500
      7 C8         -0.4560   -0.1740    1.7010 c1        1 IMS      0.015500
      8 C9          1.1800    0.1960    3.6650 c1        1 IMS      0.368000
      9 O2         -2.2550    1.0740   -1.1010 o         1 IMS     -0.391000
     10 C18        -2.4350   -0.1640   -1.0530 c1        1 IMS      0.303000
     11 N2         -3.5070   -0.7900   -1.8680 n2        1 IMS     -0.377000
     12 C19        -4.2550   -0.0160   -2.7880 c3        1 IMS     -0.015000
     13 C21        -4.4930   -0.8570   -4.0790 c3        1 IMS     -0.167000
     14 C22        -4.5500    0.0710   -5.3130 c3        1 IMS     -0.212000
     15 C20        -5.5850    0.3470   -2.1700 c3        1 IMS     -0.027000
     16 O3         -6.3060    1.1940   -3.0660 oh        1 IMS     -0.337000
     17 C17        -1.4030   -1.0540   -0.3840 c2        1 IMS     -0.112000
     18 C1          0.9670   -0.0060   -0.0220 c1        1 IMS     -0.103500
     19 C16        -1.4620   -0.4930    2.7490 c2        1 IMS     -0.177000
     20 N           0.8280    0.0270    2.2150 n2        1 IMS     -0.197000
     21 C           1.7020    0.1310    1.1480 c1        1 IMS      0.015500
     22 O           3.0260   -0.0490   -2.6890 os        1 IMS     -0.210000
     23 O1          0.3170    0.1670    4.4990 o         1 IMS     -0.303000
     24 C10         2.6320    0.3090    4.0860 c2        1 IMS     -0.124000
     25 C15         3.3730   -0.8660    4.4470 c2        1 IMS     -0.083000
     26 C14         4.6720   -0.7480    4.9170 c1        1 IMS     -0.131000
     27 C13         5.2550    0.5080    5.0370 c1        1 IMS     -0.043000
     28 CL          6.8640    0.6550    5.5910 cl        1 IMS      0.001000
     29 C12         4.5350    1.6550    4.6860 c1        1 IMS     -0.131000
     30 C11         3.2100    1.5420    4.2060 c1        1 IMS     -0.078000
     31 H2          1.0780   -0.1360   -2.1230 ha        1 IMS      0.156000
     32 H4          4.7330    0.2860   -0.1850 ha        1 IMS      0.144500
     33 H5          3.6400    0.3400    1.9050 ha        1 IMS      0.144500
     34 H61         4.9170   -0.6550   -3.0640 h1        1 IMS      0.085000
     35 H62         4.2550    0.2420   -4.2400 h1        1 IMS      0.085000
     36 H63         4.7650    0.9820   -2.8740 h1        1 IMS      0.085000
     37 HN2        -3.6800   -1.7040   -1.7810 hn        1 IMS      0.234000
     38 H19        -3.7740    0.7810   -3.0060 h1        1 IMS      0.121000
     39 H211       -5.3110   -1.3290   -4.0020 hc        1 IMS      0.085000
     40 H212       -3.7770   -1.4810   -4.1850 hc        1 IMS      0.085000
     41 H221       -4.9830   -0.3410   -5.9730 hc        1 IMS      0.079333
     42 H222       -5.0060    0.8720   -5.0890 hc        1 IMS      0.079333
     43 H223       -3.6430    0.2840   -5.6020 hc        1 IMS      0.079333
     44 H201       -6.1040   -0.4700   -2.0050 h1        1 IMS      0.084500
     45 H202       -5.4420    0.8040   -1.3430 h1        1 IMS      0.084500
     46 HO3        -6.9790    1.6660   -2.5850 ho        1 IMS      0.226000
     47 H171       -0.9510   -1.6130   -1.0770 ha        1 IMS      0.122000
     48 H172       -1.8020   -1.5780    0.1980 ha        1 IMS      0.122000
     49 H161       -2.3510   -0.7410    2.3090 ha        1 IMS      0.109000
     50 H162       -1.5940    0.3130    3.3400 ha        1 IMS      0.109000
     51 H163       -1.1270   -1.2830    3.3160 ha        1 IMS      0.109000
     52 H15         2.9700   -1.7380    4.3620 ha        1 IMS      0.153000
     53 H14         5.1850   -1.5630    5.1690 ha        1 IMS      0.157000
     54 H12         4.9760    2.5900    4.7790 ha        1 IMS      0.157000
     55 H11         2.6820    2.3840    3.9490 ha        1 IMS      0.155000
@<TRIPOS>BOND
     1    1    2 1   
     2    1   31 1   
     3    2   22 1   
     4    3    4 1   
     5    3   32 1   
     6    4   33 1   
     7    5   22 1   
     8    5   34 1   
     9    5   35 1   
    10    5   36 1   
    11    6    7 1   
    12    6   18 1   
    13    7   20 1   
    14    8   23 1   
    15    8   24 1   
    16    9   10 1   
    17   10   17 1   
    18   11   12 1   
    19   11   37 1   
    20   12   13 1   
    21   12   15 1   
    22   12   38 1   
    23   13   14 1   
    24   13   39 1   
    25   13   40 1   
    26   14   41 1   
    27   14   42 1   
    28   14   43 1   
    29   15   16 1   
    30   15   44 1   
    31   15   45 1   
    32   16   46 1   
    33   17   47 1   
    34   17   48 1   
    35   18   21 1   
    36   19   49 1   
    37   19   50 1   
    38   19   51 1   
    39   20   21 1   
    40   24   25 1   
    41   24   30 1   
    42   25   26 1   
    43   25   52 1   
    44   26   53 1   
    45   27   28 1   
    46   27   29 1   
    47   29   54 1   
    48   30   55 1   
@<TRIPOS>SUBSTRUCTURE
     1 IMS         1 TEMP              0 ****  ****    0 ROOT
