@<TRIPOS>MOLECULE
IMS
   56    56     1     0     0
SMALL
bcc


@<TRIPOS>ATOM
      1 C2         -0.7100   -0.2890    0.0470 c2        1 IMS     -0.259000
      2 C3          0.5080    0.2780   -0.1050 c2        1 IMS      0.036000
      3 C4          1.4760    0.4800    3.3400 c1        1 IMS     -0.145000
      4 C5          0.3850    0.1040    3.0160 c1        1 IMS     -0.145000
      5 C6          2.3390    0.8650   -1.4700 c3        1 IMS     -0.081000
      6 C7         -2.7610   -0.8860    1.4190 c2        1 IMS     -0.271000
      7 C8         -3.0660   -0.9740    2.7920 c2        1 IMS      0.041000
      8 O2         -5.0160   -0.0320   -1.3350 o         1 IMS     -0.193000
      9 C18        -4.1440   -0.0480   -0.4770 c2        1 IMS      0.258000
     10 N2         -3.4880    1.2730   -0.1940 n4        1 IMS     -0.144000
     11 C19        -4.4870    4.2170   -1.2290 c2        1 IMS     -0.285000
     12 C21        -4.8190    3.9170   -2.4890 c2        1 IMS     -0.111000
     13 C22        -3.9760    4.2280   -3.6590 c3        1 IMS     -0.209000
     14 C20        -5.3910    3.9680   -0.0710 c3        1 IMS     -0.005000
     15 O3         -4.6520    3.4610    1.0340 oh        1 IMS     -0.391000
     16 C17        -3.6480   -1.2330    0.3090 c3        1 IMS     -0.088000
     17 C1         -1.3770   -0.4750    1.2990 c2        1 IMS     -0.047000
     18 C16        -4.3460   -1.3830    3.4050 c3        1 IMS     -0.192000
     19 N          -1.9180   -0.6510    3.5190 n         1 IMS     -0.164000
     20 C          -0.8830   -0.3240    2.6120 c2        1 IMS      0.052000
     21 O           0.9880    0.4030   -1.3860 os        1 IMS     -0.217000
     22 O1         -2.7140    0.1950    5.4940 o         1 IMS     -0.249000
     23 C10        -0.8060   -1.2310    5.6700 c2        1 IMS     -0.191000
     24 C15        -0.0170   -2.3980    5.1010 c3        1 IMS     -0.182000
     25 C14         0.1450   -3.4930    6.0590 c1        1 IMS      0.024000
     26 C13        -0.0860   -3.3300    7.5160 c3        1 IMS     -0.105000
     27 CL         -1.5970   -4.1490    7.8740 cl        1 IMS     -0.014000
     28 C12        -0.0430   -1.8650    7.9220 c2        1 IMS     -0.145000
     29 C11        -0.5650   -1.1170    6.9730 c1        1 IMS     -0.014000
     30 H2         -1.2180   -0.7080   -0.8400 ha        1 IMS      0.135000
     31 H4          1.1340    0.6630    0.7160 h4        1 IMS      0.154000
     32 H5          2.4420    0.8140    3.6320 ha        1 IMS      0.243000
     33 H61         2.4330    1.8780   -1.0100 h1        1 IMS      0.097000
     34 H62         2.5320    0.9060   -2.5720 h1        1 IMS      0.097000
     35 H63         3.0270    0.1390   -0.9740 h1        1 IMS      0.097000
     36 HN2        -3.8450    2.0150   -0.8170 hn        1 IMS      0.273667
     37 H19        -2.4690    1.1800   -0.2950 hn        1 IMS      0.273667
     38 H211       -3.5420    4.7290   -0.9850 ha        1 IMS      0.135000
     39 H212       -5.7830    3.4280   -2.7220 ha        1 IMS      0.135000
     40 H221       -4.4950    4.9860   -4.3020 hc        1 IMS      0.099667
     41 H222       -3.8120    3.3100   -4.2760 hc        1 IMS      0.099667
     42 H223       -2.9820    4.6450   -3.3640 hc        1 IMS      0.099667
     43 H201       -6.1560    3.1740   -0.2950 h1        1 IMS      0.110000
     44 H202       -5.9260    4.9150    0.2120 h1        1 IMS      0.110000
     45 HO3        -4.3030    4.2110    1.5290 ho        1 IMS      0.231000
     46 H171       -4.5600   -1.7890    0.6730 hc        1 IMS      0.161500
     47 H172       -3.1170   -1.9050   -0.4280 hc        1 IMS      0.161500
     48 H161       -4.3250   -2.4800    3.6350 hc        1 IMS      0.115000
     49 H162       -4.5470   -0.8260    4.3560 hc        1 IMS      0.115000
     50 H163       -5.1880   -1.1860    2.6960 hc        1 IMS      0.115000
     51 H15        -0.5360   -2.8110    4.1900 hc        1 IMS      0.169500
     52 H14         1.0180   -2.0950    4.7680 hc        1 IMS      0.169500
     53 H12         0.7160   -3.8770    8.0870 h1        1 IMS      0.181000
     54 H11         0.4930   -1.5600    8.8250 ha        1 IMS      0.191000
     55 C9         -1.8630   -0.5190    4.9550 c2        1 IMS      0.396000
     56 H22        -3.6930    1.5530    0.7790 hn        1 IMS      0.273667
@<TRIPOS>BOND
     1    1    2 1   
     2    1   17 1   
     3    1   30 1   
     4    2   21 1   
     5    2   31 1   
     6    3    4 1   
     7    3   32 1   
     8    4   20 1   
     9    5   21 1   
    10    5   33 1   
    11    5   34 1   
    12    5   35 1   
    13    6    7 1   
    14    6   16 1   
    15    6   17 1   
    16    7   18 1   
    17    7   19 1   
    18    8    9 1   
    19    9   10 1   
    20    9   16 1   
    21   10   36 1   
    22   10   37 1   
    23   10   56 1   
    24   11   12 1   
    25   11   14 1   
    26   11   38 1   
    27   12   13 1   
    28   12   39 1   
    29   13   40 1   
    30   13   41 1   
    31   13   42 1   
    32   14   15 1   
    33   14   43 1   
    34   14   44 1   
    35   15   45 1   
    36   16   46 1   
    37   16   47 1   
    38   17   20 1   
    39   18   48 1   
    40   18   49 1   
    41   18   50 1   
    42   19   20 1   
    43   19   55 1   
    44   22   55 1   
    45   23   24 1   
    46   23   29 1   
    47   23   55 1   
    48   24   25 1   
    49   24   51 1   
    50   24   52 1   
    51   25   26 1   
    52   26   27 1   
    53   26   28 1   
    54   26   53 1   
    55   28   29 1   
    56   28   54 1   
@<TRIPOS>SUBSTRUCTURE
     1 IMS         1 TEMP              0 ****  ****    0 ROOT
