@<TRIPOS>MOLECULE
IMT
   17    17     1     0     0
SMALL
bcc


@<TRIPOS>ATOM
      1 N          -0.1410    0.0100    0.0050 n4        1 IMT     -0.750300
      2 CA          1.3000    0.0070   -0.0010 cc        1 IMT      0.223200
      3 NB1         2.0460    0.1120    1.1960 nc        1 IMT     -0.662000
      4 CB          2.1560   -0.0990   -1.1240 cd        1 IMT     -0.209600
      5 CG1         3.3360    0.0700    0.8080 cd        1 IMT      0.425000
      6 NG2         3.4350   -0.0540   -0.6030 na        1 IMT     -0.153900
      7 CD          4.6410   -0.1110   -1.3700 c3        1 IMT     -0.005400
      8 C           4.6030    0.1460    1.7510 c         1 IMT      0.857100
      9 O           4.5350   -0.5540    2.7730 o         1 IMT     -0.743300
     10 OXT         5.5120    0.8890    1.3240 o         1 IMT     -0.743300
     11 HN2        -0.4840   -0.0940   -0.9510 hn        1 IMT      0.450133
     12 H          -0.4790   -0.7660    0.5870 hn        1 IMT      0.450133
     13 HB          1.9420   -0.1940   -2.1870 h4        1 IMT      0.178000
     14 HD1         5.4940    0.2550   -0.7250 h1        1 IMT      0.078033
     15 HD2         4.5480    0.5420   -2.2770 h1        1 IMT      0.078033
     16 HD3         4.8390   -1.1680   -1.6930 h1        1 IMT      0.078033
     17 HN3        -0.4770    0.8940    0.4050 hn        1 IMT      0.450133
@<TRIPOS>BOND
     1    1    2 1   
     2    1   11 1   
     3    1   12 1   
     4    1   17 1   
     5    2    3 1   
     6    2    4 2   
     7    3    5 2   
     8    4    6 1   
     9    4   13 1   
    10    5    6 1   
    11    5    8 1   
    12    6    7 1   
    13    7   14 1   
    14    7   15 1   
    15    7   16 1   
    16    8    9 1   
    17    8   10 1   
@<TRIPOS>SUBSTRUCTURE
     1 IMT         1 TEMP              0 ****  ****    0 ROOT
