@<TRIPOS>MOLECULE
IMT
   16    16     1     0     0
SMALL
bcc


@<TRIPOS>ATOM
      1 N           2.7030    0.5590   -0.6990 nh        1 IMT     -0.859500
      2 CA          1.9400   -0.6360   -0.7120 cc        1 IMT      0.403200
      3 NB1         2.3860   -1.8990   -1.1780 nc        1 IMT     -0.718000
      4 CB          0.6070   -0.7460   -0.2610 cd        1 IMT     -0.265600
      5 CG1         1.3530   -2.7490   -1.0110 cd        1 IMT      0.406000
      6 NG2         0.2430   -2.0790   -0.4490 na        1 IMT     -0.204900
      7 CD         -1.0150   -2.6430   -0.0990 c3        1 IMT      0.020600
      8 C           1.3170   -4.2520   -1.3650 c         1 IMT      0.843100
      9 O           0.7860   -5.0150   -0.5130 o         1 IMT     -0.802800
     10 OXT         1.7890   -4.5950   -2.4730 o         1 IMT     -0.802800
     11 HN2         3.5370    0.4080   -0.1570 hn        1 IMT      0.339800
     12 H           2.9890    0.7740   -1.6390 hn        1 IMT      0.339800
     13 HB         -0.0660   -0.0040    0.1580 h4        1 IMT      0.156000
     14 HD1        -1.3010   -2.3320    0.9420 h1        1 IMT      0.048700
     15 HD2        -1.8120   -2.2870   -0.8060 h1        1 IMT      0.048700
     16 HD3        -0.9410   -3.7670   -0.1470 h1        1 IMT      0.048700
@<TRIPOS>BOND
     1    1    2 1   
     2    1   11 1   
     3    1   12 1   
     4    2    3 1   
     5    2    4 2   
     6    3    5 2   
     7    4    6 1   
     8    4   13 1   
     9    5    6 1   
    10    5    8 1   
    11    6    7 1   
    12    7   14 1   
    13    7   15 1   
    14    7   16 1   
    15    8    9 1   
    16    8   10 1   
@<TRIPOS>SUBSTRUCTURE
     1 IMT         1 TEMP              0 ****  ****    0 ROOT
