@<TRIPOS>MOLECULE
IMT
   16    13     1     0     0
SMALL
bcc


@<TRIPOS>ATOM
      1 N          -3.0340   -0.0970    0.1600 n3        1 IMT     -0.257000
      2 CA         -1.6140   -0.1200    0.1820 c2        1 IMT     -0.118000
      3 NB1        -0.8430   -0.1370    1.2800 n2        1 IMT     -0.192000
      4 CB         -0.7870   -0.0180   -0.9150 c1        1 IMT     -0.176000
      5 CG1         0.4560   -0.0480    0.8830 c1        1 IMT     -0.035000
      6 NG2         0.4770    0.0260   -0.4780 n2        1 IMT     -0.160000
      7 CD          1.6490    0.1270   -1.2970 c2        1 IMT     -0.078000
      8 C           1.6730    0.0010    1.8000 c1        1 IMT      0.402000
      9 O           2.0760    1.1040    2.2540 o         1 IMT     -0.537500
     10 OXT         2.2590   -1.0640    2.1250 o         1 IMT     -0.537500
     11 HN2        -3.4780   -0.1480   -0.6340 hn        1 IMT      0.135000
     12 H          -3.5080   -0.0710    0.9530 hn        1 IMT      0.135000
     13 HB         -1.0720   -0.0010   -1.8480 DU        1 IMT      0.156000
     14 HD1         1.3870    0.0960   -2.2580 ha        1 IMT      0.088000
     15 HD2         2.2510   -0.6200   -1.0990 ha        1 IMT      0.088000
     16 HD3         2.1060    0.9710   -1.1100 ha        1 IMT      0.088000
@<TRIPOS>BOND
     1    1    2 1   
     2    1   11 1   
     3    1   12 1   
     4    2    3 1   
     5    2    4 1   
     6    3    5 1   
     7    4    6 1   
     8    5    6 1   
     9    7   14 1   
    10    7   15 1   
    11    7   16 1   
    12    8    9 1   
    13    8   10 1   
@<TRIPOS>SUBSTRUCTURE
     1 IMT         1 TEMP              0 ****  ****    0 ROOT
