@<TRIPOS>MOLECULE
IMT
   16    16     1     0     0
SMALL
bcc


@<TRIPOS>ATOM
      1 N          -0.1420   -0.3400   -0.2240 nh        1 IMT     -0.859500
      2 CA          1.2630   -0.1880   -0.1040 cc        1 IMT      0.403200
      3 NB1         1.9870   -0.1060    1.1130 nc        1 IMT     -0.718000
      4 CB          2.1590   -0.0910   -1.1910 cd        1 IMT     -0.265600
      5 CG1         3.2840    0.0340    0.7710 cd        1 IMT      0.406000
      6 NG2         3.4300    0.0450   -0.6340 na        1 IMT     -0.204900
      7 CD          4.6420    0.1440   -1.3720 c3        1 IMT      0.020600
      8 C           4.4890    0.1700    1.7270 c         1 IMT      0.843100
      9 O           5.5170   -0.4990    1.4320 o         1 IMT     -0.802800
     10 OXT         4.3680    0.9480    2.7000 o         1 IMT     -0.802800
     11 HN2        -0.4220   -1.1780    0.2580 hn        1 IMT      0.339800
     12 H          -0.5940    0.4340    0.2320 hn        1 IMT      0.339800
     13 HB          1.9820   -0.1100   -2.2620 h4        1 IMT      0.156000
     14 HD1         4.7130    1.1490   -1.8730 h1        1 IMT      0.048700
     15 HD2         4.6760   -0.6490   -2.1660 h1        1 IMT      0.048700
     16 HD3         5.5130    0.0100   -0.6690 h1        1 IMT      0.048700
@<TRIPOS>BOND
     1    1    2 1   
     2    1   11 1   
     3    1   12 1   
     4    2    3 1   
     5    2    4 2   
     6    3    5 2   
     7    4    6 1   
     8    4   13 1   
     9    5    6 1   
    10    5    8 1   
    11    6    7 1   
    12    7   14 1   
    13    7   15 1   
    14    7   16 1   
    15    8    9 1   
    16    8   10 1   
@<TRIPOS>SUBSTRUCTURE
     1 IMT         1 TEMP              0 ****  ****    0 ROOT
