@<TRIPOS>MOLECULE
IMT
   16    16     1     0     0
SMALL
bcc


@<TRIPOS>ATOM
      1 N          -0.1400   -0.3610   -0.2040 nv        1 IMT     -0.859500
      2 CA          1.2650   -0.2010   -0.0930 cc        1 IMT      0.403200
      3 NB1         2.0000   -0.1450    1.1190 nc        1 IMT     -0.718000
      4 CB          2.1490   -0.0700   -1.1860 cd        1 IMT     -0.265600
      5 CG1         3.2920    0.0130    0.7690 cd        1 IMT      0.406000
      6 NG2         3.4250    0.0620   -0.6370 na        1 IMT     -0.204900
      7 CD          4.6290    0.1890   -1.3840 c3        1 IMT      0.020600
      8 C           4.5060    0.1340    1.7160 c         1 IMT      0.843100
      9 O           5.5350   -0.5190    1.3950 o         1 IMT     -0.802800
     10 OXT         4.3870    0.8860    2.7110 o         1 IMT     -0.802800
     11 HN2        -0.4090   -1.2130    0.2580 hn        1 IMT      0.339800
     12 H          -0.5930    0.3980    0.2770 hn        1 IMT      0.339800
     13 HB          1.9630   -0.0630   -2.2550 h4        1 IMT      0.156000
     14 HD1         4.6880    1.2060   -1.8590 h1        1 IMT      0.048700
     15 HD2         5.5080    0.0430   -0.6920 h1        1 IMT      0.048700
     16 HD3         4.6620   -0.5850   -2.1970 h1        1 IMT      0.048700
@<TRIPOS>BOND
     1    1    2 1   
     2    1   11 1   
     3    1   12 1   
     4    2    3 1   
     5    2    4 2   
     6    3    5 2   
     7    4    6 1   
     8    4   13 1   
     9    5    6 1   
    10    5    8 1   
    11    6    7 1   
    12    7   14 1   
    13    7   15 1   
    14    7   16 1   
    15    8    9 1   
    16    8   10 1   
@<TRIPOS>SUBSTRUCTURE
     1 IMT         1 TEMP              0 ****  ****    0 ROOT
