@<TRIPOS>MOLECULE
IMU
   38    40     1     0     0
SMALL
bcc


@<TRIPOS>ATOM
      1 P          -0.7790    1.4000    3.5270 p5        1 IMU      1.346900
      2 C2          0.0840   -0.3790   -5.0000 cc        1 IMU      0.543800
      3 O1P        -1.8060    1.5990    4.5930 o         1 IMU     -0.927167
      4 O2P        -1.1770    1.7700    2.1090 o         1 IMU     -0.927167
      5 O3P         0.6640    1.7530    3.8060 o         1 IMU     -0.927167
      6 O5'        -0.5740   -0.3130    3.4200 os        1 IMU     -0.577200
      7 C5'        -0.5880   -0.8980    2.1830 c3        1 IMU      0.238400
      8 C4'         0.8500   -1.1660    1.6380 c3        1 IMU      0.081500
      9 N4'         0.8220   -1.7290    0.2740 n3        1 IMU     -0.781200
     10 C3'         1.6980    0.1410    1.6070 c3        1 IMU      0.092100
     11 O3'         2.6960    0.1270    2.6010 oh        1 IMU     -0.675800
     12 C2'         2.3270    0.2030    0.2000 c3        1 IMU      0.104100
     13 O2'         3.6560   -0.2880    0.1200 oh        1 IMU     -0.642800
     14 C1'         1.4080   -0.7370   -0.6470 c3        1 IMU      0.224800
     15 C9          0.3760    0.0790   -1.3380 cc        1 IMU     -0.149300
     16 C8         -0.5090    1.0090   -0.7230 cd        1 IMU     -0.038300
     17 N7         -1.3250    1.5750   -1.6790 na        1 IMU     -0.119100
     18 C5         -1.0090    1.0340   -2.9210 cc        1 IMU     -0.291900
     19 C6         -1.5580    1.2910   -4.2250 c         1 IMU      0.735100
     20 O6         -2.4740    2.0900   -4.5300 o         1 IMU     -0.702500
     21 N1         -0.9730    0.5280   -5.2560 n         1 IMU     -0.482400
     22 N3          0.6000   -0.6250   -3.7930 nd        1 IMU     -0.591100
     23 C4          0.0670    0.0830   -2.7350 cd        1 IMU      0.133400
     24 H5'1       -1.1670   -0.2780    1.4450 h1        1 IMU     -0.002300
     25 H5'2       -1.0890   -1.9090    2.2700 h1        1 IMU     -0.002300
     26 H4'         1.3430   -1.8870    2.3480 h1        1 IMU      0.034700
     27 HN4'        1.4100   -2.5430    0.2540 hn        1 IMU      0.317800
     28 H3'         1.0100    1.0300    1.7730 h1        1 IMU      0.141700
     29 HO3'        2.3130    0.6420    3.3470 ho        1 IMU      0.492000
     30 H2'         2.3320    1.2480   -0.2040 h1        1 IMU      0.049700
     31 HO2'        4.0030   -0.3230    1.0200 ho        1 IMU      0.420000
     32 H1'         2.0320   -1.2610   -1.4260 h1        1 IMU      0.052700
     33 H8         -0.6130    1.3000    0.3680 h4        1 IMU      0.321000
     34 HN7        -2.0480    2.2270   -1.5110 hn        1 IMU      0.315700
     35 HN1        -1.2710    0.6900   -6.1890 hn        1 IMU      0.318500
     36 HN21        1.5650   -1.3130   -6.0160 hn        1 IMU      0.368800
     37 HN22        0.0650   -1.8680   -6.3530 hn        1 IMU      0.368800
     38 N2          0.6120   -1.0460   -6.1740 nh        1 IMU     -0.863800
@<TRIPOS>BOND
     1    1    3 1   
     2    1    4 1   
     3    1    5 1   
     4    1    6 1   
     5    2   21 1   
     6    2   22 2   
     7    2   38 1   
     8    6    7 1   
     9    7    8 1   
    10    7   24 1   
    11    7   25 1   
    12    8    9 1   
    13    8   10 1   
    14    8   26 1   
    15    9   14 1   
    16    9   27 1   
    17   10   11 1   
    18   10   12 1   
    19   10   28 1   
    20   11   29 1   
    21   12   13 1   
    22   12   14 1   
    23   12   30 1   
    24   13   31 1   
    25   14   15 1   
    26   14   32 1   
    27   15   16 2   
    28   15   23 1   
    29   16   17 1   
    30   16   33 1   
    31   17   18 1   
    32   17   34 1   
    33   18   19 1   
    34   18   23 2   
    35   19   20 2   
    36   19   21 1   
    37   21   35 1   
    38   22   23 1   
    39   36   38 1   
    40   37   38 1   
@<TRIPOS>SUBSTRUCTURE
     1 IMU         1 TEMP              0 ****  ****    0 ROOT
