@<TRIPOS>MOLECULE
IMU
   38    38     1     0     0
SMALL
bcc


@<TRIPOS>ATOM
      1 P          -1.0120   -0.9410    0.4300 p5        1 IMU      1.293900
      2 C2         -4.0090   -9.1830   -1.3030 ce        1 IMU      0.803200
      3 O1P        -0.4850   -1.7090   -0.7450 o         1 IMU     -0.895500
      4 O2P        -0.4720   -1.2470    1.7860 o         1 IMU     -0.895500
      5 O3P        -1.5320    0.4330    0.1580 o         1 IMU     -0.895500
      6 O5'        -2.6000   -1.8740    0.4220 os        1 IMU     -0.416500
      7 C5'        -3.2420   -1.6130   -0.6840 c2        1 IMU      0.315100
      8 C4'        -3.9180   -2.5300   -1.4070 cu        1 IMU     -0.560400
      9 N4'        -1.6650   -4.1850   -2.3830 n3        1 IMU     -0.930800
     10 C3'        -4.5110   -2.8330   -2.7010 cx        1 IMU      0.155300
     11 O3'        -3.8240   -2.6030   -3.9000 oh        1 IMU     -0.617800
     12 C2'        -4.0820   -3.9480   -1.7190 cx        1 IMU      0.087000
     13 O2'        -5.1630   -4.6770   -1.1790 oh        1 IMU     -0.613800
     14 C1'        -2.8720   -4.8580   -1.9400 c3        1 IMU      0.242500
     15 C9         -2.5630   -5.6780   -0.6660 c3        1 IMU     -0.189300
     16 C8         -2.9810   -4.9870    0.6250 c2        1 IMU      0.460200
     17 N7         -3.7580   -5.6840    1.4080 ne        1 IMU     -0.562300
     18 C5         -4.0170   -6.9440    0.7570 ce        1 IMU     -0.268100
     19 C6         -4.7980   -7.8740    1.2750 c1        1 IMU      0.567600
     20 O6         -5.4970   -8.7320    1.7220 o         1 IMU     -0.414500
     21 N1         -3.4430  -10.3670   -1.2730 n2        1 IMU     -0.885100
     22 N3         -3.2770   -7.9440   -1.4550 ne        1 IMU     -0.728000
     23 C4         -3.3270   -7.0110   -0.5720 cf        1 IMU      0.572600
     24 H5'1        0.3380   -1.4230    3.8050 ha        1 IMU     -0.001500
     25 H5'2       -3.1930   -0.5530   -1.0300 h4        1 IMU      0.135000
     26 H4'         0.6110   -1.4690    4.4310 ha        1 IMU     -0.001500
     27 HN4'       -1.8600   -3.6780   -3.2230 hn        1 IMU      0.388300
     28 H3'        -1.3170   -3.5340   -1.6890 hn        1 IMU      0.388300
     29 HO3'       -5.5960   -2.7110   -2.8990 h1        1 IMU      0.057700
     30 H2'        -3.0450   -2.0750   -3.6810 ho        1 IMU      0.415000
     31 HO2'       -5.4460   -4.1910   -0.3950 ho        1 IMU      0.405000
     32 H1'        -3.1590   -5.5870   -2.7570 h1        1 IMU      0.054700
     33 H8         -1.4600   -5.9030   -0.6180 hc        1 IMU      0.115700
     34 HN7        -2.6560   -3.9450    0.8470 h4        1 IMU      0.140800
     35 HN1        -2.4480  -10.3520   -1.3350 hn        1 IMU      0.392400
     36 HN21       -5.9160   -9.8900   -0.9910 hn        1 IMU      0.406800
     37 HN22       -5.8130   -8.2200   -1.0790 hn        1 IMU      0.406800
     38 N2         -5.4270   -9.0990   -1.3390 nh        1 IMU     -0.927800
@<TRIPOS>BOND
     1    1    3 1   
     2    1    4 1   
     3    1    5 1   
     4    1    6 1   
     5    2   21 2   
     6    2   22 1   
     7    2   38 1   
     8    6    7 1   
     9    7    8 2   
    10    7   25 1   
    11    8   10 1   
    12    8   12 1   
    13    9   14 1   
    14    9   27 1   
    15    9   28 1   
    16   10   11 1   
    17   10   12 1   
    18   10   29 1   
    19   11   30 1   
    20   12   13 1   
    21   12   14 1   
    22   13   31 1   
    23   14   15 1   
    24   14   32 1   
    25   15   16 1   
    26   15   23 1   
    27   15   33 1   
    28   16   17 2   
    29   16   34 1   
    30   17   18 1   
    31   18   19 2   
    32   18   23 1   
    33   19   20 2   
    34   21   35 1   
    35   22   23 2   
    36   24   26 1   
    37   36   38 1   
    38   37   38 1   
@<TRIPOS>SUBSTRUCTURE
     1 IMU         1 TEMP              0 ****  ****    0 ROOT
