@<TRIPOS>MOLECULE
IMU
   38    38     1     0     0
SMALL
bcc


@<TRIPOS>ATOM
      1 P          -1.0870    0.6730    0.7730 p5        1 IMU      1.425800
      2 C2         -5.5450   -8.6180   -1.5510 ce        1 IMU      0.797200
      3 O1P        -0.2700   -0.0770    1.9740 oh        1 IMU     -0.783400
      4 O2P        -2.4500    1.0020    1.2310 o         1 IMU     -0.840000
      5 O3P        -0.0970    1.6120    0.2050 o         1 IMU     -0.840000
      6 O5'        -1.1820   -0.6150   -0.2580 os        1 IMU     -0.581200
      7 C5'        -1.9560   -1.7060    0.1420 c3        1 IMU      0.240600
      8 C4'        -3.1680   -1.8460   -0.7170 c2        1 IMU     -0.249200
      9 N4'        -1.5640   -4.3520   -2.4050 n8        1 IMU     -0.913800
     10 C3'        -3.7830   -2.9940   -1.0410 c2        1 IMU      0.003900
     11 O3'        -4.9390   -3.0010   -1.8150 oh        1 IMU     -0.538100
     12 C2'        -3.4080   -4.4130   -0.6860 c3        1 IMU      0.164300
     13 O2'        -4.5680   -5.1200   -0.2890 oh        1 IMU     -0.588800
     14 C1'        -2.7120   -5.0940   -1.9050 c3        1 IMU      0.186500
     15 C9         -2.3040   -6.5380   -1.6010 c3        1 IMU     -0.171900
     16 C8         -1.3190   -6.6680   -0.4400 c1        1 IMU      0.046700
     17 N7         -1.6730   -7.5270    0.4550 n1        1 IMU     -1.028500
     18 C5         -2.9720   -8.0900    0.0850 cf        1 IMU      0.089000
     19 C6         -3.6340   -8.9400    0.8380 c1        1 IMU      0.507600
     20 O6         -4.1840   -9.7890    1.4860 o         1 IMU     -0.478500
     21 N1         -6.8110   -8.2880   -1.4470 n2        1 IMU     -0.886100
     22 N3         -4.5050   -7.6860   -1.9110 ne        1 IMU     -0.779000
     23 C4         -3.4520   -7.4900   -1.1940 cf        1 IMU      0.573600
     24 H5'1       -1.3150   -2.6320    0.0640 h1        1 IMU      0.037700
     25 H5'2       -2.2820   -1.5700    1.2150 h1        1 IMU      0.037700
     26 H4'        -3.5740   -0.8870   -1.0820 ha        1 IMU      0.130000
     27 HN4'       -1.7020   -3.3680   -2.2670 hn        1 IMU      0.361800
     28 H3'        -0.7400   -4.6320   -1.9000 hn        1 IMU      0.361800
     29 HO3'       -5.1910   -2.0840   -1.9840 ho        1 IMU      0.402000
     30 H2'        -5.1570   -5.1520   -1.0540 ho        1 IMU      0.403000
     31 HO2'       -2.7320   -4.4370    0.2150 h1        1 IMU      0.112700
     32 H1'        -3.4800   -5.1050   -2.7370 h1        1 IMU      0.045700
     33 H8         -1.8270   -6.9740   -2.5220 hc        1 IMU      0.070700
     34 HN7         0.6690   -0.0380    1.8410 ho        1 IMU      0.422000
     35 HN1        -6.9970   -7.3180   -1.5830 hn        1 IMU      0.390400
     36 HN21       -5.8540  -10.5590   -0.9780 hn        1 IMU      0.385300
     37 HN22       -4.2600  -10.1570   -1.1490 hn        1 IMU      0.385300
     38 N2         -5.1900  -10.0050   -1.4760 nv        1 IMU     -0.904800
@<TRIPOS>BOND
     1    1    3 1   
     2    1    4 1   
     3    1    5 1   
     4    1    6 1   
     5    2   21 2   
     6    2   22 1   
     7    2   38 1   
     8    3   34 1   
     9    6    7 1   
    10    7    8 1   
    11    7   24 1   
    12    7   25 1   
    13    8   10 2   
    14    8   26 1   
    15    9   14 1   
    16    9   27 1   
    17    9   28 1   
    18   10   11 1   
    19   10   12 1   
    20   11   29 1   
    21   12   13 1   
    22   12   14 1   
    23   12   31 1   
    24   13   30 1   
    25   14   15 1   
    26   14   32 1   
    27   15   16 1   
    28   15   23 1   
    29   15   33 1   
    30   16   17 3   
    31   17   18 1   
    32   18   19 2   
    33   18   23 1   
    34   19   20 2   
    35   21   35 1   
    36   22   23 2   
    37   36   38 1   
    38   37   38 1   
@<TRIPOS>SUBSTRUCTURE
     1 IMU         1 TEMP              0 ****  ****    0 ROOT
