@<TRIPOS>MOLECULE
IMU
   38    34     1     0     0
SMALL
bcc


@<TRIPOS>ATOM
      1 P           2.7630    4.1760   -1.5000 p4        1 IMU      1.711200
      2 C2         -2.4420   -0.6290    2.9280 c1        1 IMU      0.581600
      3 O1P         4.1170    3.6550   -0.9450 os        1 IMU     -1.176000
      4 O2P         1.8310    4.7250   -0.2580 o         1 IMU     -0.653000
      5 O3P         3.0140    5.2670   -2.4420 o         1 IMU     -0.701800
      6 O5'         2.0440    3.0490   -2.2060 os        1 IMU     -0.598200
      7 C5'         1.4670    1.9450   -1.3710 c3        1 IMU      0.185400
      8 C4'         1.2690    0.6780   -2.2540 c3        1 IMU      0.085500
      9 N4'         1.5410   -0.6120   -1.4270 n3        1 IMU     -0.785200
     10 C3'         0.0650    0.5880   -2.6190 c3        1 IMU      0.104100
     11 O3'        -0.0150   -0.0280   -3.8950 oh        1 IMU     -0.648800
     12 C2'        -0.6970   -0.3550   -1.4830 c3        1 IMU      0.119100
     13 O2'        -1.9270   -0.9700   -2.0750 oh        1 IMU     -0.612800
     14 C1'         0.1210   -1.2460   -1.1650 c3        1 IMU      0.213700
     15 C9         -0.0410   -1.6150    0.3580 ce        1 IMU     -0.197000
     16 C8          0.9750   -2.5220    0.6690 c1        1 IMU      0.186500
     17 N7          0.8500   -2.8510    1.9480 nf        1 IMU     -0.418400
     18 C5         -0.2400   -2.1620    2.4640 ch        1 IMU     -0.326000
     19 C6         -0.8150   -2.1490    3.7050 c1        1 IMU      0.834900
     20 O6         -0.3330   -2.8810    4.6430 o         1 IMU     -0.734500
     21 N1         -1.9150   -1.3830    3.9350 n2        1 IMU     -0.865800
     22 N2         -3.6820    0.0680    3.0740 n3        1 IMU     -0.861400
     23 N3         -1.8700   -0.6430    1.6990 n1        1 IMU     -0.605800
     24 C4         -0.7700   -1.4100    1.4680 cg        1 IMU      0.089700
     25 H5'1        0.5390    2.2500   -0.9830 h1        1 IMU      0.043200
     26 H5'2        2.0380    1.7530   -0.6830 h1        1 IMU      0.043200
     27 H4'         1.8580    0.7110   -3.0370 h1        1 IMU      0.056700
     28 HN4'        1.9500   -0.3750   -0.5830 hn        1 IMU      0.377800
     29 H3'        -0.3480    1.4930   -2.6470 h1        1 IMU      0.064700
     30 HO3'       -0.3560    0.5650   -4.4910 ho        1 IMU      0.468000
     31 H2'        -0.9510    0.2180   -0.6420 h1        1 IMU      0.083700
     32 HO2'       -2.6140   -0.3360   -2.0900 ho        1 IMU      0.411000
     33 H1'        -0.0030   -2.0330   -1.7220 h1        1 IMU      0.041700
     34 H8          1.6760   -2.7320    0.1340 DU        1 IMU      0.161000
     35 HN7         1.4040   -3.4510    2.4250 DU        1 IMU      0.161000
     36 HN1        -2.3790   -1.4280    4.8180 hn        1 IMU      0.443400
     37 HN21       -4.0040    0.6150    2.3660 hn        1 IMU      0.358800
     38 HN22       -4.1200    0.0580    3.8830 hn        1 IMU      0.358800
@<TRIPOS>BOND
     1    1    4 1   
     2    1    5 2   
     3    1    6 1   
     4    2   22 1   
     5    2   23 3   
     6    6    7 1   
     7    7    8 1   
     8    7   25 1   
     9    7   26 1   
    10    8    9 1   
    11    8   10 1   
    12    8   27 1   
    13    9   14 1   
    14    9   28 1   
    15   10   11 1   
    16   10   12 1   
    17   10   29 1   
    18   11   30 1   
    19   12   13 1   
    20   12   14 1   
    21   12   31 1   
    22   13   32 1   
    23   14   15 1   
    24   14   33 1   
    25   15   16 2   
    26   15   24 1   
    27   16   17 2   
    28   17   18 1   
    29   18   24 3   
    30   19   20 2   
    31   19   21 2   
    32   21   36 1   
    33   22   37 1   
    34   22   38 1   
@<TRIPOS>SUBSTRUCTURE
     1 IMU         1 TEMP              0 ****  ****    0 ROOT
