@<TRIPOS>MOLECULE
IMV
   35    38     1     0     0
SMALL
bcc


@<TRIPOS>ATOM
      1 O1         -0.1490   -1.0310   -1.2300 o         1 IMV     -0.815300
      2 C2          0.8200   -0.4150   -0.7010 c         1 IMV      0.921200
      3 O3          0.8240    0.0380    0.4720 o         1 IMV     -0.815300
      4 C4          2.0900   -0.2460   -1.5290 ca        1 IMV     -0.064600
      5 C5          3.0020   -1.3090   -1.7320 ca        1 IMV     -0.107300
      6 C6          2.6950   -2.6530   -1.1270 c3        1 IMV      0.143300
      7 N7          2.7370   -3.7700   -2.0350 n         1 IMV     -0.359000
      8 C8          3.8700   -4.5570   -2.3110 c         1 IMV      0.691500
      9 O9          4.9570   -4.4850   -1.7190 o         1 IMV     -0.634500
     10 C10         3.5290   -5.5490   -3.4400 c3        1 IMV     -0.104100
     11 C11         2.1250   -5.1790   -3.7940 ca        1 IMV     -0.162300
     12 C12         1.2690   -5.6940   -4.7460 ca        1 IMV     -0.101000
     13 C13        -0.0120   -5.1410   -4.8680 ca        1 IMV     -0.178000
     14 C14        -0.4130   -4.0870   -4.0500 ca        1 IMV     -0.102000
     15 C15         0.4340   -3.5440   -3.0780 ca        1 IMV     -0.138000
     16 C16         1.7070   -4.1010   -2.9460 ca        1 IMV      0.059600
     17 C17         4.1930   -1.1390   -2.4410 ca        1 IMV     -0.132000
     18 C18         4.5500    0.0880   -3.0210 ca        1 IMV     -0.146000
     19 C19         3.6530    1.1220   -2.8420 ca        1 IMV      0.039100
     20 O20         3.7440    2.4350   -3.3040 os        1 IMV     -0.356900
     21 C21         2.5580    3.1150   -2.8390 c3        1 IMV      0.318200
     22 O22         1.7590    2.1740   -2.1010 os        1 IMV     -0.312900
     23 C23         2.4500    0.9590   -2.1090 ca        1 IMV      0.061100
     24 H6          3.4570   -2.8590   -0.3180 h1        1 IMV      0.089700
     25 H6A         1.6620   -2.6290   -0.6640 h1        1 IMV      0.089700
     26 H10         3.6160   -6.5950   -3.0590 hc        1 IMV      0.078200
     27 H10A        4.2380   -5.4070   -4.2910 hc        1 IMV      0.078200
     28 H12         1.5830   -6.5200   -5.3970 ha        1 IMV      0.118000
     29 H13        -0.7030   -5.5420   -5.6220 ha        1 IMV      0.116000
     30 H14        -1.4210   -3.6580   -4.1650 ha        1 IMV      0.133000
     31 H15         0.1080   -2.6900   -2.4450 ha        1 IMV      0.227000
     32 H17         4.8830   -1.9920   -2.5450 ha        1 IMV      0.133000
     33 H18         5.4830    0.2150   -3.5780 ha        1 IMV      0.132000
     34 H21         2.8680    3.9430   -2.1550 h2        1 IMV      0.050700
     35 H21A        1.9760    3.4630   -3.7280 h2        1 IMV      0.050700
@<TRIPOS>BOND
     1    1    2 1   
     2    2    3 1   
     3    2    4 1   
     4    4    5 ar  
     5    4   23 ar  
     6    5    6 1   
     7    5   17 ar  
     8    6    7 1   
     9    6   24 1   
    10    6   25 1   
    11    7    8 1   
    12    7   16 1   
    13    8    9 2   
    14    8   10 1   
    15   10   11 1   
    16   10   26 1   
    17   10   27 1   
    18   11   12 ar  
    19   11   16 ar  
    20   12   13 ar  
    21   12   28 1   
    22   13   14 ar  
    23   13   29 1   
    24   14   15 ar  
    25   14   30 1   
    26   15   16 ar  
    27   15   31 1   
    28   17   18 ar  
    29   17   32 1   
    30   18   19 ar  
    31   18   33 1   
    32   19   20 1   
    33   19   23 ar  
    34   20   21 1   
    35   21   22 1   
    36   21   34 1   
    37   21   35 1   
    38   22   23 1   
@<TRIPOS>SUBSTRUCTURE
     1 IMV         1 TEMP              0 ****  ****    0 ROOT
