@<TRIPOS>MOLECULE
IMV
   35    38     1     0     0
SMALL
bcc


@<TRIPOS>ATOM
      1 O1         -0.1670   -1.0220   -1.2580 o         1 IMV     -0.815300
      2 C2          0.7970   -0.4020   -0.7250 c         1 IMV      0.921200
      3 O3          0.7910    0.0590    0.4450 o         1 IMV     -0.815300
      4 C4          2.0730   -0.2350   -1.5440 ca        1 IMV     -0.064600
      5 C5          2.9890   -1.2980   -1.7310 ca        1 IMV     -0.107300
      6 C6          2.6800   -2.6390   -1.1190 c3        1 IMV      0.143300
      7 N7          2.7310   -3.7610   -2.0200 n         1 IMV     -0.359000
      8 C8          3.8690   -4.5480   -2.2800 c         1 IMV      0.691500
      9 O9          4.9510   -4.4700   -1.6810 o         1 IMV     -0.634500
     10 C10         3.5380   -5.5490   -3.4050 c3        1 IMV     -0.104100
     11 C11         2.1360   -5.1850   -3.7730 ca        1 IMV     -0.162300
     12 C12         1.2880   -5.7080   -4.7280 ca        1 IMV     -0.101000
     13 C13         0.0080   -5.1580   -4.8650 ca        1 IMV     -0.178000
     14 C14        -0.4020   -4.0990   -4.0570 ca        1 IMV     -0.102000
     15 C15         0.4360   -3.5480   -3.0820 ca        1 IMV     -0.138000
     16 C16         1.7100   -4.1010   -2.9370 ca        1 IMV      0.059600
     17 C17         4.1860   -1.1310   -2.4320 ca        1 IMV     -0.132000
     18 C18         4.5450    0.0930   -3.0180 ca        1 IMV     -0.146000
     19 C19         3.6440    1.1260   -2.8530 ca        1 IMV      0.039100
     20 O20         3.7370    2.4360   -3.3240 os        1 IMV     -0.356900
     21 C21         2.5460    3.1170   -2.8730 c3        1 IMV      0.319200
     22 O22         1.7430    2.1800   -2.1350 os        1 IMV     -0.312900
     23 C23         2.4360    0.9660   -2.1290 ca        1 IMV      0.061100
     24 H6          3.4360   -2.8370   -0.3030 h1        1 IMV      0.089700
     25 H6A         1.6430   -2.6140   -0.6650 h1        1 IMV      0.089700
     26 H10         3.6240   -6.5920   -3.0160 hc        1 IMV      0.078200
     27 H10A        4.2540   -5.4120   -4.2520 hc        1 IMV      0.078200
     28 H12         1.6100   -6.5390   -5.3710 ha        1 IMV      0.118000
     29 H13        -0.6770   -5.5670   -5.6210 ha        1 IMV      0.116000
     30 H14        -1.4090   -3.6740   -4.1830 ha        1 IMV      0.133000
     31 H15         0.1030   -2.6900   -2.4580 ha        1 IMV      0.227000
     32 H17         4.8790   -1.9830   -2.5240 ha        1 IMV      0.133000
     33 H18         5.4830    0.2180   -3.5680 ha        1 IMV      0.132000
     34 H21         2.8480    3.9510   -2.1930 h2        1 IMV      0.050700
     35 H21A        1.9710    3.4580   -3.7700 h2        1 IMV      0.050700
@<TRIPOS>BOND
     1    1    2 1   
     2    2    3 1   
     3    2    4 1   
     4    4    5 ar  
     5    4   23 ar  
     6    5    6 1   
     7    5   17 ar  
     8    6    7 1   
     9    6   24 1   
    10    6   25 1   
    11    7    8 1   
    12    7   16 1   
    13    8    9 2   
    14    8   10 1   
    15   10   11 1   
    16   10   26 1   
    17   10   27 1   
    18   11   12 ar  
    19   11   16 ar  
    20   12   13 ar  
    21   12   28 1   
    22   13   14 ar  
    23   13   29 1   
    24   14   15 ar  
    25   14   30 1   
    26   15   16 ar  
    27   15   31 1   
    28   17   18 ar  
    29   17   32 1   
    30   18   19 ar  
    31   18   33 1   
    32   19   20 1   
    33   19   23 ar  
    34   20   21 1   
    35   21   22 1   
    36   21   34 1   
    37   21   35 1   
    38   22   23 1   
@<TRIPOS>SUBSTRUCTURE
     1 IMV         1 TEMP              0 ****  ****    0 ROOT
