@<TRIPOS>MOLECULE
IMV
   35    38     1     0     0
SMALL
bcc


@<TRIPOS>ATOM
      1 O1         -0.1850   -1.0420   -1.2740 o         1 IMV     -0.815300
      2 C2          0.7720   -0.4300   -0.7200 c         1 IMV      0.921200
      3 O3          0.7520    0.0140    0.4560 o         1 IMV     -0.815300
      4 C4          2.0590   -0.2520   -1.5210 ca        1 IMV     -0.064600
      5 C5          2.9770   -1.3130   -1.7120 ca        1 IMV     -0.107300
      6 C6          2.6600   -2.6620   -1.1230 c3        1 IMV      0.143300
      7 N7          2.7220   -3.7710   -2.0390 n         1 IMV     -0.359000
      8 C8          3.8620   -4.5540   -2.2960 c         1 IMV      0.691500
      9 O9          4.9370   -4.4850   -1.6830 o         1 IMV     -0.634500
     10 C10         3.5460   -5.5390   -3.4390 c3        1 IMV     -0.104100
     11 C11         2.1490   -5.1700   -3.8190 ca        1 IMV     -0.162300
     12 C12         1.3120   -5.6800   -4.7910 ca        1 IMV     -0.101000
     13 C13         0.0330   -5.1280   -4.9360 ca        1 IMV     -0.178000
     14 C14        -0.3860   -4.0800   -4.1180 ca        1 IMV     -0.102000
     15 C15         0.4400   -3.5430   -3.1260 ca        1 IMV     -0.138000
     16 C16         1.7120   -4.0980   -2.9720 ca        1 IMV      0.059600
     17 C17         4.1830   -1.1360   -2.3950 ca        1 IMV     -0.132000
     18 C18         4.5490    0.0970   -2.9580 ca        1 IMV     -0.146000
     19 C19         3.6470    1.1270   -2.7910 ca        1 IMV      0.039100
     20 O20         3.7460    2.4440   -3.2410 os        1 IMV     -0.356900
     21 C21         2.5490    3.1190   -2.7960 c3        1 IMV      0.319200
     22 O22         1.7360    2.1710   -2.0820 os        1 IMV     -0.312900
     23 C23         2.4300    0.9570   -2.0840 ca        1 IMV      0.061100
     24 H6          1.6180   -2.6420   -0.6810 h1        1 IMV      0.089700
     25 H6A         3.4050   -2.8720   -0.3000 h1        1 IMV      0.089700
     26 H10         3.6270   -6.5880   -3.0630 hc        1 IMV      0.078200
     27 H10A        4.2710   -5.3900   -4.2750 hc        1 IMV      0.078200
     28 H12         1.6410   -6.5010   -5.4420 ha        1 IMV      0.118000
     29 H13        -0.6420   -5.5260   -5.7050 ha        1 IMV      0.116000
     30 H14        -1.3920   -3.6530   -4.2510 ha        1 IMV      0.133000
     31 H15         0.1000   -2.6940   -2.4930 ha        1 IMV      0.227000
     32 H17         4.8760   -1.9870   -2.4900 ha        1 IMV      0.133000
     33 H18         5.4940    0.2280   -3.4950 ha        1 IMV      0.132000
     34 H21         2.8430    3.9420   -2.0990 h2        1 IMV      0.050700
     35 H21A        1.9860    3.4730   -3.6950 h2        1 IMV      0.050700
@<TRIPOS>BOND
     1    1    2 1   
     2    2    3 1   
     3    2    4 1   
     4    4    5 ar  
     5    4   23 ar  
     6    5    6 1   
     7    5   17 ar  
     8    6    7 1   
     9    6   24 1   
    10    6   25 1   
    11    7    8 1   
    12    7   16 1   
    13    8    9 2   
    14    8   10 1   
    15   10   11 1   
    16   10   26 1   
    17   10   27 1   
    18   11   12 ar  
    19   11   16 ar  
    20   12   13 ar  
    21   12   28 1   
    22   13   14 ar  
    23   13   29 1   
    24   14   15 ar  
    25   14   30 1   
    26   15   16 ar  
    27   15   31 1   
    28   17   18 ar  
    29   17   32 1   
    30   18   19 ar  
    31   18   33 1   
    32   19   20 1   
    33   19   23 ar  
    34   20   21 1   
    35   21   22 1   
    36   21   34 1   
    37   21   35 1   
    38   22   23 1   
@<TRIPOS>SUBSTRUCTURE
     1 IMV         1 TEMP              0 ****  ****    0 ROOT
