@<TRIPOS>MOLECULE
IMV
   35    38     1     0     0
SMALL
bcc


@<TRIPOS>ATOM
      1 O1         -0.7610    1.6470    2.0920 o         1 IMV     -0.815300
      2 C2         -1.6000    1.6390    1.1460 c         1 IMV      0.921200
      3 O3         -2.3970    2.5760    0.8880 o         1 IMV     -0.815300
      4 C4         -1.6180    0.4220    0.2260 ca        1 IMV     -0.064600
      5 C5         -0.6350    0.2190   -0.7720 ca        1 IMV     -0.107300
      6 C6          0.4730    1.2280   -0.9140 c3        1 IMV      0.143300
      7 N7          1.8100    0.6910   -0.9010 n         1 IMV     -0.359000
      8 C8          2.5330    0.2760   -2.0340 c         1 IMV      0.691500
      9 O9          2.1790    0.4300   -3.2110 o         1 IMV     -0.634500
     10 C10         3.8570   -0.3670   -1.5750 c3        1 IMV     -0.104100
     11 C11         3.7510   -0.3190   -0.0850 ca        1 IMV     -0.162300
     12 C12         4.6160   -0.7570    0.8970 ca        1 IMV     -0.101000
     13 C13         4.2510   -0.5900    2.2390 ca        1 IMV     -0.178000
     14 C14         3.0360    0.0010    2.5780 ca        1 IMV     -0.102000
     15 C15         2.1390    0.4540    1.6050 ca        1 IMV     -0.138000
     16 C16         2.5040    0.2980    0.2660 ca        1 IMV      0.059600
     17 C17        -0.6850   -0.8640   -1.6530 ca        1 IMV     -0.132000
     18 C18        -1.6960   -1.8350   -1.5880 ca        1 IMV     -0.146000
     19 C19        -2.6450   -1.6510   -0.6020 ca        1 IMV      0.039100
     20 O20        -3.7490   -2.4510   -0.3070 os        1 IMV     -0.356900
     21 C21        -4.4260   -1.8180    0.8010 c3        1 IMV      0.318200
     22 O22        -3.6940   -0.6330    1.1590 os        1 IMV     -0.312900
     23 C23        -2.6080   -0.5450    0.2830 ca        1 IMV      0.061100
     24 H6          0.3430    1.7610   -1.9010 h1        1 IMV      0.089700
     25 H6A         0.4020    1.9840   -0.0730 h1        1 IMV      0.089700
     26 H10         3.9240   -1.4100   -1.9660 hc        1 IMV      0.078200
     27 H10A        4.7180    0.2290   -1.9640 hc        1 IMV      0.078200
     28 H12         5.5720   -1.2300    0.6340 ha        1 IMV      0.118000
     29 H13         4.9320   -0.9340    3.0300 ha        1 IMV      0.116000
     30 H14         2.7610    0.1180    3.6380 ha        1 IMV      0.133000
     31 H15         1.1640    0.9060    1.8890 ha        1 IMV      0.227000
     32 H17         0.0890   -0.9590   -2.4320 ha        1 IMV      0.133000
     33 H18        -1.7280   -2.6830   -2.2790 ha        1 IMV      0.132000
     34 H21        -5.4530   -1.5240    0.4690 h2        1 IMV      0.050700
     35 H21A       -4.4220   -2.5220    1.6690 h2        1 IMV      0.050700
@<TRIPOS>BOND
     1    1    2 1   
     2    2    3 1   
     3    2    4 1   
     4    4    5 ar  
     5    4   23 ar  
     6    5    6 1   
     7    5   17 ar  
     8    6    7 1   
     9    6   24 1   
    10    6   25 1   
    11    7    8 1   
    12    7   16 1   
    13    8    9 2   
    14    8   10 1   
    15   10   11 1   
    16   10   26 1   
    17   10   27 1   
    18   11   12 ar  
    19   11   16 ar  
    20   12   13 ar  
    21   12   28 1   
    22   13   14 ar  
    23   13   29 1   
    24   14   15 ar  
    25   14   30 1   
    26   15   16 ar  
    27   15   31 1   
    28   17   18 ar  
    29   17   32 1   
    30   18   19 ar  
    31   18   33 1   
    32   19   20 1   
    33   19   23 ar  
    34   20   21 1   
    35   21   22 1   
    36   21   34 1   
    37   21   35 1   
    38   22   23 1   
@<TRIPOS>SUBSTRUCTURE
     1 IMV         1 TEMP              0 ****  ****    0 ROOT
