@<TRIPOS>MOLECULE
IMW
   24    24     1     0     0
SMALL
bcc


@<TRIPOS>ATOM
      1 CAA         1.9830   -0.5280    0.0200 cc        1 IMW     -0.118400
      2 CAB         1.0010   -1.4440    0.0640 cd        1 IMW     -0.206200
      3 CAC        -0.4340   -1.0920    0.0500 c         1 IMW      0.553500
      4 CAD        -0.7580    0.3580   -0.0150 cc        1 IMW     -0.110400
      5 CAE         0.2280    1.2720   -0.0590 cd        1 IMW     -0.204200
      6 CAF         1.6600    0.9210   -0.0460 c         1 IMW      0.546500
      7 CAG         3.4190   -0.8830    0.0330 c3        1 IMW     -0.066900
      8 CAH        -2.1960    0.7810   -0.0320 c3        1 IMW     -0.027500
      9 CAI        -2.9110    0.2390   -1.2550 c3        1 IMW     -0.095100
     10 OAJ         2.5390    1.7900   -0.0870 o         1 IMW     -0.498100
     11 OAK        -1.2960   -1.9780    0.0930 o         1 IMW     -0.500100
     12 CAL        -2.9070    0.3530    1.2380 c3        1 IMW     -0.095100
     13 HAB         1.2180   -2.5240    0.1130 ha        1 IMW      0.159000
     14 HAE         0.0140    2.3530   -0.1080 ha        1 IMW      0.158000
     15 HAG         3.9140   -0.4900   -0.8910 hc        1 IMW      0.060033
     16 HAGA        3.9170   -0.4070    0.9150 hc        1 IMW      0.060033
     17 HAGB        3.5690   -1.9890    0.0840 hc        1 IMW      0.060033
     18 HAH        -2.2300    1.9090   -0.0840 hc        1 IMW      0.051700
     19 HAI        -3.9620    0.6150   -1.2730 hc        1 IMW      0.045367
     20 HAIA       -2.3980    0.5710   -2.1890 hc        1 IMW      0.045367
     21 HAIB       -2.9330   -0.8780   -1.2340 hc        1 IMW      0.045367
     22 HAL        -2.3900    0.7690    2.1350 hc        1 IMW      0.045367
     23 HALA       -3.9580    0.7300    1.2250 hc        1 IMW      0.045367
     24 HALB       -2.9280   -0.7610    1.3190 hc        1 IMW      0.045367
@<TRIPOS>BOND
     1    1    2 2   
     2    1    6 1   
     3    1    7 1   
     4    2    3 1   
     5    2   13 1   
     6    3    4 1   
     7    3   11 2   
     8    4    5 2   
     9    4    8 1   
    10    5    6 1   
    11    5   14 1   
    12    6   10 2   
    13    7   15 1   
    14    7   16 1   
    15    7   17 1   
    16    8    9 1   
    17    8   12 1   
    18    8   18 1   
    19    9   19 1   
    20    9   20 1   
    21    9   21 1   
    22   12   22 1   
    23   12   23 1   
    24   12   24 1   
@<TRIPOS>SUBSTRUCTURE
     1 IMW         1 TEMP              0 ****  ****    0 ROOT
