@<TRIPOS>MOLECULE
IMW
   24    24     1     0     0
SMALL
bcc


@<TRIPOS>ATOM
      1 CAA         0.0270   -0.0030   -0.0290 cc        1 IMW     -0.118400
      2 CAB         1.3690   -0.0070    0.0000 cd        1 IMW     -0.206200
      3 CAC         2.1510   -0.0050    1.2540 c         1 IMW      0.553500
      4 CAD         1.3690    0.0030    2.5200 cc        1 IMW     -0.110400
      5 CAE         0.0250    0.0070    2.4860 cd        1 IMW     -0.204200
      6 CAF        -0.7550    0.0040    1.2340 c         1 IMW      0.546500
      7 CAG        -0.7530   -0.0060   -1.2860 c3        1 IMW     -0.066900
      8 CAH         2.1030    0.0070    3.8270 c3        1 IMW     -0.027500
      9 CAI         2.9480   -1.2430    3.9820 c3        1 IMW     -0.095100
     10 OAJ        -1.9920    0.0070    1.2440 o         1 IMW     -0.498100
     11 OAK         3.3870   -0.0090    1.2220 o         1 IMW     -0.500100
     12 CAL         2.9560    1.2520    3.9710 c3        1 IMW     -0.095100
     13 HAB         1.9700   -0.0130   -0.9250 ha        1 IMW      0.159000
     14 HAE        -0.5790    0.0130    3.4100 ha        1 IMW      0.158000
     15 HAG        -1.4080    0.9020   -1.3270 hc        1 IMW      0.060033
     16 HAGA       -1.4170   -0.9070   -1.3170 hc        1 IMW      0.060033
     17 HAGB       -0.0880   -0.0130   -2.1830 hc        1 IMW      0.060033
     18 HAH         1.3380    0.0130    4.6590 hc        1 IMW      0.051700
     19 HAI         2.3150   -2.1580    3.8950 hc        1 IMW      0.045367
     20 HAIA        3.7440   -1.2790    3.1980 hc        1 IMW      0.045367
     21 HAIB        3.4380   -1.2420    4.9860 hc        1 IMW      0.045367
     22 HAL         3.4460    1.2580    4.9750 hc        1 IMW      0.045367
     23 HALA        3.7520    1.2760    3.1870 hc        1 IMW      0.045367
     24 HALB        2.3290    2.1700    3.8760 hc        1 IMW      0.045367
@<TRIPOS>BOND
     1    1    2 2   
     2    1    6 1   
     3    1    7 1   
     4    2    3 1   
     5    2   13 1   
     6    3    4 1   
     7    3   11 2   
     8    4    5 2   
     9    4    8 1   
    10    5    6 1   
    11    5   14 1   
    12    6   10 2   
    13    7   15 1   
    14    7   16 1   
    15    7   17 1   
    16    8    9 1   
    17    8   12 1   
    18    8   18 1   
    19    9   19 1   
    20    9   20 1   
    21    9   21 1   
    22   12   22 1   
    23   12   23 1   
    24   12   24 1   
@<TRIPOS>SUBSTRUCTURE
     1 IMW         1 TEMP              0 ****  ****    0 ROOT
