@<TRIPOS>MOLECULE
IMX
   42    35     1     0     0
SMALL
bcc


@<TRIPOS>ATOM
      1 C1          0.7290    1.2060    0.7800 c3        1 IMX      0.022000
      2 C2         -2.0450   -1.3130   -4.0170 c1        1 IMX     -0.047000
      3 C3         -1.6230   -2.4730   -3.4160 c1        1 IMX     -0.047000
      4 C4         -2.6020   -1.3560   -5.3090 c1        1 IMX     -0.111000
      5 C5         -1.7470   -3.6940   -4.0870 c1        1 IMX     -0.111000
      6 C6         -2.7240   -2.5840   -5.9790 c1        1 IMX      0.032000
      7 C7         -2.3050   -3.7350   -5.3800 c1        1 IMX     -0.164000
      8 N8         -1.0820   -2.1450   -2.1690 n1        1 IMX     -0.148000
      9 C9         -1.1750   -0.7870   -2.0100 c1        1 IMX     -0.062000
     10 C10        -1.7720   -0.2590   -3.1540 c1        1 IMX     -0.177000
     11 F11        -3.5530   -2.8350   -7.0530 f         1 IMX     -0.134000
     12 C12        -0.7090    0.3590   -1.0930 c1        1 IMX      0.359000
     13 O13        -1.0410    1.4930   -1.3300 o         1 IMX     -0.370000
     14 N14         0.2000    0.0920   -0.0270 n3        1 IMX     -0.342000
     15 C15         2.2220    1.1590    0.7830 c3        1 IMX     -0.131000
     16 C16         2.6800    1.0740    2.2290 c2        1 IMX     -0.078000
     17 C17         1.5130    0.9810    3.0600 c2        1 IMX     -0.055000
     18 C18         0.2720    1.0870    2.1510 c3        1 IMX     -0.077000
     19 C19         3.9320    1.1180    2.8020 c1        1 IMX     -0.128000
     20 C20         4.0650    1.0720    4.1970 c1        1 IMX     -0.144000
     21 C21         2.9120    0.9800    5.0140 c1        1 IMX     -0.144000
     22 C22         1.6470    0.9350    4.4340 c1        1 IMX     -0.121000
     23 C23        -0.5590    2.3480    2.5340 c3        1 IMX     -0.204000
     24 C24        -1.7500    1.9280    3.4580 c2        1 IMX      0.309000
     25 O26        -1.8680    2.4390    4.5820 o         1 IMX     -0.588500
     26 O25        -2.6580    1.1810    3.0110 o         1 IMX     -0.588500
     27 H1          0.4260    2.0540    0.4070 h1        1 IMX      0.107000
     28 H4         -2.9890   -0.5680   -5.6880 ha        1 IMX      0.142500
     29 H5         -1.4140   -4.4710   -3.7010 ha        1 IMX      0.142500
     30 H7         -2.3920   -4.5990   -5.8540 ha        1 IMX      0.131000
     31 HN8        -0.7280   -2.7310   -1.5690 DU        1 IMX      0.243500
     32 H10        -1.8740    0.6710   -3.3550 DU        1 IMX      0.243500
     33 HN14        0.4540   -0.8210    0.1760 hn        1 IMX      0.258000
     34 H15         2.5190    0.3590    0.3060 hc        1 IMX      0.098500
     35 H15A        2.5840    2.0090    0.3660 hc        1 IMX      0.098500
     36 H18        -0.2610    0.3140    2.2450 hc        1 IMX      0.131000
     37 H19         4.7200    1.1190    2.2410 ha        1 IMX      0.123000
     38 H20         4.9610    1.0760    4.6060 ha        1 IMX      0.116000
     39 H21         3.0040    0.9290    5.9800 ha        1 IMX      0.116000
     40 H22         0.9420    0.6340    5.1280 ha        1 IMX      0.135000
     41 H23         0.0070    2.9780    3.0040 hc        1 IMX      0.082000
     42 H23A       -0.9180    2.7790    1.7000 hc        1 IMX      0.082000
@<TRIPOS>BOND
     1    1   14 1   
     2    1   15 1   
     3    1   18 1   
     4    1   27 1   
     5    2    4 1   
     6    3    5 1   
     7    4   28 1   
     8    5   29 1   
     9    6    7 1   
    10    6   11 1   
    11    7   30 1   
    12    8    9 1   
    13    9   10 1   
    14   12   13 1   
    15   12   14 1   
    16   14   33 1   
    17   15   16 1   
    18   15   34 1   
    19   15   35 1   
    20   16   17 1   
    21   16   19 1   
    22   17   18 1   
    23   17   22 1   
    24   18   23 1   
    25   18   36 1   
    26   19   37 1   
    27   20   21 1   
    28   20   38 1   
    29   21   39 1   
    30   22   40 1   
    31   23   24 1   
    32   23   41 1   
    33   23   42 1   
    34   24   25 1   
    35   24   26 1   
@<TRIPOS>SUBSTRUCTURE
     1 IMX         1 TEMP              0 ****  ****    0 ROOT
