@<TRIPOS>MOLECULE
IMX
   43    43     1     0     0
SMALL
bcc


@<TRIPOS>ATOM
      1 C1         -1.9650    0.8130    3.9300 cu        1 IMX     -0.109000
      2 C2         -1.9420   -5.7670   -0.9870 c2        1 IMX     -0.190000
      3 C3         -3.1100   -5.7360   -1.7740 c2        1 IMX      0.157000
      4 C4         -1.5630   -6.9540   -0.3060 c2        1 IMX      0.021000
      5 C5         -3.9450   -6.9890   -1.8750 c3        1 IMX     -0.189000
      6 C6         -2.3240   -8.1140   -0.3900 c2        1 IMX     -0.064000
      7 C7         -3.5060   -8.1700   -1.1550 c1        1 IMX     -0.117000
      8 N8         -3.5050   -4.6260   -2.4380 n8        1 IMX     -0.334000
      9 C9         -0.4660   -3.6370   -0.7740 c1        1 IMX     -0.230000
     10 C10        -1.1380   -4.6250   -0.8660 c1        1 IMX     -0.019000
     11 C12         0.2850   -2.4170   -0.7140 c2        1 IMX      0.428000
     12 O13        -0.0780   -1.3880   -1.3270 o         1 IMX     -0.380000
     13 N14         1.4350   -2.4150    0.0360 nt        1 IMX     -0.425000
     14 C15         2.3570    0.9170   -1.0470 c3        1 IMX     -0.220000
     15 C16         2.6150    0.8270    0.4010 c2        1 IMX     -0.107000
     16 C17         0.5730    0.6220    3.3540 c1        1 IMX     -0.111000
     17 C18        -0.7740    0.8320    3.3530 cu        1 IMX     -0.043000
     18 C19         3.6650    0.1790    0.9320 c2        1 IMX     -0.196000
     19 C20         3.9710    0.0750    2.3380 c2        1 IMX     -0.070000
     20 C21         3.1370    0.1920    3.3890 c2        1 IMX     -0.097000
     21 C22         1.7600    0.4260    3.3440 c1        1 IMX     -0.051000
     22 C23        -1.9330    1.2640    2.5090 cx        1 IMX     -0.148000
     23 C24        -2.1570    2.6900    2.1590 c2        1 IMX      0.307000
     24 O26        -3.2030    3.1740    1.7260 o         1 IMX     -0.296000
     25 O25        -1.1450    3.6000    2.2840 oh        1 IMX     -0.286000
     26 H1         -2.6090    0.6290    4.7660 ha        1 IMX      0.208000
     27 H7         -4.0320   -7.2930   -2.9610 hc        1 IMX      0.167000
     28 HN8        -4.3310   -4.6350   -2.9840 hn        1 IMX      0.245000
     29 H10        -2.9720   -3.7880   -2.3900 hn        1 IMX      0.245000
     30 HN14        1.7030   -3.2050    0.5620 hn        1 IMX      0.234500
     31 H15         1.4130    0.3610   -1.2980 hc        1 IMX      0.101000
     32 H15A        3.1920    0.4860   -1.6520 hc        1 IMX      0.101000
     33 H18         2.2180    1.9870   -1.3450 hc        1 IMX      0.101000
     34 H19         1.8770    1.3370    1.0450 ha        1 IMX      0.130000
     35 H20         4.4050   -0.3030    0.2670 ha        1 IMX      0.129000
     36 H21         5.0370   -0.1370    2.5520 ha        1 IMX      0.131000
     37 H22         3.5420    0.0840    4.4160 ha        1 IMX      0.146000
     38 H23        -0.3490    3.1610    2.6170 ho        1 IMX      0.228000
     39 H23A       -2.3200    0.6010    1.7040 hc        1 IMX      0.152000
     40 F11        -1.9120   -9.2220    0.2840 f         1 IMX     -0.102000
     41 H4         -0.6400   -6.9330    0.2990 ha        1 IMX      0.149000
     42 H142        1.9510   -1.5710    0.1300 hn        1 IMX      0.234500
     43 H5         -4.9950   -6.7680   -1.5140 hc        1 IMX      0.167000
@<TRIPOS>BOND
     1    1   17 1   
     2    1   22 1   
     3    1   26 1   
     4    2    3 1   
     5    2    4 1   
     6    2   10 1   
     7    3    5 1   
     8    3    8 1   
     9    4    6 1   
    10    4   41 1   
    11    5    7 1   
    12    5   27 1   
    13    5   43 1   
    14    6    7 1   
    15    6   40 1   
    16    8   28 1   
    17    8   29 1   
    18    9   10 1   
    19    9   11 1   
    20   11   12 1   
    21   11   13 1   
    22   13   30 1   
    23   13   42 1   
    24   14   15 1   
    25   14   31 1   
    26   14   32 1   
    27   14   33 1   
    28   15   18 1   
    29   15   34 1   
    30   16   17 1   
    31   16   21 1   
    32   17   22 1   
    33   18   19 1   
    34   18   35 1   
    35   19   20 1   
    36   19   36 1   
    37   20   21 1   
    38   20   37 1   
    39   22   23 1   
    40   22   39 1   
    41   23   24 1   
    42   23   25 1   
    43   25   38 1   
@<TRIPOS>SUBSTRUCTURE
     1 IMX         1 TEMP              0 ****  ****    0 ROOT
