@<TRIPOS>MOLECULE
IMX
   43    43     1     0     0
SMALL
bcc


@<TRIPOS>ATOM
      1 C1         -1.4870   -0.8580    1.4440 c2        1 IMX     -0.052000
      2 C2         -1.4210   -5.7510   -2.5110 c2        1 IMX     -0.196000
      3 C3         -1.8760   -5.5680   -1.1900 c2        1 IMX      0.153000
      4 C4         -1.2780   -7.0580   -3.0490 c2        1 IMX      0.028000
      5 C5         -2.2120   -6.7890   -0.3680 c3        1 IMX     -0.186000
      6 C6         -1.5780   -8.1900   -2.2990 c2        1 IMX     -0.067000
      7 C7         -2.0400   -8.0980   -0.9730 c1        1 IMX     -0.124000
      8 N8         -2.0220   -4.3460   -0.6350 n3        1 IMX     -0.322000
      9 C9         -0.8230   -3.7210   -4.0270 c1        1 IMX     -0.269000
     10 C10        -1.1000   -4.6560   -3.3230 c1        1 IMX     -0.014000
     11 C12        -0.5010   -2.6110   -4.8490 c2        1 IMX      0.295000
     12 O13        -0.0820   -2.7000   -6.0050 o         1 IMX     -0.269000
     13 N14        -2.2790   -1.6370    0.8090 n2        1 IMX     -0.273000
     14 C15        -0.0320   -1.1740    1.6510 c3        1 IMX     -0.137000
     15 C16         0.5270   -0.4480    2.8630 c3        1 IMX     -0.043000
     16 C17         0.7760    1.0360    2.6430 c2        1 IMX     -0.072000
     17 C18         0.3510    1.7640    1.4800 c2        1 IMX     -0.066000
     18 C19         1.8470   -1.0790    3.2890 c2        1 IMX     -0.153000
     19 C20         2.7960   -0.4120    3.9800 c2        1 IMX     -0.135000
     20 C21         2.4540    0.9500    4.4410 c2        1 IMX     -0.065000
     21 C22         1.5770    1.4950    3.6120 c1        1 IMX     -0.149000
     22 C23         0.4260    3.0900    1.2880 c2        1 IMX     -0.208000
     23 C24         0.9470    4.1140    2.2060 c2        1 IMX      0.335000
     24 O26         1.7350    5.0120    1.9080 o         1 IMX     -0.294000
     25 O25         0.4900    4.1950    3.4920 oh        1 IMX     -0.282000
     26 H1         -1.7930    0.1170    1.8900 h4        1 IMX      0.102000
     27 H7         -3.2930   -6.7310   -0.0410 hc        1 IMX      0.162500
     28 HN8        -2.3360   -4.2490    0.3000 hn        1 IMX      0.246000
     29 H10        -1.8050   -3.5220   -1.1460 hn        1 IMX      0.246000
     30 HN14       -0.6590   -1.6200   -4.3620 h4        1 IMX      0.097000
     31 H15         0.1070   -2.2810    1.7990 hc        1 IMX      0.115500
     32 H15A        0.5410   -0.8950    0.7270 hc        1 IMX      0.115500
     33 H18        -0.0690    1.1510    0.6590 ha        1 IMX      0.136000
     34 H19        -0.1880   -0.5920    3.7260 hc        1 IMX      0.119000
     35 H20         1.9660   -2.1410    3.0300 ha        1 IMX      0.143000
     36 H21         3.7510   -0.8540    4.2870 ha        1 IMX      0.154000
     37 H22         2.8290    1.3380    5.3910 ha        1 IMX      0.173000
     38 H23        -0.0040    3.3920    3.7130 ho        1 IMX      0.226000
     39 H23A        0.1000    3.5230    0.3240 ha        1 IMX      0.162000
     40 F11        -1.4190   -9.4160   -2.8670 f         1 IMX     -0.102000
     41 H4         -0.9180   -7.1540   -4.0880 ha        1 IMX      0.156000
     42 H142       -3.2210   -1.3150    0.7250 hn        1 IMX      0.151000
     43 H5         -1.5860   -6.7890    0.5750 hc        1 IMX      0.162500
@<TRIPOS>BOND
     1    1   13 1   
     2    1   14 1   
     3    1   26 1   
     4    2    3 1   
     5    2    4 1   
     6    2   10 1   
     7    3    5 1   
     8    3    8 1   
     9    4    6 1   
    10    4   41 1   
    11    5    7 1   
    12    5   27 1   
    13    5   43 1   
    14    6    7 1   
    15    6   40 1   
    16    8   28 1   
    17    8   29 1   
    18    9   10 1   
    19    9   11 1   
    20   11   12 1   
    21   11   30 1   
    22   13   42 1   
    23   14   15 1   
    24   14   31 1   
    25   14   32 1   
    26   15   16 1   
    27   15   18 1   
    28   15   34 1   
    29   16   17 1   
    30   16   21 1   
    31   17   22 1   
    32   17   33 1   
    33   18   19 1   
    34   18   35 1   
    35   19   20 1   
    36   19   36 1   
    37   20   21 1   
    38   20   37 1   
    39   22   23 1   
    40   22   39 1   
    41   23   24 1   
    42   23   25 1   
    43   25   38 1   
@<TRIPOS>SUBSTRUCTURE
     1 IMX         1 TEMP              0 ****  ****    0 ROOT
