@<TRIPOS>MOLECULE
IMX
   42    45     1     0     0
SMALL
bcc


@<TRIPOS>ATOM
      1 C1          1.5680    0.4710    1.0440 c3        1 IMX      0.098700
      2 C2         -4.2730   -0.5470    0.1700 ca        1 IMX     -0.100800
      3 C3         -3.4610   -0.7820   -1.0110 ca        1 IMX     -0.050200
      4 C4         -5.6640   -0.6450    0.0880 ca        1 IMX     -0.121000
      5 C5         -4.0610   -1.1170   -2.2420 ca        1 IMX     -0.101000
      6 C6         -6.2330   -0.9750   -1.1410 ca        1 IMX      0.066900
      7 C7         -5.4350   -1.2090   -2.2970 ca        1 IMX     -0.164000
      8 N8         -2.1270   -0.6140   -0.6730 na        1 IMX     -0.125400
      9 C9         -2.0680   -0.2930    0.6860 cc        1 IMX     -0.108300
     10 C10        -3.3580   -0.2430    1.2340 cd        1 IMX     -0.165200
     11 C12        -0.7860   -0.0820    1.4130 c         1 IMX      0.684300
     12 O13        -0.6180   -0.5550    2.5550 o         1 IMX     -0.609100
     13 N14         0.1660    0.7180    0.7960 n         1 IMX     -0.532900
     14 C15         2.2310    1.3970    2.1060 c3        1 IMX     -0.045100
     15 C16         3.6420    1.5210    1.6370 ca        1 IMX     -0.085300
     16 C17         3.7760    1.0580    0.3020 ca        1 IMX     -0.062300
     17 C18         2.4480    0.6410   -0.2440 c3        1 IMX     -0.030400
     18 C19         4.7410    2.0010    2.3280 ca        1 IMX     -0.128000
     19 C20         5.9880    2.0190    1.6880 ca        1 IMX     -0.147000
     20 C21         6.1210    1.5620    0.3810 ca        1 IMX     -0.141000
     21 C22         5.0110    1.0770   -0.3240 ca        1 IMX     -0.121000
     22 C23         2.4210   -0.5970   -1.1100 c3        1 IMX     -0.175400
     23 C24         1.0110   -0.8070   -1.6660 c         1 IMX      0.889600
     24 O26         0.5030   -1.9630   -1.6690 o         1 IMX     -0.853800
     25 O25         0.3410    0.2030   -2.0630 o         1 IMX     -0.853800
     26 H1          1.6920   -0.5900    1.4170 h1        1 IMX      0.067700
     27 H5         -3.4390   -1.3000   -3.1300 ha        1 IMX      0.150000
     28 H7         -5.9410   -1.4680   -3.2380 ha        1 IMX      0.131000
     29 HN8        -1.3370   -0.7490   -1.2890 hn        1 IMX      0.381700
     30 H10        -3.6070   -0.0260    2.2670 ha        1 IMX      0.155000
     31 HN14       -0.0320    1.0030   -0.1500 hn        1 IMX      0.344500
     32 H15         1.7410    2.4030    2.1420 hc        1 IMX      0.059200
     33 H15A        2.1600    0.9380    3.1210 hc        1 IMX      0.059200
     34 H18         2.0490    1.4950   -0.8680 hc        1 IMX      0.091700
     35 H19         4.6430    2.3580    3.3620 ha        1 IMX      0.123000
     36 H20         6.8670    2.3970    2.2290 ha        1 IMX      0.115000
     37 H21         7.1060    1.5780   -0.1080 ha        1 IMX      0.117000
     38 H22         5.1200    0.7150   -1.3560 ha        1 IMX      0.135000
     39 H23         3.1280   -0.4730   -1.9680 hc        1 IMX      0.042700
     40 H23A        2.7300   -1.5020   -0.5310 hc        1 IMX      0.042700
     41 F11        -7.5850   -1.0780   -1.2550 f         1 IMX     -0.168900
     42 H4         -6.2930   -0.4700    0.9700 ha        1 IMX      0.135000
@<TRIPOS>BOND
     1    1   13 1   
     2    1   14 1   
     3    1   17 1   
     4    1   26 1   
     5    2    3 ar  
     6    2    4 ar  
     7    2   10 1   
     8    3    5 ar  
     9    3    8 1   
    10    4    6 ar  
    11    4   42 1   
    12    5    7 ar  
    13    5   27 1   
    14    6    7 ar  
    15    6   41 1   
    16    7   28 1   
    17    8    9 1   
    18    8   29 1   
    19    9   10 2   
    20    9   11 1   
    21   10   30 1   
    22   11   12 2   
    23   11   13 1   
    24   13   31 1   
    25   14   15 1   
    26   14   32 1   
    27   14   33 1   
    28   15   16 ar  
    29   15   18 ar  
    30   16   17 1   
    31   16   21 ar  
    32   17   22 1   
    33   17   34 1   
    34   18   19 ar  
    35   18   35 1   
    36   19   20 ar  
    37   19   36 1   
    38   20   21 ar  
    39   20   37 1   
    40   21   38 1   
    41   22   23 1   
    42   22   39 1   
    43   22   40 1   
    44   23   24 1   
    45   23   25 1   
@<TRIPOS>SUBSTRUCTURE
     1 IMX         1 TEMP              0 ****  ****    0 ROOT
