@<TRIPOS>MOLECULE
IMY
   71    76     1     0     0
SMALL
bcc


@<TRIPOS>ATOM
      1 C1          0.0510   -1.4820   -0.0700 c3        1 IMY      0.150000
      2 N2          1.4460   -0.9100   -0.0380 n         1 IMY     -0.319000
      3 C3          1.7820   -0.6850    1.3880 c3        1 IMY      0.051000
      4 C4          0.4190   -0.8880    2.0960 c2        1 IMY     -0.007000
      5 N5         -0.5180   -1.3090    1.2980 n2        1 IMY     -0.122000
      6 C13         2.8270   -1.6410    1.8890 c2        1 IMY     -0.176000
      7 C14         4.1410   -1.4240    1.5650 c2        1 IMY      0.009000
      8 C15         5.1760   -2.2940    2.0530 c2        1 IMY     -0.189000
      9 C16         4.8570   -3.3610    2.8270 c2        1 IMY     -0.056000
     10 C17         3.4460   -3.6650    3.1770 c3        1 IMY     -0.197000
     11 C18         2.4250   -2.7610    2.6620 c1        1 IMY     -0.077000
     12 CL16        6.0540   -4.3980    3.4340 cl        1 IMY     -0.013000
     13 C20        -0.4040   -1.4890    4.3570 ca        1 IMY     -0.092500
     14 C21        -0.5400   -1.2150    5.7170 ca        1 IMY     -0.134500
     15 C22         0.0020   -0.0390    6.2420 ca        1 IMY     -0.058000
     16 C23         0.6800    0.8630    5.4160 ca        1 IMY     -0.134500
     17 C24         0.8160    0.5820    4.0590 ca        1 IMY     -0.092500
     18 C19         0.2790   -0.5950    3.5220 ca        1 IMY     -0.012000
     19 CL22       -0.1630    0.3000    7.9020 cl        1 IMY     -0.025000
     20 C28        -0.5220   -2.2370   -3.1090 cu        1 IMY      0.031000
     21 C29        -1.4870   -1.9630   -1.9940 c3        1 IMY      0.214000
     22 C34        -0.8220   -0.9920   -1.1530 c2        1 IMY     -0.528000
     23 C25        -0.9060    0.4410   -1.4200 c3        1 IMY     -0.074000
     24 C26         0.6800   -1.6810   -3.5890 cu        1 IMY     -0.062000
     25 C27        -0.1420   -2.3590   -4.4660 cu        1 IMY      0.063000
     26 C31        -3.1410   -3.3900   -0.9970 c3        1 IMY      0.040000
     27 C32        -3.3010   -4.8690   -0.6880 c3        1 IMY     -0.228000
     28 C33        -3.4800   -2.5320    0.2050 c3        1 IMY     -0.228000
     29 O2         -0.2870   -2.7320   -5.7270 os        1 IMY     -0.125000
     30 C30        -1.4430   -3.5580   -5.9940 c3        1 IMY     -0.083000
     31 C2          2.0130   -0.0250   -0.9560 c2        1 IMY      0.380000
     32 O1          3.0970    0.5370   -0.6700 o         1 IMY     -0.382000
     33 N1          1.4900    0.2280   -2.2790 n         1 IMY     -0.285000
     34 C5          1.7790   -0.7640   -3.2840 c3        1 IMY      0.035000
     35 C6          2.5640    3.3390   -2.8050 c3        1 IMY     -0.130000
     36 N3          1.1810    3.1220   -3.1380 n3        1 IMY     -0.309000
     37 C7          0.4000    2.4610   -2.1150 c3        1 IMY     -0.066000
     38 C8          0.2210    0.9350   -2.3670 c3        1 IMY     -0.005000
     39 H3          0.1970   -2.6060   -0.1940 h2        1 IMY      0.128000
     40 H4          2.1520    0.3700    1.5440 h1        1 IMY      0.114000
     41 H14         4.4360   -0.5760    0.9180 ha        1 IMY      0.170000
     42 H15         6.2170   -2.0610    1.7800 ha        1 IMY      0.151000
     43 H17         3.1760   -4.7030    2.8140 hc        1 IMY      0.172000
     44 H18         3.3230   -3.6910    4.3020 hc        1 IMY      0.172000
     45 H20        -0.8230   -2.4160    3.9360 ha        1 IMY      0.147500
     46 H21        -1.0740   -1.9220    6.3690 ha        1 IMY      0.145500
     47 H23         1.1020    1.7900    5.8320 ha        1 IMY      0.145500
     48 H24         1.3460    1.2950    3.4090 ha        1 IMY      0.147500
     49 H28        -2.4140   -1.5390   -2.4890 h1        1 IMY      0.100000
     50 H25        -1.8840    0.7150   -1.9010 hc        1 IMY      0.074500
     51 H26        -0.8420    1.0130   -0.4550 hc        1 IMY      0.074500
     52 H31        -3.8060   -3.1100   -1.8640 h1        1 IMY      0.053000
     53 H321       -3.0910   -5.4810   -1.5960 hc        1 IMY      0.086833
     54 H322       -4.3440   -5.0630   -0.3450 hc        1 IMY      0.086833
     55 H323       -2.5880   -5.1730    0.1160 hc        1 IMY      0.086833
     56 H331       -4.5730   -2.5900    0.4160 hc        1 IMY      0.086833
     57 H332       -2.9140   -2.8810    1.1020 hc        1 IMY      0.086833
     58 H333       -3.1900   -1.4700    0.0110 hc        1 IMY      0.086833
     59 H30        -1.4010   -4.4840   -5.3740 h1        1 IMY      0.108667
     60 H301       -1.3320   -3.7870   -7.0830 h1        1 IMY      0.108667
     61 H302       -2.3740   -2.9780   -5.7910 h1        1 IMY      0.108667
     62 H51         2.0400   -0.2020   -4.2340 h1        1 IMY      0.132000
     63 H52         2.6880   -1.3610   -2.9740 h1        1 IMY      0.132000
     64 H61         3.0290    2.3830   -2.4430 h1        1 IMY      0.075333
     65 H62         2.7130    4.1180   -2.0050 h1        1 IMY      0.075333
     66 HN3         3.0990    3.6790   -3.7310 h1        1 IMY      0.075333
     67 H71         0.7480    3.9900   -3.3920 hn        1 IMY      0.147000
     68 H72        -0.6410    2.8940   -2.1040 h1        1 IMY      0.075000
     69 H81         0.8420    2.6020   -1.0870 h1        1 IMY      0.075000
     70 H82        -0.1460    0.8060   -3.4300 h1        1 IMY      0.083000
     71 O3         -1.7720   -3.2300   -1.3920 os        1 IMY     -0.278000
@<TRIPOS>BOND
     1    1    2 1   
     2    1    5 1   
     3    1   22 1   
     4    1   39 1   
     5    2    3 1   
     6    2   31 1   
     7    3    4 1   
     8    3    6 1   
     9    3   40 1   
    10    4    5 1   
    11    4   18 1   
    12    6    7 1   
    13    6   11 1   
    14    7    8 1   
    15    7   41 1   
    16    8    9 1   
    17    8   42 1   
    18    9   10 1   
    19    9   12 1   
    20   10   11 1   
    21   10   43 1   
    22   10   44 1   
    23   13   14 1   
    24   13   18 1   
    25   13   45 1   
    26   14   15 1   
    27   14   46 1   
    28   15   16 1   
    29   15   19 1   
    30   16   17 1   
    31   16   47 1   
    32   17   18 1   
    33   17   48 1   
    34   20   21 1   
    35   20   24 1   
    36   20   25 1   
    37   21   22 1   
    38   21   49 1   
    39   21   71 1   
    40   22   23 1   
    41   23   38 1   
    42   23   50 1   
    43   23   51 1   
    44   24   25 1   
    45   24   34 1   
    46   25   29 1   
    47   26   27 1   
    48   26   28 1   
    49   26   52 1   
    50   26   71 1   
    51   27   53 1   
    52   27   54 1   
    53   27   55 1   
    54   28   56 1   
    55   28   57 1   
    56   28   58 1   
    57   29   30 1   
    58   30   59 1   
    59   30   60 1   
    60   30   61 1   
    61   31   32 1   
    62   31   33 1   
    63   33   34 1   
    64   33   38 1   
    65   34   62 1   
    66   34   63 1   
    67   35   36 1   
    68   35   64 1   
    69   35   65 1   
    70   35   66 1   
    71   36   37 1   
    72   36   67 1   
    73   37   38 1   
    74   37   68 1   
    75   37   69 1   
    76   38   70 1   
@<TRIPOS>SUBSTRUCTURE
     1 IMY         1 TEMP              0 ****  ****    0 ROOT
