@<TRIPOS>MOLECULE
IMY
   71    75     1     0     0
SMALL
bcc


@<TRIPOS>ATOM
      1 C1          4.1340   -0.7300    2.7790 ce        1 IMY      0.539500
      2 N2          3.6400   -1.4860    1.6710 n         1 IMY     -0.420300
      3 C3          4.5540   -1.2730    0.5290 c3        1 IMY      0.136000
      4 C4          5.4760   -0.0850    1.0580 c3        1 IMY      0.147800
      5 N5          5.1480    0.0560    2.4860 n2        1 IMY     -0.608900
      6 C13         5.3170   -2.4920    0.1020 ca        1 IMY     -0.077300
      7 C14         5.5160   -2.7140   -1.2670 ca        1 IMY     -0.098500
      8 C15         6.2180   -3.8330   -1.7090 ca        1 IMY     -0.128000
      9 C16         6.7160   -4.7460   -0.7750 ca        1 IMY      0.025400
     10 C17         6.5120   -4.5430    0.5920 ca        1 IMY     -0.128000
     11 C18         5.8130   -3.4180    1.0260 ca        1 IMY     -0.098500
     12 CL16        7.5710   -6.1170   -1.3080 cl        1 IMY     -0.099400
     13 C20         7.8080   -0.8960    1.6480 ca        1 IMY     -0.102000
     14 C21         9.1670   -0.9940    1.3530 ca        1 IMY     -0.126500
     15 C22         9.6600   -0.4390    0.1700 ca        1 IMY      0.022400
     16 C23         8.8000    0.2160   -0.7170 ca        1 IMY     -0.126500
     17 C24         7.4460    0.3140   -0.4120 ca        1 IMY     -0.102000
     18 C19         6.9360   -0.2460    0.7680 ca        1 IMY     -0.062300
     19 CL22       11.3170   -0.5570   -0.1940 cl        1 IMY     -0.096400
     20 C28         3.1590   -2.1190    6.1770 ca        1 IMY     -0.264000
     21 C29         3.6810   -2.0420    4.8750 ca        1 IMY      0.203100
     22 C34         3.5840   -0.8450    4.1410 ca        1 IMY     -0.179900
     23 C25         3.0030    0.2830    4.7360 ca        1 IMY     -0.048000
     24 C26         2.5020    0.2310    6.0280 ca        1 IMY     -0.187000
     25 C27         2.5750   -0.9820    6.7420 ca        1 IMY      0.166100
     26 C31         5.1490   -3.9340    5.0050 c3        1 IMY      0.142100
     27 C32         5.2130   -5.2720    4.2900 c3        1 IMY     -0.113600
     28 C33         6.5020   -3.2510    5.0500 c3        1 IMY     -0.113600
     29 O2          2.0340   -0.9370    8.0090 os        1 IMY     -0.322900
     30 C30         2.0550   -2.1500    8.7530 c3        1 IMY      0.111700
     31 C2          2.4280   -2.1610    1.4940 c         1 IMY      0.757100
     32 O1          2.2510   -2.8040    0.4350 o         1 IMY     -0.607100
     33 N1          1.4380   -2.1390    2.5480 n         1 IMY     -0.392800
     34 C5          0.5090   -3.2630    2.4900 c3        1 IMY      0.055000
     35 C6         -0.6750   -3.0780    1.5190 c3        1 IMY      0.126300
     36 N3         -1.3450   -1.8020    1.6870 n3        1 IMY     -0.818200
     37 C7         -0.4400   -0.6700    1.7110 c3        1 IMY      0.126300
     38 C8          0.7350   -0.8720    2.6920 c3        1 IMY      0.055000
     39 H3          3.9420   -0.9050   -0.3440 h1        1 IMY      0.076700
     40 H4          5.1250    0.8610    0.5460 h1        1 IMY      0.073700
     41 H14         5.1110   -2.0050   -2.0060 ha        1 IMY      0.144000
     42 H15         6.3720   -3.9970   -2.7860 ha        1 IMY      0.144500
     43 H17         6.8970   -5.2680    1.3260 ha        1 IMY      0.144500
     44 H18         5.6460   -3.2660    2.1060 ha        1 IMY      0.144000
     45 H20         7.4280   -1.3390    2.5820 ha        1 IMY      0.139500
     46 H21         9.8450   -1.5060    2.0530 ha        1 IMY      0.146500
     47 H23         9.1890    0.6540   -1.6480 ha        1 IMY      0.146500
     48 H24         6.7730    0.8390   -1.1070 ha        1 IMY      0.139500
     49 H28         3.1980   -3.0650    6.7310 ha        1 IMY      0.148000
     50 H25         2.9580    1.2280    4.1710 ha        1 IMY      0.147000
     51 H26         2.0510    1.1130    6.5030 ha        1 IMY      0.156000
     52 H31         4.7590   -4.0800    6.0480 h1        1 IMY      0.044700
     53 H321        5.9140   -5.9450    4.8380 hc        1 IMY      0.050200
     54 H322        4.2000   -5.7390    4.2570 hc        1 IMY      0.050200
     55 H323        5.5740   -5.1400    3.2410 hc        1 IMY      0.050200
     56 H331        7.2250   -3.8860    5.6130 hc        1 IMY      0.050200
     57 H332        6.4170   -2.2580    5.5540 hc        1 IMY      0.050200
     58 H333        6.8910   -3.0880    4.0160 hc        1 IMY      0.050200
     59 H30         3.1060   -2.4830    8.9340 h1        1 IMY      0.047367
     60 H301        1.4750   -2.9460    8.2270 h1        1 IMY      0.047367
     61 H302        1.5580   -1.8710    9.7170 h1        1 IMY      0.047367
     62 H51         0.1190   -3.3910    3.5390 h1        1 IMY      0.068700
     63 H52         1.0670   -4.1920    2.1910 h1        1 IMY      0.068700
     64 H61        -0.2870   -3.2240    0.4680 h1        1 IMY      0.041700
     65 H62        -1.4310   -3.8850    1.7290 h1        1 IMY      0.041700
     66 HN3        -2.0280   -1.6770    0.9630 hn        1 IMY      0.364800
     67 H71        -1.0280    0.2280    2.0500 h1        1 IMY      0.041700
     68 H72        -0.0150   -0.4380    0.6900 h1        1 IMY      0.041700
     69 H81         1.4540   -0.0160    2.5710 h1        1 IMY      0.068700
     70 H82         0.3390   -0.8510    3.7480 h1        1 IMY      0.068700
     71 O3          4.2230   -3.1380    4.2330 os        1 IMY     -0.334900
@<TRIPOS>BOND
     1    1    2 1   
     2    1    5 2   
     3    1   22 1   
     4    2    3 1   
     5    2   31 1   
     6    3    4 1   
     7    3    6 1   
     8    3   39 1   
     9    4    5 1   
    10    4   18 1   
    11    4   40 1   
    12    6    7 ar  
    13    6   11 ar  
    14    7    8 ar  
    15    7   41 1   
    16    8    9 ar  
    17    8   42 1   
    18    9   10 ar  
    19    9   12 1   
    20   10   11 ar  
    21   10   43 1   
    22   11   44 1   
    23   13   14 ar  
    24   13   18 ar  
    25   13   45 1   
    26   14   15 ar  
    27   14   46 1   
    28   15   16 ar  
    29   15   19 1   
    30   16   17 ar  
    31   16   47 1   
    32   17   18 ar  
    33   17   48 1   
    34   20   21 ar  
    35   20   25 ar  
    36   20   49 1   
    37   21   22 ar  
    38   21   71 1   
    39   22   23 ar  
    40   23   24 ar  
    41   23   50 1   
    42   24   25 ar  
    43   24   51 1   
    44   25   29 1   
    45   26   27 1   
    46   26   28 1   
    47   26   52 1   
    48   26   71 1   
    49   27   53 1   
    50   27   54 1   
    51   27   55 1   
    52   28   56 1   
    53   28   57 1   
    54   28   58 1   
    55   29   30 1   
    56   30   59 1   
    57   30   60 1   
    58   30   61 1   
    59   31   32 2   
    60   31   33 1   
    61   33   34 1   
    62   33   38 1   
    63   34   35 1   
    64   34   62 1   
    65   34   63 1   
    66   35   36 1   
    67   35   64 1   
    68   35   65 1   
    69   36   37 1   
    70   36   66 1   
    71   37   38 1   
    72   37   67 1   
    73   37   68 1   
    74   38   69 1   
    75   38   70 1   
@<TRIPOS>SUBSTRUCTURE
     1 IMY         1 TEMP              0 ****  ****    0 ROOT
