@<TRIPOS>MOLECULE
IMY
   71    67     1     0     0
SMALL
bcc


@<TRIPOS>ATOM
      1 C1         -0.9140   -0.4620    0.1860 c1        1 IMY      0.149000
      2 N2          0.4530   -0.3660    0.1720 n2        1 IMY     -0.304000
      3 C3          0.8440   -0.2760    1.5950 c3        1 IMY      0.030000
      4 C4         -0.5270   -0.3280    2.4010 c3        1 IMY     -0.022000
      5 N5         -1.4400   -0.4390    1.3530 n2        1 IMY     -0.187000
      6 C13         1.5270    0.9490    1.8480 c2        1 IMY     -0.094000
      7 C14         2.4890    1.0130    2.8410 c2        1 IMY     -0.106000
      8 C15         3.1630    2.2270    3.0930 c1        1 IMY     -0.127000
      9 C16         2.8600    3.3580    2.3440 c1        1 IMY     -0.054500
     10 C17         1.8900    3.2920    1.3440 c1        1 IMY     -0.123000
     11 C18         1.2230    2.0880    1.0940 c1        1 IMY     -0.098000
     12 CL16        3.7910    4.8330    2.5680 cl        1 IMY     -0.017000
     13 C20        -1.6020    1.9000    2.9260 c1        1 IMY     -0.092000
     14 C21        -1.8800    2.9470    3.7940 c1        1 IMY     -0.123000
     15 C22        -1.3170    2.9610    5.0800 c1        1 IMY     -0.054500
     16 C23        -0.4880    1.9340    5.4810 c1        1 IMY     -0.120000
     17 C24        -0.2090    0.8800    4.6070 c1        1 IMY     -0.120000
     18 C19        -0.7670    0.8660    3.3290 c1        1 IMY     -0.059000
     19 CL22       -1.5660    4.3600    6.1410 cl        1 IMY     -0.017000
     20 C28        -3.2320   -0.5980   -2.8890 c1        1 IMY     -0.282000
     21 C29        -2.5680   -0.9570   -1.7160 c1        1 IMY      0.147000
     22 C34        -1.7480   -0.0250   -1.0600 c2        1 IMY     -0.106000
     23 C25        -1.6010    1.2480   -1.5770 c2        1 IMY     -0.019000
     24 C26        -2.2610    1.6040   -2.7400 c1        1 IMY     -0.189000
     25 C27        -3.0850    0.6650   -3.4000 c1        1 IMY      0.125000
     26 O3         -2.8300   -2.2060   -1.1160 os        1 IMY     -0.215000
     27 C31        -3.3490   -3.1790   -2.0180 c3        1 IMY      0.032000
     28 C32        -2.2380   -4.1090   -2.4490 c3        1 IMY     -0.231000
     29 C33        -4.4840   -4.0100   -1.3000 c3        1 IMY     -0.231000
     30 O2         -3.5370    1.5960   -4.3960 os        1 IMY     -0.205000
     31 C30        -3.8990    0.9830   -5.6480 c3        1 IMY     -0.077000
     32 C2          1.3390   -0.3570   -1.0080 c2        1 IMY      0.389000
     33 O1          0.8570   -0.4410   -2.1420 o         1 IMY     -0.368000
     34 N1          2.7350   -0.3230   -0.8400 n         1 IMY     -0.265000
     35 C5          3.6520   -0.3740   -1.9310 c3        1 IMY     -0.045000
     36 C6          4.7170   -1.4460   -1.7380 c3        1 IMY     -0.109000
     37 N3          5.3700   -1.3440   -0.4510 n3        1 IMY     -0.299000
     38 C7          4.4330   -1.2970    0.6350 c3        1 IMY     -0.109000
     39 C8          3.3610   -0.2210    0.4290 c3        1 IMY     -0.045000
     40 H3          1.4140   -1.0440    1.8430 h1        1 IMY      0.109000
     41 H4         -0.5700   -1.0630    3.0040 h1        1 IMY      0.119000
     42 H14         2.6900    0.2620    3.3370 ha        1 IMY      0.133000
     43 H15         3.8190    2.2710    3.7690 ha        1 IMY      0.147000
     44 H17         1.6740    4.0950    0.8120 ha        1 IMY      0.149000
     45 H18         0.5500    2.0430    0.4000 ha        1 IMY      0.156000
     46 H20        -1.9850    1.8910    2.0480 ha        1 IMY      0.145000
     47 H21        -2.4700    3.6790    3.5080 ha        1 IMY      0.149000
     48 H23        -0.0990    1.9430    6.3700 ha        1 IMY      0.139500
     49 H24         0.3760    0.1560    4.8910 ha        1 IMY      0.139500
     50 H28        -3.8100   -1.2540   -3.3510 ha        1 IMY      0.145000
     51 H25        -1.0230    1.9060   -1.1150 ha        1 IMY      0.152000
     52 H26        -2.1580    2.4910   -3.1000 ha        1 IMY      0.157000
     53 H31        -3.7280   -2.7210   -2.8200 h1        1 IMY      0.079000
     54 H321       -2.5590   -4.6910   -3.1460 hc        1 IMY      0.089667
     55 H322       -1.9530   -4.6340   -1.7000 hc        1 IMY      0.089667
     56 H323       -1.4610   -3.5670   -2.7950 hc        1 IMY      0.089667
     57 H331       -4.1420   -4.3700   -0.4660 hc        1 IMY      0.089667
     58 H332       -4.7600   -4.7240   -1.8650 hc        1 IMY      0.089667
     59 H333       -5.2360   -3.4360   -1.1180 hc        1 IMY      0.089667
     60 H30        -3.9690    1.6710   -6.3400 h1        1 IMY      0.085000
     61 H301       -3.1960    0.3160   -5.9090 h1        1 IMY      0.085000
     62 H302       -4.7800    0.5180   -5.5490 h1        1 IMY      0.085000
     63 H51         4.1030    0.5270   -2.0260 h1        1 IMY      0.112000
     64 H52         3.1250   -0.5800   -2.8010 h1        1 IMY      0.112000
     65 H61         5.3810   -1.3550   -2.4340 h1        1 IMY      0.081250
     66 H62         4.3100   -2.3000   -1.8100 h1        1 IMY      0.081250
     67 HN3         5.9260   -2.0460   -0.3400 hn        1 IMY      0.159000
     68 H71         4.9330   -1.1020    1.4900 h1        1 IMY      0.081250
     69 H72         3.9810   -2.1990    0.7170 h1        1 IMY      0.081250
     70 H81         3.7910    0.6930    0.5120 h1        1 IMY      0.112000
     71 H82         2.6670   -0.3190    1.1380 h1        1 IMY      0.112000
@<TRIPOS>BOND
     1    1    5 1   
     2    1   22 1   
     3    2    3 1   
     4    2   32 1   
     5    3    4 1   
     6    3    6 1   
     7    3   40 1   
     8    4    5 1   
     9    4   18 1   
    10    4   41 1   
    11    6    7 1   
    12    6   11 1   
    13    7    8 1   
    14    7   42 1   
    15    8   43 1   
    16    9   10 1   
    17    9   12 1   
    18   10   44 1   
    19   11   45 1   
    20   13   18 1   
    21   13   46 1   
    22   14   15 1   
    23   14   47 1   
    24   15   19 1   
    25   16   17 1   
    26   16   48 1   
    27   17   49 1   
    28   20   25 1   
    29   20   50 1   
    30   21   22 1   
    31   21   26 1   
    32   22   23 1   
    33   23   24 1   
    34   23   51 1   
    35   24   52 1   
    36   25   30 1   
    37   26   27 1   
    38   27   28 1   
    39   27   29 1   
    40   27   53 1   
    41   28   54 1   
    42   28   55 1   
    43   28   56 1   
    44   29   57 1   
    45   29   58 1   
    46   29   59 1   
    47   30   31 1   
    48   31   60 1   
    49   31   61 1   
    50   31   62 1   
    51   32   33 1   
    52   32   34 1   
    53   34   35 1   
    54   34   39 1   
    55   35   36 1   
    56   35   63 1   
    57   35   64 1   
    58   36   37 1   
    59   36   65 1   
    60   36   66 1   
    61   37   38 1   
    62   37   67 1   
    63   38   39 1   
    64   38   68 1   
    65   38   69 1   
    66   39   70 1   
    67   39   71 1   
@<TRIPOS>SUBSTRUCTURE
     1 IMY         1 TEMP              0 ****  ****    0 ROOT
