@<TRIPOS>MOLECULE
IMZ
   75    79     1     0     0
SMALL
bcc


@<TRIPOS>ATOM
      1 C4          0.1760   -0.0860   -0.4110 c3        1 IMZ      0.150800
      2 C40        -0.3620   -1.3180   -1.0710 ca        1 IMZ     -0.056300
      3 C45        -1.5750   -1.2300   -1.7670 ca        1 IMZ     -0.112500
      4 C44        -2.1020   -2.3430   -2.4170 ca        1 IMZ     -0.107500
      5 C41         0.3260   -2.5360   -1.0500 ca        1 IMZ     -0.112500
      6 C42        -0.1970   -3.6500   -1.7060 ca        1 IMZ     -0.107500
      7 C43        -1.4130   -3.5590   -2.3870 ca        1 IMZ     -0.020900
      8 BR43       -2.1160   -5.0580   -3.2630 br        1 IMZ     -0.092100
      9 N3          1.6430   -0.0180   -0.3700 n2        1 IMZ     -0.585900
     10 C2          2.0340    0.1760    0.8680 ce        1 IMZ      0.527500
     11 C20         3.4400    0.2960    1.2830 ca        1 IMZ     -0.189900
     12 C26         4.3240   -0.7980    1.1200 ca        1 IMZ      0.216100
     13 O26         3.7660   -1.9420    0.6010 os        1 IMZ     -0.316900
     14 C27         4.6410   -3.0720    0.4630 c3        1 IMZ      0.127400
     15 C28         3.7840   -4.1830   -0.1000 c3        1 IMZ     -0.103100
     16 C25         5.6690   -0.6810    1.4820 ca        1 IMZ     -0.246000
     17 C21         3.9220    1.4920    1.8120 ca        1 IMZ     -0.029000
     18 C22         5.2600    1.6280    2.1770 ca        1 IMZ     -0.248000
     19 C23         6.1250    0.5400    2.0100 ca        1 IMZ      0.179100
     20 O23         7.4660    0.5550    2.3320 os        1 IMZ     -0.325900
     21 C24         7.9700    1.7690    2.8790 c3        1 IMZ      0.113700
     22 N1          0.9650    0.3680    1.8210 n         1 IMZ     -0.420300
     23 C10         1.0970   -0.0640    3.1830 c         1 IMZ      0.770100
     24 O10         1.8640   -0.9990    3.5010 o         1 IMZ     -0.601100
     25 N10         0.4160    0.6490    4.1820 n         1 IMZ     -0.442800
     26 C15         0.2800    0.0020    5.4730 c3        1 IMZ      0.089000
     27 C14         0.0170    0.9960    6.6210 c3        1 IMZ      0.160800
     28 N13        -1.0600    1.9280    6.3210 n3        1 IMZ     -0.739600
     29 C13        -1.3340    2.8390    7.4240 c3        1 IMZ      0.125800
     30 C16        -2.7790    3.3560    7.4340 c3        1 IMZ      0.135400
     31 O17        -3.7040    2.3500    7.7860 oh        1 IMZ     -0.599800
     32 C11        -0.5580    1.6690    3.8770 c3        1 IMZ      0.089000
     33 C12        -0.8340    2.6210    5.0620 c3        1 IMZ      0.160800
     34 C5         -0.3020    0.1350    1.0990 c3        1 IMZ      0.104000
     35 C50        -1.1880   -0.9480    1.6330 ca        1 IMZ     -0.100300
     36 C51        -2.5600   -0.6950    1.7560 ca        1 IMZ     -0.113500
     37 C52        -3.4220   -1.6780    2.2360 ca        1 IMZ     -0.103000
     38 C55        -0.6890   -2.1990    2.0140 ca        1 IMZ     -0.113500
     39 C54        -1.5480   -3.1830    2.5000 ca        1 IMZ     -0.103000
     40 C53        -2.9170   -2.9260    2.6110 ca        1 IMZ     -0.018900
     41 BR53       -4.0730   -4.2480    3.2610 br        1 IMZ     -0.083100
     42 H4         -0.1790    0.8120   -1.0000 h1        1 IMZ      0.080700
     43 H45        -2.1200   -0.2740   -1.8060 ha        1 IMZ      0.145500
     44 H44        -3.0590   -2.2560   -2.9540 ha        1 IMZ      0.145000
     45 H41         1.2920   -2.6280   -0.5250 ha        1 IMZ      0.145500
     46 H42         0.3590   -4.6000   -1.6820 ha        1 IMZ      0.145000
     47 H271        5.0560   -3.3460    1.4680 h1        1 IMZ      0.044700
     48 H272        5.4780   -2.8090   -0.2360 h1        1 IMZ      0.044700
     49 H281        2.9510   -4.4260    0.6020 hc        1 IMZ      0.050367
     50 H282        3.3410   -3.8750   -1.0780 hc        1 IMZ      0.050367
     51 H283        4.4160   -5.0900   -0.2510 hc        1 IMZ      0.050367
     52 H25         6.3790   -1.5110    1.3700 ha        1 IMZ      0.158000
     53 H21         3.2360    2.3440    1.9390 ha        1 IMZ      0.142000
     54 H22         5.6170    2.5800    2.5900 ha        1 IMZ      0.141000
     55 H241        9.0510    1.5430    3.0600 h1        1 IMZ      0.046367
     56 H242        7.4520    2.0140    3.8370 h1        1 IMZ      0.046367
     57 H243        7.8590    2.6060    2.1470 h1        1 IMZ      0.046367
     58 H151       -0.5660   -0.7450    5.4350 h1        1 IMZ      0.058200
     59 H152        1.2330   -0.5540    5.7040 h1        1 IMZ      0.058200
     60 H141       -0.2830    0.3910    7.5220 h1        1 IMZ      0.042450
     61 H142        0.9790    1.5340    6.8650 h1        1 IMZ      0.042450
     62 H131       -0.6440    3.7330    7.4110 h1        1 IMZ      0.045700
     63 H132       -1.1660    2.2880    8.3930 h1        1 IMZ      0.045700
     64 H161       -3.0590    3.8090    6.4460 h1        1 IMZ      0.044200
     65 H162       -2.8820    4.1310    8.2400 h1        1 IMZ      0.044200
     66 H17        -3.6030    1.6270    7.1540 ho        1 IMZ      0.413000
     67 H111       -1.5300    1.1900    3.5540 h1        1 IMZ      0.058200
     68 H112       -0.1840    2.3120    3.0310 h1        1 IMZ      0.058200
     69 H121       -1.7640    3.2040    4.8120 h1        1 IMZ      0.042450
     70 H122        0.0230    3.3520    5.1380 h1        1 IMZ      0.042450
     71 H5         -0.8670    1.1130    1.1350 h1        1 IMZ      0.068700
     72 H51        -2.9680    0.2860    1.4680 ha        1 IMZ      0.148000
     73 H52        -4.4990   -1.4620    2.3200 ha        1 IMZ      0.150000
     74 H55         0.3910   -2.4120    1.9350 ha        1 IMZ      0.148000
     75 H54        -1.1370   -4.1620    2.7940 ha        1 IMZ      0.150000
@<TRIPOS>BOND
     1    1    2 1   
     2    1    9 1   
     3    1   34 1   
     4    1   42 1   
     5    2    3 ar  
     6    2    5 ar  
     7    3    4 ar  
     8    3   43 1   
     9    4    7 ar  
    10    4   44 1   
    11    5    6 ar  
    12    5   45 1   
    13    6    7 ar  
    14    6   46 1   
    15    7    8 1   
    16    9   10 2   
    17   10   11 1   
    18   10   22 1   
    19   11   12 ar  
    20   11   17 ar  
    21   12   13 1   
    22   12   16 ar  
    23   13   14 1   
    24   14   15 1   
    25   14   47 1   
    26   14   48 1   
    27   15   49 1   
    28   15   50 1   
    29   15   51 1   
    30   16   19 ar  
    31   16   52 1   
    32   17   18 ar  
    33   17   53 1   
    34   18   19 ar  
    35   18   54 1   
    36   19   20 1   
    37   20   21 1   
    38   21   55 1   
    39   21   56 1   
    40   21   57 1   
    41   22   23 1   
    42   22   34 1   
    43   23   24 2   
    44   23   25 1   
    45   25   26 1   
    46   25   32 1   
    47   26   27 1   
    48   26   58 1   
    49   26   59 1   
    50   27   28 1   
    51   27   60 1   
    52   27   61 1   
    53   28   29 1   
    54   28   33 1   
    55   29   30 1   
    56   29   62 1   
    57   29   63 1   
    58   30   31 1   
    59   30   64 1   
    60   30   65 1   
    61   31   66 1   
    62   32   33 1   
    63   32   67 1   
    64   32   68 1   
    65   33   69 1   
    66   33   70 1   
    67   34   35 1   
    68   34   71 1   
    69   35   36 ar  
    70   35   38 ar  
    71   36   37 ar  
    72   36   72 1   
    73   37   40 ar  
    74   37   73 1   
    75   38   39 ar  
    76   38   74 1   
    77   39   40 ar  
    78   39   75 1   
    79   40   41 1   
@<TRIPOS>SUBSTRUCTURE
     1 IMZ         1 TEMP              0 ****  ****    0 ROOT
