@<TRIPOS>MOLECULE
IMZ
   75    79     1     0     0
SMALL
bcc


@<TRIPOS>ATOM
      1 C4         -0.2930   -1.1050   -2.3010 c3        1 IMZ      0.150800
      2 C40        -1.7460   -1.1830   -1.9440 ca        1 IMZ     -0.056300
      3 C45        -2.6770   -0.5570   -2.7840 ca        1 IMZ     -0.112500
      4 C44        -4.0400   -0.6240   -2.5070 ca        1 IMZ     -0.107500
      5 C41        -2.2030   -1.8940   -0.8290 ca        1 IMZ     -0.112500
      6 C42        -3.5680   -1.9660   -0.5530 ca        1 IMZ     -0.107500
      7 C43        -4.4900   -1.3300   -1.3870 ca        1 IMZ     -0.020900
      8 BR43       -6.3220   -1.4250   -1.0120 br        1 IMZ     -0.092100
      9 N3          0.4880   -2.2830   -1.8980 n2        1 IMZ     -0.585900
     10 C2          1.5160   -1.8950   -1.1790 ce        1 IMZ      0.527500
     11 C20         2.5170   -2.8090   -0.6060 ca        1 IMZ     -0.189900
     12 C26         2.1310   -3.7670    0.3620 ca        1 IMZ      0.215100
     13 O26         0.8080   -3.7400    0.7320 os        1 IMZ     -0.316900
     14 C27         0.4080   -4.6840    1.7380 c3        1 IMZ      0.127400
     15 C28        -1.0640   -4.4340    1.9680 c3        1 IMZ     -0.103100
     16 C25         3.0710   -4.6600    0.8870 ca        1 IMZ     -0.246000
     17 C21         3.8430   -2.7610   -1.0310 ca        1 IMZ     -0.029000
     18 C22         4.7930   -3.6430   -0.5210 ca        1 IMZ     -0.248000
     19 C23         4.4000   -4.5880    0.4360 ca        1 IMZ      0.179100
     20 O23         5.2470   -5.5120    1.0100 os        1 IMZ     -0.325900
     21 C24         6.6070   -5.4690    0.5900 c3        1 IMZ      0.113700
     22 N1          1.6680   -0.4640   -1.0570 n         1 IMZ     -0.420300
     23 C10         2.2290    0.1260    0.1260 c         1 IMZ      0.771100
     24 O10         2.1680   -0.4490    1.2350 o         1 IMZ     -0.601100
     25 N10         2.9400    1.3290    0.0030 n         1 IMZ     -0.443800
     26 C15         3.1880    2.0730    1.2230 c3        1 IMZ      0.089000
     27 C14         4.3740    3.0490    1.1050 c3        1 IMZ      0.160800
     28 N13         4.2940    3.8890   -0.0830 n3        1 IMZ     -0.739600
     29 C13         5.3940    4.8380   -0.1700 c3        1 IMZ      0.125800
     30 C16         5.0390    6.1000   -0.9690 c3        1 IMZ      0.135400
     31 O17         4.1280    6.9290   -0.2810 oh        1 IMZ     -0.599800
     32 C11         2.9650    2.0920   -1.2210 c3        1 IMZ      0.089000
     33 C12         4.1380    3.0940   -1.2910 c3        1 IMZ      0.160800
     34 C5          0.4840    0.1510   -1.6900 c3        1 IMZ      0.104000
     35 C50        -0.3540    1.0380   -0.8230 ca        1 IMZ     -0.100300
     36 C51        -0.7840    2.2680   -1.3360 ca        1 IMZ     -0.113500
     37 C52        -1.5760    3.1190   -0.5680 ca        1 IMZ     -0.103000
     38 C55        -0.7180    0.6790    0.4800 ca        1 IMZ     -0.113500
     39 C54        -1.5070    1.5300    1.2530 ca        1 IMZ     -0.103000
     40 C53        -1.9400    2.7510    0.7310 ca        1 IMZ     -0.018900
     41 BR53       -3.0000    3.8950    1.7660 br        1 IMZ     -0.083100
     42 H4         -0.2110   -1.0240   -3.4250 h1        1 IMZ      0.080700
     43 H45        -2.3340   -0.0090   -3.6740 ha        1 IMZ      0.145500
     44 H44        -4.7560   -0.1210   -3.1750 ha        1 IMZ      0.145000
     45 H41        -1.4930   -2.4120   -0.1610 ha        1 IMZ      0.145500
     46 H42        -3.9110   -2.5320    0.3280 ha        1 IMZ      0.145000
     47 H271        1.0040   -4.5080    2.6710 h1        1 IMZ      0.044700
     48 H272        0.5900   -5.7260    1.3620 h1        1 IMZ      0.044700
     49 H281       -1.6360   -4.5680    1.0180 hc        1 IMZ      0.050367
     50 H282       -1.4430   -5.1540    2.7300 hc        1 IMZ      0.050367
     51 H283       -1.2300   -3.3910    2.3320 hc        1 IMZ      0.050367
     52 H25         2.8040   -5.4130    1.6400 ha        1 IMZ      0.158000
     53 H21         4.1450   -2.0160   -1.7840 ha        1 IMZ      0.142000
     54 H22         5.8310   -3.5870   -0.8720 ha        1 IMZ      0.141000
     55 H241        7.0870   -6.2880    1.1830 h1        1 IMZ      0.046367
     56 H242        6.6870   -5.6750   -0.5050 h1        1 IMZ      0.046367
     57 H243        7.0650   -4.4810    0.8380 h1        1 IMZ      0.046367
     58 H151        2.2630    2.6540    1.5060 h1        1 IMZ      0.058200
     59 H152        3.4160    1.3450    2.0530 h1        1 IMZ      0.058200
     60 H141        4.3460    3.7180    2.0100 h1        1 IMZ      0.042450
     61 H142        5.3370    2.4600    1.1350 h1        1 IMZ      0.042450
     62 H131        5.6680    5.1660    0.8730 h1        1 IMZ      0.045700
     63 H132        6.3120    4.3760   -0.6380 h1        1 IMZ      0.045700
     64 H161        5.9630    6.7280   -1.0860 h1        1 IMZ      0.044200
     65 H162        4.6360    5.8410   -1.9850 h1        1 IMZ      0.044200
     66 H17         3.3380    6.4060   -0.0990 ho        1 IMZ      0.413000
     67 H111        3.0860    1.3970   -2.1000 h1        1 IMZ      0.058200
     68 H112        1.9920    2.6540   -1.3450 h1        1 IMZ      0.058200
     69 H121        3.9280    3.7960   -2.1460 h1        1 IMZ      0.042450
     70 H122        5.0810    2.5220   -1.5370 h1        1 IMZ      0.042450
     71 H5          0.8750    0.7610   -2.5580 h1        1 IMZ      0.068700
     72 H51        -0.5010    2.5710   -2.3560 ha        1 IMZ      0.148000
     73 H52        -1.9100    4.0790   -0.9910 ha        1 IMZ      0.150000
     74 H55        -0.3780   -0.2810    0.9050 ha        1 IMZ      0.148000
     75 H54        -1.7830    1.2280    2.2760 ha        1 IMZ      0.150000
@<TRIPOS>BOND
     1    1    2 1   
     2    1    9 1   
     3    1   34 1   
     4    1   42 1   
     5    2    3 ar  
     6    2    5 ar  
     7    3    4 ar  
     8    3   43 1   
     9    4    7 ar  
    10    4   44 1   
    11    5    6 ar  
    12    5   45 1   
    13    6    7 ar  
    14    6   46 1   
    15    7    8 1   
    16    9   10 2   
    17   10   11 1   
    18   10   22 1   
    19   11   12 ar  
    20   11   17 ar  
    21   12   13 1   
    22   12   16 ar  
    23   13   14 1   
    24   14   15 1   
    25   14   47 1   
    26   14   48 1   
    27   15   49 1   
    28   15   50 1   
    29   15   51 1   
    30   16   19 ar  
    31   16   52 1   
    32   17   18 ar  
    33   17   53 1   
    34   18   19 ar  
    35   18   54 1   
    36   19   20 1   
    37   20   21 1   
    38   21   55 1   
    39   21   56 1   
    40   21   57 1   
    41   22   23 1   
    42   22   34 1   
    43   23   24 2   
    44   23   25 1   
    45   25   26 1   
    46   25   32 1   
    47   26   27 1   
    48   26   58 1   
    49   26   59 1   
    50   27   28 1   
    51   27   60 1   
    52   27   61 1   
    53   28   29 1   
    54   28   33 1   
    55   29   30 1   
    56   29   62 1   
    57   29   63 1   
    58   30   31 1   
    59   30   64 1   
    60   30   65 1   
    61   31   66 1   
    62   32   33 1   
    63   32   67 1   
    64   32   68 1   
    65   33   69 1   
    66   33   70 1   
    67   34   35 1   
    68   34   71 1   
    69   35   36 ar  
    70   35   38 ar  
    71   36   37 ar  
    72   36   72 1   
    73   37   40 ar  
    74   37   73 1   
    75   38   39 ar  
    76   38   74 1   
    77   39   40 ar  
    78   39   75 1   
    79   40   41 1   
@<TRIPOS>SUBSTRUCTURE
     1 IMZ         1 TEMP              0 ****  ****    0 ROOT
