@<TRIPOS>MOLECULE
IMZ
   75    72     1     0     0
SMALL
bcc


@<TRIPOS>ATOM
      1 C4         -0.5310   -0.3120   -2.5850 c3        1 IMZ     -0.024000
      2 C40        -0.8840   -1.5760   -3.0340 c2        1 IMZ     -0.048000
      3 C45        -2.1020   -1.7700   -3.6810 c2        1 IMZ     -0.123000
      4 C44        -2.4330   -3.0190   -4.1730 c1        1 IMZ     -0.105000
      5 C41        -0.0000   -2.6370   -2.8820 c1        1 IMZ     -0.101000
      6 C42        -0.3320   -3.8940   -3.3770 c1        1 IMZ     -0.102500
      7 C43        -1.5450   -4.0870   -4.0210 c1        1 IMZ     -0.160000
      8 BR43       -1.9930   -5.8030   -4.7190 br        1 IMZ      0.051500
      9 N3          0.8140   -0.3070   -2.5890 n2        1 IMZ     -0.174000
     10 C2          1.3440   -0.3130   -1.4560 c1        1 IMZ      0.148000
     11 C20         2.7780    0.2350   -1.2660 c1        1 IMZ     -0.119000
     12 C26         3.1200    1.4930   -1.7790 c2        1 IMZ      0.156000
     13 O26         2.1270    2.2800   -2.4930 os        1 IMZ     -0.205000
     14 C27         2.5170    3.6190   -2.7320 c3        1 IMZ     -0.021000
     15 C28         1.3490    4.3940   -3.1710 c3        1 IMZ     -0.219000
     16 C25         4.3940    2.0030   -1.5770 c1        1 IMZ     -0.293000
     17 C21         3.7140   -0.5030   -0.5550 c1        1 IMZ     -0.023000
     18 C22         5.0010    0.0120   -0.3510 c1        1 IMZ     -0.199000
     19 C23         5.3390    1.2620   -0.8610 c1        1 IMZ      0.131000
     20 O23         6.6860    1.7480   -0.7370 os        1 IMZ     -0.205000
     21 C24         6.9310    2.4470    0.4430 c3        1 IMZ     -0.077000
     22 N1          0.4630   -0.3100   -0.4130 n         1 IMZ     -0.305000
     23 C10         0.7750   -0.2970    1.0170 c2        1 IMZ      0.394000
     24 O10         1.9400   -0.2860    1.3870 o         1 IMZ     -0.381000
     25 N10        -0.3500   -0.3130    2.0490 n         1 IMZ     -0.275000
     26 C15        -0.1110   -0.3110    3.4410 c3        1 IMZ     -0.040000
     27 C14        -0.8950    0.8190    4.1720 c3        1 IMZ     -0.100500
     28 N13        -2.2890    0.8090    3.8440 n3        1 IMZ     -0.253000
     29 C13        -2.9480    1.9700    4.4440 c3        1 IMZ     -0.106000
     30 C16        -4.1070    1.4910    5.3100 c3        1 IMZ     -0.025000
     31 O17        -4.5170    2.5160    6.1610 oh        1 IMZ     -0.324000
     32 C11        -1.7310   -0.3250    1.7030 c3        1 IMZ     -0.040000
     33 C12        -2.5220    0.8010    2.4190 c3        1 IMZ     -0.100500
     34 C5         -0.8470   -0.3180   -1.0290 c3        1 IMZ      0.025000
     35 C50        -1.5910   -1.5110   -0.6460 c2        1 IMZ     -0.083000
     36 C51        -2.9740   -1.5160   -0.7230 c2        1 IMZ     -0.116000
     37 C52        -3.6880   -2.6960   -0.4580 c1        1 IMZ     -0.106000
     38 C55        -0.9040   -2.6840   -0.3040 c1        1 IMZ     -0.107000
     39 C54        -1.6170   -3.8630   -0.0390 c1        1 IMZ     -0.102500
     40 C53        -3.0010   -3.8680   -0.1160 c1        1 IMZ     -0.160000
     41 BR53       -3.9740   -5.4840    0.2330 br        1 IMZ      0.051500
     42 H4         -1.0220    0.2920   -3.1740 h1        1 IMZ      0.121000
     43 H45        -2.7270   -1.0210   -3.7890 ha        1 IMZ      0.133000
     44 H44        -3.3010   -3.1560   -4.6330 ha        1 IMZ      0.145000
     45 H41         0.9220   -2.4880   -2.3950 ha        1 IMZ      0.147000
     46 H42         0.3070   -4.6610   -3.2690 ha        1 IMZ      0.148500
     47 H271        2.8670    4.0000   -1.9240 h1        1 IMZ      0.079000
     48 H272        3.2300    3.6430   -3.4570 h1        1 IMZ      0.079000
     49 H281        0.6380    4.3180   -2.5050 hc        1 IMZ      0.089667
     50 H282        1.5960    5.3210   -3.2700 hc        1 IMZ      0.089667
     51 H283        1.0360    4.0520   -4.0160 hc        1 IMZ      0.089667
     52 H25         4.6340    2.8970   -1.9430 ha        1 IMZ      0.145000
     53 H21         3.4730   -1.3900   -0.1950 ha        1 IMZ      0.166000
     54 H22         5.6630   -0.5070    0.1500 ha        1 IMZ      0.156000
     55 H241        7.8720    2.7130    0.4740 h1        1 IMZ      0.085333
     56 H242        6.3720    3.2370    0.4710 h1        1 IMZ      0.085333
     57 H243        6.7310    1.8890    1.1920 h1        1 IMZ      0.085333
     58 H151       -0.3870   -1.1760    3.8090 h1        1 IMZ      0.113000
     59 H152        0.8380   -0.1900    3.5970 h1        1 IMZ      0.113000
     60 H141       -0.5050    1.7100    3.9110 h1        1 IMZ      0.083750
     61 H142       -0.7960    0.7030    5.1220 h1        1 IMZ      0.083750
     62 H131       -2.2980    2.4710    5.0030 h1        1 IMZ      0.078500
     63 H132       -3.2850    2.5490    3.7440 h1        1 IMZ      0.078500
     64 H161       -4.8540    1.2260    4.7370 h1        1 IMZ      0.091500
     65 H162       -3.8190    0.7320    5.8370 h1        1 IMZ      0.091500
     66 H17        -4.3500    2.2900    6.9870 ho        1 IMZ      0.197000
     67 H111       -2.1150   -1.2000    1.9570 h1        1 IMZ      0.113000
     68 H112       -1.8150   -0.2130    0.7340 h1        1 IMZ      0.113000
     69 H121       -2.2480    1.6950    2.0330 h1        1 IMZ      0.083750
     70 H122       -3.5080    0.6610    2.2520 h1        1 IMZ      0.083750
     71 H5         -1.3450    0.4900   -0.7810 h1        1 IMZ      0.110000
     72 H51        -3.4580   -0.6890   -0.9620 ha        1 IMZ      0.133000
     73 H52        -4.6890   -2.7000   -0.5150 ha        1 IMZ      0.146000
     74 H55         0.0530   -2.6800   -0.2500 ha        1 IMZ      0.156000
     75 H54        -1.1170   -4.7170    0.2100 ha        1 IMZ      0.148500
@<TRIPOS>BOND
     1    1    2 1   
     2    1    9 1   
     3    1   34 1   
     4    1   42 1   
     5    2    3 1   
     6    2    5 1   
     7    3    4 1   
     8    3   43 1   
     9    4   44 1   
    10    5   45 1   
    11    6    7 1   
    12    6   46 1   
    13    7    8 1   
    14    9   10 1   
    15   10   22 1   
    16   11   12 1   
    17   11   17 1   
    18   12   13 1   
    19   12   16 1   
    20   13   14 1   
    21   14   15 1   
    22   14   47 1   
    23   14   48 1   
    24   15   49 1   
    25   15   50 1   
    26   15   51 1   
    27   16   52 1   
    28   17   53 1   
    29   18   19 1   
    30   18   54 1   
    31   19   20 1   
    32   20   21 1   
    33   21   55 1   
    34   21   56 1   
    35   21   57 1   
    36   22   23 1   
    37   22   34 1   
    38   23   24 1   
    39   23   25 1   
    40   25   26 1   
    41   25   32 1   
    42   26   27 1   
    43   26   58 1   
    44   26   59 1   
    45   27   28 1   
    46   27   60 1   
    47   27   61 1   
    48   28   29 1   
    49   28   33 1   
    50   29   30 1   
    51   29   62 1   
    52   29   63 1   
    53   30   31 1   
    54   30   64 1   
    55   30   65 1   
    56   31   66 1   
    57   32   33 1   
    58   32   67 1   
    59   32   68 1   
    60   33   69 1   
    61   33   70 1   
    62   34   35 1   
    63   34   71 1   
    64   35   36 1   
    65   35   38 1   
    66   36   37 1   
    67   36   72 1   
    68   37   73 1   
    69   38   74 1   
    70   39   40 1   
    71   39   75 1   
    72   40   41 1   
@<TRIPOS>SUBSTRUCTURE
     1 IMZ         1 TEMP              0 ****  ****    0 ROOT
