@<TRIPOS>MOLECULE
IMZ
   75    79     1     0     0
SMALL
bcc


@<TRIPOS>ATOM
      1 C4          0.1760   -0.0810   -0.4110 c3        1 IMZ      0.150800
      2 C40        -0.3670   -1.3100   -1.0730 ca        1 IMZ     -0.056300
      3 C45        -1.5790   -1.2170   -1.7690 ca        1 IMZ     -0.112500
      4 C44        -2.1100   -2.3270   -2.4210 ca        1 IMZ     -0.107500
      5 C41         0.3170   -2.5300   -1.0550 ca        1 IMZ     -0.112500
      6 C42        -0.2100   -3.6420   -1.7120 ca        1 IMZ     -0.107500
      7 C43        -1.4250   -3.5450   -2.3940 ca        1 IMZ     -0.020900
      8 BR43       -2.1340   -5.0400   -3.2720 br        1 IMZ     -0.092100
      9 N3          1.6440   -0.0190   -0.3690 n2        1 IMZ     -0.585900
     10 C2          2.0340    0.1720    0.8690 ce        1 IMZ      0.527500
     11 C20         3.4410    0.2860    1.2850 ca        1 IMZ     -0.189900
     12 C26         4.3220   -0.8100    1.1190 ca        1 IMZ      0.215100
     13 O26         3.7600   -1.9510    0.5970 os        1 IMZ     -0.316900
     14 C27         4.6320   -3.0830    0.4540 c3        1 IMZ      0.127400
     15 C28         3.7720   -4.1890   -0.1140 c3        1 IMZ     -0.103100
     16 C25         5.6670   -0.6980    1.4820 ca        1 IMZ     -0.246000
     17 C21         3.9270    1.4800    1.8170 ca        1 IMZ     -0.029000
     18 C22         5.2640    1.6100    2.1830 ca        1 IMZ     -0.248000
     19 C23         6.1260    0.5200    2.0130 ca        1 IMZ      0.179100
     20 O23         7.4680    0.5300    2.3360 os        1 IMZ     -0.325900
     21 C24         7.9740    1.7410    2.8860 c3        1 IMZ      0.113700
     22 N1          0.9660    0.3660    1.8220 n         1 IMZ     -0.420300
     23 C10         1.0950   -0.0680    3.1840 c         1 IMZ      0.771100
     24 O10         1.8590   -1.0060    3.5010 o         1 IMZ     -0.601100
     25 N10         0.4170    0.6450    4.1830 n         1 IMZ     -0.443800
     26 C15         0.2780   -0.0020    5.4740 c3        1 IMZ      0.089000
     27 C14         0.0200    0.9910    6.6230 c3        1 IMZ      0.160800
     28 N13        -1.0540    1.9290    6.3240 n3        1 IMZ     -0.739600
     29 C13        -1.3230    2.8390    7.4280 c3        1 IMZ      0.125800
     30 C16        -2.7660    3.3620    7.4380 c3        1 IMZ      0.135400
     31 O17        -3.6950    2.3600    7.7890 oh        1 IMZ     -0.599800
     32 C11        -0.5530    1.6700    3.8800 c3        1 IMZ      0.089000
     33 C12        -0.8250    2.6210    5.0660 c3        1 IMZ      0.160800
     34 C5         -0.3020    0.1380    1.0990 c3        1 IMZ      0.104000
     35 C50        -1.1910   -0.9430    1.6310 ca        1 IMZ     -0.100300
     36 C51        -2.5630   -0.6850    1.7540 ca        1 IMZ     -0.113500
     37 C52        -3.4280   -1.6660    2.2330 ca        1 IMZ     -0.103000
     38 C55        -0.6970   -2.1960    2.0100 ca        1 IMZ     -0.113500
     39 C54        -1.5590   -3.1780    2.4940 ca        1 IMZ     -0.103000
     40 C53        -2.9280   -2.9170    2.6060 ca        1 IMZ     -0.018900
     41 BR53       -4.0880   -4.2360    3.2540 br        1 IMZ     -0.083100
     42 H4         -0.1750    0.8190   -0.9980 h1        1 IMZ      0.080700
     43 H45        -2.1210   -0.2590   -1.8060 ha        1 IMZ      0.145500
     44 H44        -3.0670   -2.2350   -2.9580 ha        1 IMZ      0.145000
     45 H41         1.2840   -2.6270   -0.5300 ha        1 IMZ      0.145500
     46 H42         0.3430   -4.5940   -1.6900 ha        1 IMZ      0.145000
     47 H271        5.0470   -3.3620    1.4580 h1        1 IMZ      0.044700
     48 H272        5.4700   -2.8190   -0.2440 h1        1 IMZ      0.044700
     49 H281        4.4010   -5.0970   -0.2680 hc        1 IMZ      0.050367
     50 H282        2.9380   -4.4330    0.5880 hc        1 IMZ      0.050367
     51 H283        3.3290   -3.8760   -1.0900 hc        1 IMZ      0.050367
     52 H25         6.3740   -1.5300    1.3680 ha        1 IMZ      0.158000
     53 H21         3.2430    2.3330    1.9460 ha        1 IMZ      0.142000
     54 H22         5.6240    2.5610    2.5980 ha        1 IMZ      0.141000
     55 H241        9.0550    1.5110    3.0670 h1        1 IMZ      0.046367
     56 H242        7.8670    2.5800    2.1560 h1        1 IMZ      0.046367
     57 H243        7.4570    1.9850    3.8450 h1        1 IMZ      0.046367
     58 H151        1.2290   -0.5630    5.7030 h1        1 IMZ      0.058200
     59 H152       -0.5700   -0.7450    5.4350 h1        1 IMZ      0.058200
     60 H141        0.9840    1.5250    6.8680 h1        1 IMZ      0.042450
     61 H142       -0.2830    0.3870    7.5240 h1        1 IMZ      0.042450
     62 H131       -1.1580    2.2870    8.3970 h1        1 IMZ      0.045700
     63 H132       -0.6290    3.7300    7.4170 h1        1 IMZ      0.045700
     64 H161       -3.0430    3.8180    6.4510 h1        1 IMZ      0.044200
     65 H162       -2.8650    4.1370    8.2460 h1        1 IMZ      0.044200
     66 H17        -3.5970    1.6380    7.1560 ho        1 IMZ      0.413000
     67 H111       -0.1760    2.3120    3.0340 h1        1 IMZ      0.058200
     68 H112       -1.5260    1.1950    3.5570 h1        1 IMZ      0.058200
     69 H121       -1.7520    3.2090    4.8160 h1        1 IMZ      0.042450
     70 H122        0.0360    3.3490    5.1430 h1        1 IMZ      0.042450
     71 H5         -0.8640    1.1180    1.1370 h1        1 IMZ      0.068700
     72 H51        -2.9680    0.2980    1.4680 ha        1 IMZ      0.148000
     73 H52        -4.5040   -1.4470    2.3170 ha        1 IMZ      0.150000
     74 H55         0.3820   -2.4120    1.9310 ha        1 IMZ      0.148000
     75 H54        -1.1510   -4.1590    2.7860 ha        1 IMZ      0.150000
@<TRIPOS>BOND
     1    1    2 1   
     2    1    9 1   
     3    1   34 1   
     4    1   42 1   
     5    2    3 ar  
     6    2    5 ar  
     7    3    4 ar  
     8    3   43 1   
     9    4    7 ar  
    10    4   44 1   
    11    5    6 ar  
    12    5   45 1   
    13    6    7 ar  
    14    6   46 1   
    15    7    8 1   
    16    9   10 2   
    17   10   11 1   
    18   10   22 1   
    19   11   12 ar  
    20   11   17 ar  
    21   12   13 1   
    22   12   16 ar  
    23   13   14 1   
    24   14   15 1   
    25   14   47 1   
    26   14   48 1   
    27   15   49 1   
    28   15   50 1   
    29   15   51 1   
    30   16   19 ar  
    31   16   52 1   
    32   17   18 ar  
    33   17   53 1   
    34   18   19 ar  
    35   18   54 1   
    36   19   20 1   
    37   20   21 1   
    38   21   55 1   
    39   21   56 1   
    40   21   57 1   
    41   22   23 1   
    42   22   34 1   
    43   23   24 2   
    44   23   25 1   
    45   25   26 1   
    46   25   32 1   
    47   26   27 1   
    48   26   58 1   
    49   26   59 1   
    50   27   28 1   
    51   27   60 1   
    52   27   61 1   
    53   28   29 1   
    54   28   33 1   
    55   29   30 1   
    56   29   62 1   
    57   29   63 1   
    58   30   31 1   
    59   30   64 1   
    60   30   65 1   
    61   31   66 1   
    62   32   33 1   
    63   32   67 1   
    64   32   68 1   
    65   33   69 1   
    66   33   70 1   
    67   34   35 1   
    68   34   71 1   
    69   35   36 ar  
    70   35   38 ar  
    71   36   37 ar  
    72   36   72 1   
    73   37   40 ar  
    74   37   73 1   
    75   38   39 ar  
    76   38   74 1   
    77   39   40 ar  
    78   39   75 1   
    79   40   41 1   
@<TRIPOS>SUBSTRUCTURE
     1 IMZ         1 TEMP              0 ****  ****    0 ROOT
