@<TRIPOS>MOLECULE
IMZ
   75    79     1     0     0
SMALL
bcc


@<TRIPOS>ATOM
      1 C4          0.1770   -0.0910   -0.4100 c3        1 IMZ      0.150800
      2 C40        -0.3640   -1.3230   -1.0680 ca        1 IMZ     -0.056300
      3 C45        -1.5760   -1.2340   -1.7650 ca        1 IMZ     -0.112500
      4 C44        -2.1050   -2.3470   -2.4130 ca        1 IMZ     -0.107500
      5 C41         0.3220   -2.5420   -1.0460 ca        1 IMZ     -0.112500
      6 C42        -0.2030   -3.6570   -1.7000 ca        1 IMZ     -0.107500
      7 C43        -1.4180   -3.5640   -2.3810 ca        1 IMZ     -0.020900
      8 Br43       -2.1240   -5.0640   -3.2550 br        1 IMZ     -0.092100
      9 N3          1.6440   -0.0260   -0.3680 n2        1 IMZ     -0.585900
     10 C2          2.0340    0.1690    0.8690 ce        1 IMZ      0.527500
     11 C20         3.4410    0.2870    1.2850 ca        1 IMZ     -0.189900
     12 C26         4.3240   -0.8080    1.1220 ca        1 IMZ      0.215100
     13 O26         3.7640   -1.9510    0.6030 os        1 IMZ     -0.316900
     14 C27         4.6380   -3.0810    0.4620 c3        1 IMZ      0.127400
     15 C28         3.7810   -4.1900   -0.1030 c3        1 IMZ     -0.103100
     16 C25         5.6680   -0.6930    1.4850 ca        1 IMZ     -0.246000
     17 C21         3.9240    1.4830    1.8140 ca        1 IMZ     -0.029000
     18 C22         5.2620    1.6170    2.1790 ca        1 IMZ     -0.248000
     19 C23         6.1260    0.5280    2.0120 ca        1 IMZ      0.179100
     20 O23         7.4670    0.5410    2.3350 os        1 IMZ     -0.325900
     21 C24         7.9710    1.7550    2.8820 c3        1 IMZ      0.113700
     22 N1          0.9650    0.3650    1.8210 n         1 IMZ     -0.420300
     23 C10         1.0950   -0.0640    3.1850 c         1 IMZ      0.771100
     24 O10         1.8600   -1.0000    3.5040 o         1 IMZ     -0.601100
     25 N10         0.4160    0.6520    4.1810 n         1 IMZ     -0.443800
     26 C15         0.2770    0.0080    5.4740 c3        1 IMZ      0.089000
     27 C14         0.0180    1.0060    6.6190 c3        1 IMZ      0.160800
     28 N13        -1.0560    1.9420    6.3170 n3        1 IMZ     -0.739600
     29 C13        -1.3250    2.8560    7.4180 c3        1 IMZ      0.125800
     30 C16        -2.7680    3.3790    7.4270 c3        1 IMZ      0.135400
     31 O17        -3.6970    2.3780    7.7810 oh        1 IMZ     -0.599800
     32 C11        -0.5550    1.6750    3.8740 c3        1 IMZ      0.089000
     33 C12        -0.8270    2.6300    5.0560 c3        1 IMZ      0.160800
     34 C5         -0.3020    0.1330    1.0990 c3        1 IMZ      0.104000
     35 C50        -1.1900   -0.9470    1.6340 ca        1 IMZ     -0.100300
     36 C51        -2.5620   -0.6910    1.7560 ca        1 IMZ     -0.113500
     37 C52        -3.4260   -1.6710    2.2380 ca        1 IMZ     -0.103000
     38 C55        -0.6940   -2.1980    2.0170 ca        1 IMZ     -0.113500
     39 C54        -1.5550   -3.1800    2.5050 ca        1 IMZ     -0.103000
     40 C53        -2.9240   -2.9200    2.6150 ca        1 IMZ     -0.018900
     41 Br53       -4.0820   -4.2380    3.2670 br        1 IMZ     -0.083100
     42 H4         -0.1760    0.8060   -1.0010 h1        1 IMZ      0.080700
     43 H45        -2.1190   -0.2780   -1.8060 ha        1 IMZ      0.145500
     44 H44        -3.0620   -2.2590   -2.9510 ha        1 IMZ      0.145000
     45 H41         1.2890   -2.6350   -0.5200 ha        1 IMZ      0.145500
     46 H42         0.3520   -4.6080   -1.6740 ha        1 IMZ      0.145000
     47 H271        5.0540   -3.3580    1.4660 h1        1 IMZ      0.044700
     48 H272        5.4750   -2.8170   -0.2370 h1        1 IMZ      0.044700
     49 H281        4.4120   -5.0970   -0.2570 hc        1 IMZ      0.050367
     50 H282        3.3370   -3.8800   -1.0800 hc        1 IMZ      0.050367
     51 H283        2.9480   -4.4350    0.5980 hc        1 IMZ      0.050367
     52 H25         6.3770   -1.5240    1.3730 ha        1 IMZ      0.158000
     53 H21         3.2390    2.3360    1.9410 ha        1 IMZ      0.142000
     54 H22         5.6200    2.5690    2.5920 ha        1 IMZ      0.141000
     55 H241        9.0530    1.5270    3.0640 h1        1 IMZ      0.046367
     56 H242        7.8620    2.5920    2.1500 h1        1 IMZ      0.046367
     57 H243        7.4530    2.0010    3.8410 h1        1 IMZ      0.046367
     58 H151       -0.5710   -0.7350    5.4370 h1        1 IMZ      0.058200
     59 H152        1.2280   -0.5510    5.7050 h1        1 IMZ      0.058200
     60 H141        0.9820    1.5400    6.8630 h1        1 IMZ      0.042450
     61 H142       -0.2840    0.4040    7.5220 h1        1 IMZ      0.042450
     62 H131       -1.1600    2.3070    8.3890 h1        1 IMZ      0.045700
     63 H132       -0.6320    3.7460    7.4040 h1        1 IMZ      0.045700
     64 H161       -2.8680    4.1560    8.2320 h1        1 IMZ      0.044200
     65 H162       -3.0460    3.8320    6.4380 h1        1 IMZ      0.044200
     66 H17        -3.5990    1.6540    7.1500 ho        1 IMZ      0.413000
     67 H111       -0.1780    2.3140    3.0260 h1        1 IMZ      0.058200
     68 H112       -1.5280    1.1980    3.5530 h1        1 IMZ      0.058200
     69 H121       -1.7550    3.2160    4.8050 h1        1 IMZ      0.042450
     70 H122        0.0330    3.3590    5.1310 h1        1 IMZ      0.042450
     71 H5         -0.8650    1.1130    1.1330 h1        1 IMZ      0.068700
     72 H51        -2.9680    0.2910    1.4660 ha        1 IMZ      0.148000
     73 H52        -4.5020   -1.4530    2.3210 ha        1 IMZ      0.150000
     74 H55         0.3860   -2.4130    1.9400 ha        1 IMZ      0.148000
     75 H54        -1.1460   -4.1590    2.8010 ha        1 IMZ      0.150000
@<TRIPOS>BOND
     1    1    2 1   
     2    1    9 1   
     3    1   34 1   
     4    1   42 1   
     5    2    3 ar  
     6    2    5 ar  
     7    3    4 ar  
     8    3   43 1   
     9    4    7 ar  
    10    4   44 1   
    11    5    6 ar  
    12    5   45 1   
    13    6    7 ar  
    14    6   46 1   
    15    7    8 1   
    16    9   10 2   
    17   10   11 1   
    18   10   22 1   
    19   11   12 ar  
    20   11   17 ar  
    21   12   13 1   
    22   12   16 ar  
    23   13   14 1   
    24   14   15 1   
    25   14   47 1   
    26   14   48 1   
    27   15   49 1   
    28   15   50 1   
    29   15   51 1   
    30   16   19 ar  
    31   16   52 1   
    32   17   18 ar  
    33   17   53 1   
    34   18   19 ar  
    35   18   54 1   
    36   19   20 1   
    37   20   21 1   
    38   21   55 1   
    39   21   56 1   
    40   21   57 1   
    41   22   23 1   
    42   22   34 1   
    43   23   24 2   
    44   23   25 1   
    45   25   26 1   
    46   25   32 1   
    47   26   27 1   
    48   26   58 1   
    49   26   59 1   
    50   27   28 1   
    51   27   60 1   
    52   27   61 1   
    53   28   29 1   
    54   28   33 1   
    55   29   30 1   
    56   29   62 1   
    57   29   63 1   
    58   30   31 1   
    59   30   64 1   
    60   30   65 1   
    61   31   66 1   
    62   32   33 1   
    63   32   67 1   
    64   32   68 1   
    65   33   69 1   
    66   33   70 1   
    67   34   35 1   
    68   34   71 1   
    69   35   36 ar  
    70   35   38 ar  
    71   36   37 ar  
    72   36   72 1   
    73   37   40 ar  
    74   37   73 1   
    75   38   39 ar  
    76   38   74 1   
    77   39   40 ar  
    78   39   75 1   
    79   40   41 1   
@<TRIPOS>SUBSTRUCTURE
     1 IMZ         1 TEMP              0 ****  ****    0 ROOT
