@<TRIPOS>MOLECULE
IN0
   70    73     1     0     0
SMALL
bcc


@<TRIPOS>ATOM
      1 C1         -0.0460   -0.0320    0.0790 ca        1 IN0     -0.130300
      2 C7          1.4510   -0.1490    0.1900 c3        1 IN0      0.241700
      3 C17         2.1910    1.0990   -0.2080 ca        1 IN0     -0.123300
      4 C28         2.4750    2.0490    0.7500 ca        1 IN0     -0.065000
      5 C27         3.2090    3.2150    0.4280 ca        1 IN0     -0.099000
      6 C26         3.6480    3.4170   -0.8550 ca        1 IN0     -0.138000
      7 C16         3.3660    2.4620   -1.8710 ca        1 IN0     -0.045000
      8 C29         3.8140    2.6710   -3.2040 ca        1 IN0     -0.114000
      9 C30         3.5420    1.7560   -4.1900 ca        1 IN0     -0.146000
     10 C31         2.8020    0.5910   -3.8840 ca        1 IN0     -0.137000
     11 C33         2.3570    0.3650   -2.6040 ca        1 IN0     -0.125000
     12 C15         2.6280    1.2880   -1.5560 ca        1 IN0     -0.019000
     13 O6          1.8870   -0.4630    1.5250 os        1 IN0     -0.400600
     14 C5          1.0480   -1.3550    2.2480 c3        1 IN0      0.091100
     15 C14         1.8280   -1.7620    3.4940 c3        1 IN0     -0.154400
     16 C11         1.6920   -0.7230    4.5990 c         1 IN0      0.641100
     17 O58         0.9820   -0.9800    5.5950 o         1 IN0     -0.616100
     18 N23         2.4460    0.4250    4.4810 n         1 IN0     -0.534900
     19 C38         2.2590    1.5570    5.3660 c3        1 IN0     -0.052300
     20 C61         3.4980    1.8700    6.2170 c3        1 IN0     -0.169400
     21 C62         4.0280    0.7240    7.0140 c         1 IN0      0.640100
     22 O64         3.9390    0.5420    8.2310 o         1 IN0     -0.529000
     23 O63         4.7790   -0.2410    6.3920 oh        1 IN0     -0.607100
     24 C60         1.9730    2.8840    4.5650 c         1 IN0      0.908600
     25 O66         2.6470    3.0810    3.5120 o         1 IN0     -0.823800
     26 O65         1.1140    3.6630    5.0400 o         1 IN0     -0.823800
     27 C4          0.7050   -2.5980    1.4110 c         1 IN0      0.676500
     28 O13         1.2330   -3.7050    1.6200 o         1 IN0     -0.623500
     29 N3         -0.2730   -2.4650    0.4190 n         1 IN0     -0.389000
     30 C2         -0.8520   -1.1980    0.1620 ca        1 IN0      0.063600
     31 C8         -2.2510   -1.0700    0.0170 ca        1 IN0     -0.152000
     32 C9         -2.8330    0.1710   -0.2130 ca        1 IN0     -0.106000
     33 C20        -2.0310    1.3120   -0.2820 ca        1 IN0      0.001400
     34 CL36       -2.7440    2.8300   -0.5540 cl        1 IN0     -0.090400
     35 C21        -0.6470    1.2110   -0.1230 ca        1 IN0     -0.067000
     36 C43        -0.6920   -3.6190   -0.3440 c3        1 IN0      0.103000
     37 C10         0.0030   -3.8480   -1.7070 c3        1 IN0     -0.072000
     38 C32        -0.5010   -5.1840   -2.2380 c3        1 IN0     -0.089433
     39 C25         1.5110   -3.9140   -1.5420 c3        1 IN0     -0.089433
     40 C24        -0.3640   -2.7510   -2.6900 c3        1 IN0     -0.089433
     41 H7          1.7950   -1.0110   -0.4590 h1        1 IN0      0.055700
     42 H28         2.1470    1.9240    1.8030 ha        1 IN0      0.204000
     43 H27         3.4060    3.9290    1.2480 ha        1 IN0      0.182000
     44 H26         4.2230    4.3160   -1.1220 ha        1 IN0      0.125000
     45 H29         4.3860    3.5850   -3.4260 ha        1 IN0      0.125000
     46 H30         3.8890    1.9170   -5.2200 ha        1 IN0      0.121000
     47 H31         2.5870   -0.1310   -4.6850 ha        1 IN0      0.121000
     48 H33         1.7730   -0.5430   -2.3880 ha        1 IN0      0.128000
     49 H5          0.0960   -0.8240    2.5390 h1        1 IN0      0.083700
     50 H141        2.9050   -1.9220    3.2280 hc        1 IN0      0.089700
     51 H142        1.4160   -2.7330    3.8790 hc        1 IN0      0.089700
     52 H23         2.7580    0.6730    3.5620 hn        1 IN0      0.325500
     53 H38         1.3870    1.3540    6.0520 h1        1 IN0      0.090700
     54 H611        3.2030    2.6940    6.9210 hc        1 IN0      0.083700
     55 H612        4.3150    2.2540    5.5480 hc        1 IN0      0.083700
     56 H8         -2.9060   -1.9510    0.0990 ha        1 IN0      0.139000
     57 H9         -3.9250    0.2490   -0.3230 ha        1 IN0      0.143000
     58 H21        -0.0200    2.1200   -0.1510 ha        1 IN0      0.178000
     59 H431       -0.5000   -4.5320    0.2930 h1        1 IN0      0.060200
     60 H432       -1.7990   -3.5460   -0.5350 h1        1 IN0      0.060200
     61 H321       -1.6150   -5.1820   -2.3110 hc        1 IN0      0.037589
     62 H322       -0.1870   -6.0150   -1.5620 hc        1 IN0      0.037589
     63 H323       -0.0800   -5.3740   -3.2540 hc        1 IN0      0.037589
     64 H251        1.9360   -2.8940   -1.3810 hc        1 IN0      0.037589
     65 H252        1.7780   -4.5490   -0.6610 hc        1 IN0      0.037589
     66 H253        1.9810   -4.3470   -2.4580 hc        1 IN0      0.037589
     67 H241       -0.0610   -1.7500   -2.2950 hc        1 IN0      0.037589
     68 H242       -1.4660   -2.7410   -2.8720 hc        1 IN0      0.037589
     69 H243        0.1550   -2.9190   -3.6640 hc        1 IN0      0.037589
     70 H232        4.7630   -0.0960    5.4360 ho        1 IN0      0.430000
@<TRIPOS>BOND
     1    1    2 1   
     2    1   30 ar  
     3    1   35 ar  
     4    2    3 1   
     5    2   13 1   
     6    2   41 1   
     7    3    4 ar  
     8    3   12 ar  
     9    4    5 ar  
    10    4   42 1   
    11    5    6 ar  
    12    5   43 1   
    13    6    7 ar  
    14    6   44 1   
    15    7    8 ar  
    16    7   12 ar  
    17    8    9 ar  
    18    8   45 1   
    19    9   10 ar  
    20    9   46 1   
    21   10   11 ar  
    22   10   47 1   
    23   11   12 ar  
    24   11   48 1   
    25   13   14 1   
    26   14   15 1   
    27   14   27 1   
    28   14   49 1   
    29   15   16 1   
    30   15   50 1   
    31   15   51 1   
    32   16   17 2   
    33   16   18 1   
    34   18   19 1   
    35   18   52 1   
    36   19   20 1   
    37   19   24 1   
    38   19   53 1   
    39   20   21 1   
    40   20   54 1   
    41   20   55 1   
    42   21   22 2   
    43   21   23 1   
    44   23   70 1   
    45   24   25 1   
    46   24   26 1   
    47   27   28 2   
    48   27   29 1   
    49   29   30 1   
    50   29   36 1   
    51   30   31 ar  
    52   31   32 ar  
    53   31   56 1   
    54   32   33 ar  
    55   32   57 1   
    56   33   34 1   
    57   33   35 ar  
    58   35   58 1   
    59   36   37 1   
    60   36   59 1   
    61   36   60 1   
    62   37   38 1   
    63   37   39 1   
    64   37   40 1   
    65   38   61 1   
    66   38   62 1   
    67   38   63 1   
    68   39   64 1   
    69   39   65 1   
    70   39   66 1   
    71   40   67 1   
    72   40   68 1   
    73   40   69 1   
@<TRIPOS>SUBSTRUCTURE
     1 IN0         1 TEMP              0 ****  ****    0 ROOT
