@<TRIPOS>MOLECULE
IN0
   69    72     1     0     0
SMALL
bcc


@<TRIPOS>ATOM
      1 C1          0.4150   -0.7860   -1.6660 ca        1 IN0     -0.116300
      2 C7         -0.2810    0.5310   -1.4520 c3        1 IN0      0.242700
      3 C17        -1.7810    0.4510   -1.6030 ca        1 IN0     -0.109300
      4 C28        -2.5600    0.2810   -0.4760 ca        1 IN0     -0.070000
      5 C27        -3.9710    0.2620   -0.5690 ca        1 IN0     -0.108000
      6 C26        -4.5870    0.4160   -1.7860 ca        1 IN0     -0.141000
      7 C16        -3.8150    0.5870   -2.9660 ca        1 IN0     -0.047000
      8 C29        -4.4450    0.7440   -4.2310 ca        1 IN0     -0.116000
      9 C30        -3.7000    0.9050   -5.3730 ca        1 IN0     -0.150000
     10 C31        -2.2880    0.9100   -5.2980 ca        1 IN0     -0.145000
     11 C33        -1.6550    0.7610   -4.0890 ca        1 IN0     -0.116000
     12 C15        -2.3950    0.6020   -2.8840 ca        1 IN0     -0.023000
     13 O6         -0.0390    1.1720   -0.1950 os        1 IN0     -0.394600
     14 C5          0.9600    0.5960    0.6410 c3        1 IN0      0.102100
     15 C14         0.8230    1.2340    2.0140 c3        1 IN0     -0.173400
     16 C11        -0.3060    0.5790    2.8110 c         1 IN0      0.669100
     17 O58        -0.9700   -0.3530    2.2900 o         1 IN0     -0.694100
     18 N23        -0.5790    1.1250    4.0420 n         1 IN0     -0.451900
     19 C38        -1.1050    0.3070    5.1270 c3        1 IN0     -0.026300
     20 C61        -0.0130   -0.1190    6.1200 c3        1 IN0     -0.199400
     21 C62         1.3120   -0.5810    5.5120 c         1 IN0      0.902600
     22 O64         1.7620   -1.7220    5.8330 o         1 IN0     -0.883800
     23 O63         1.9670    0.1970    4.7450 o         1 IN0     -0.883800
     24 C60        -2.2120    1.0800    5.9200 c         1 IN0      0.916600
     25 O66        -3.3230    0.4960    6.0730 o         1 IN0     -0.858300
     26 O65        -1.9560    2.2270    6.3870 o         1 IN0     -0.858300
     27 C4          2.3130    0.9220   -0.0070 c         1 IN0      0.686500
     28 O13         3.1060    1.7770    0.4130 o         1 IN0     -0.607500
     29 N3          2.6210    0.2230   -1.1940 n         1 IN0     -0.411000
     30 C2          1.8310   -0.8820   -1.5850 ca        1 IN0      0.087600
     31 C8          2.4450   -2.1240   -1.8700 ca        1 IN0     -0.156000
     32 C9          1.6920   -3.2310   -2.2370 ca        1 IN0     -0.108000
     33 C20         0.3030   -3.1250   -2.3060 ca        1 IN0     -0.003600
     34 CL36       -0.6270   -4.4820   -2.7520 cl        1 IN0     -0.116400
     35 C21        -0.3290   -1.9190   -2.0060 ca        1 IN0     -0.075000
     36 C43         3.8210    0.5380   -1.9280 c3        1 IN0      0.105000
     37 C10         3.6580    1.5540   -3.0870 c3        1 IN0     -0.073000
     38 C32         5.0530    1.8430   -3.6260 c3        1 IN0     -0.086767
     39 C25         3.0380    2.8450   -2.5820 c3        1 IN0     -0.086767
     40 C24         2.8040    0.9700   -4.1980 c3        1 IN0     -0.086767
     41 H7          0.1310    1.2600   -2.2200 h1        1 IN0      0.050700
     42 H28        -2.0800    0.1670    0.5230 ha        1 IN0      0.222000
     43 H27        -4.5560    0.1300    0.3550 ha        1 IN0      0.154000
     44 H26        -5.6840    0.4110   -1.8690 ha        1 IN0      0.120000
     45 H29        -5.5440    0.7340   -4.2730 ha        1 IN0      0.120000
     46 H30        -4.1870    1.0280   -6.3510 ha        1 IN0      0.114000
     47 H31        -1.7050    1.0330   -6.2220 ha        1 IN0      0.116000
     48 H33        -0.5550    0.7530   -4.0470 ha        1 IN0      0.131000
     49 H5          0.8180   -0.5190    0.7410 h1        1 IN0      0.107700
     50 H141        1.7770    1.0660    2.5960 hc        1 IN0      0.107200
     51 H142        0.6480    2.3340    1.9110 hc        1 IN0      0.107200
     52 H23         0.1160    1.7670    4.3760 hn        1 IN0      0.305500
     53 H38        -1.5810   -0.6110    4.6760 h1        1 IN0      0.064700
     54 H611        0.2120    0.7510    6.7920 hc        1 IN0      0.040700
     55 H612       -0.4350   -0.9440    6.7470 hc        1 IN0      0.040700
     56 H8          3.5370   -2.2370   -1.7780 ha        1 IN0      0.138000
     57 H9          2.1920   -4.1880   -2.4500 ha        1 IN0      0.137000
     58 H21        -1.4310   -1.8590   -2.0350 ha        1 IN0      0.167000
     59 H431        4.2600   -0.4030   -2.3660 h1        1 IN0      0.055700
     60 H432        4.5670    0.9720   -1.1990 h1        1 IN0      0.055700
     61 H321        4.9910    2.5390   -4.4960 hc        1 IN0      0.034367
     62 H322        5.6830    2.3160   -2.8350 hc        1 IN0      0.034367
     63 H323        5.5470    0.8990   -3.9610 hc        1 IN0      0.034367
     64 H251        3.5570    3.1830   -1.6510 hc        1 IN0      0.034367
     65 H252        3.1200    3.6430   -3.3580 hc        1 IN0      0.034367
     66 H253        1.9580    2.6940   -2.3400 hc        1 IN0      0.034367
     67 H241        3.2680    0.0350   -4.5980 hc        1 IN0      0.034367
     68 H242        1.7810    0.7260   -3.8200 hc        1 IN0      0.034367
     69 H243        2.7070    1.7040   -5.0340 hc        1 IN0      0.034367
@<TRIPOS>BOND
     1    1    2 1   
     2    1   30 ar  
     3    1   35 ar  
     4    2    3 1   
     5    2   13 1   
     6    2   41 1   
     7    3    4 ar  
     8    3   12 ar  
     9    4    5 ar  
    10    4   42 1   
    11    5    6 ar  
    12    5   43 1   
    13    6    7 ar  
    14    6   44 1   
    15    7    8 ar  
    16    7   12 ar  
    17    8    9 ar  
    18    8   45 1   
    19    9   10 ar  
    20    9   46 1   
    21   10   11 ar  
    22   10   47 1   
    23   11   12 ar  
    24   11   48 1   
    25   13   14 1   
    26   14   15 1   
    27   14   27 1   
    28   14   49 1   
    29   15   16 1   
    30   15   50 1   
    31   15   51 1   
    32   16   17 2   
    33   16   18 1   
    34   18   19 1   
    35   18   52 1   
    36   19   20 1   
    37   19   24 1   
    38   19   53 1   
    39   20   21 1   
    40   20   54 1   
    41   20   55 1   
    42   21   22 1   
    43   21   23 1   
    44   24   25 1   
    45   24   26 1   
    46   27   28 2   
    47   27   29 1   
    48   29   30 1   
    49   29   36 1   
    50   30   31 ar  
    51   31   32 ar  
    52   31   56 1   
    53   32   33 ar  
    54   32   57 1   
    55   33   34 1   
    56   33   35 ar  
    57   35   58 1   
    58   36   37 1   
    59   36   59 1   
    60   36   60 1   
    61   37   38 1   
    62   37   39 1   
    63   37   40 1   
    64   38   61 1   
    65   38   62 1   
    66   38   63 1   
    67   39   64 1   
    68   39   65 1   
    69   39   66 1   
    70   40   67 1   
    71   40   68 1   
    72   40   69 1   
@<TRIPOS>SUBSTRUCTURE
     1 IN0         1 TEMP              0 ****  ****    0 ROOT
