@<TRIPOS>MOLECULE
IN0
   70    73     1     0     0
SMALL
bcc


@<TRIPOS>ATOM
      1 C1         -0.0140   -0.0780    0.0600 ca        1 IN0     -0.130300
      2 C7          1.4890   -0.1410    0.1180 c3        1 IN0      0.241700
      3 C17         2.1700    1.1320   -0.3070 ca        1 IN0     -0.124300
      4 C28         2.4710    2.0850    0.6420 ca        1 IN0     -0.064000
      5 C27         3.1510    3.2760    0.2920 ca        1 IN0     -0.099000
      6 C26         3.5180    3.4980   -1.0100 ca        1 IN0     -0.137000
      7 C16         3.2170    2.5400   -2.0170 ca        1 IN0     -0.045000
      8 C29         3.5920    2.7680   -3.3690 ca        1 IN0     -0.114000
      9 C30         3.3010    1.8490   -4.3460 ca        1 IN0     -0.146000
     10 C31         2.6170    0.6590   -4.0110 ca        1 IN0     -0.137000
     11 C33         2.2430    0.4130   -2.7120 ca        1 IN0     -0.125000
     12 C15         2.5340    1.3410   -1.6740 ca        1 IN0     -0.019000
     13 O6          1.9830   -0.4340    1.4380 os        1 IN0     -0.398600
     14 C5          1.1980   -1.3440    2.1980 c3        1 IN0      0.092100
     15 C14         2.0350   -1.7100    3.4200 c3        1 IN0     -0.148400
     16 C11         1.8840   -0.6730    4.5240 c         1 IN0      0.646100
     17 O58         1.2090   -0.9570    5.5440 o         1 IN0     -0.662100
     18 N23         2.5580    0.5090    4.3930 n         1 IN0     -0.518900
     19 C38         2.3820    1.6140    5.3090 c3        1 IN0     -0.061300
     20 C61         3.5740    1.8280    6.2450 c3        1 IN0     -0.173400
     21 C62         3.9090    0.7230    7.1940 c         1 IN0      0.633100
     22 O64         5.0280    0.5240    7.6870 o         1 IN0     -0.555000
     23 O63         2.9710   -0.1440    7.6650 oh        1 IN0     -0.603100
     24 C60         2.1890    2.9930    4.5620 c         1 IN0      0.919600
     25 O66         2.6780    3.1200    3.4060 o         1 IN0     -0.822300
     26 O65         1.5710    3.8780    5.2020 o         1 IN0     -0.822300
     27 C4          0.8690   -2.6070    1.3860 c         1 IN0      0.676500
     28 O13         1.4370   -3.6950    1.5890 o         1 IN0     -0.622500
     29 N3         -0.1430   -2.5150    0.4240 n         1 IN0     -0.390000
     30 C2         -0.7750   -1.2720    0.1770 ca        1 IN0      0.064600
     31 C8         -2.1820   -1.1940    0.0800 ca        1 IN0     -0.153000
     32 C9         -2.8150    0.0240   -0.1370 ca        1 IN0     -0.106000
     33 C20        -2.0570    1.1920   -0.2400 ca        1 IN0      0.000400
     34 CL36       -2.8330    2.6820   -0.4950 cl        1 IN0     -0.090400
     35 C21        -0.6650    1.1410   -0.1290 ca        1 IN0     -0.067000
     36 C43        -0.5460   -3.6890   -0.3170 c3        1 IN0      0.103000
     37 C10         0.1110   -3.9050   -1.7000 c3        1 IN0     -0.072000
     38 C32        -0.3600   -5.2650   -2.2030 c3        1 IN0     -0.089433
     39 C25         1.6260   -3.9130   -1.5850 c3        1 IN0     -0.089433
     40 C24        -0.3300   -2.8320   -2.6790 c3        1 IN0     -0.089433
     41 H7          1.8410   -0.9920   -0.5410 h1        1 IN0      0.056700
     42 H28         2.2010    1.9420    1.7090 ha        1 IN0      0.204000
     43 H27         3.3660    3.9920    1.1060 ha        1 IN0      0.182000
     44 H26         4.0510    4.4160   -1.3000 ha        1 IN0      0.125000
     45 H29         4.1220    3.7010   -3.6140 ha        1 IN0      0.125000
     46 H30         3.5930    2.0260   -5.3910 ha        1 IN0      0.121000
     47 H31         2.3870   -0.0670   -4.8040 ha        1 IN0      0.121000
     48 H33         1.7010   -0.5150   -2.4720 ha        1 IN0      0.127000
     49 H5          0.2390   -0.8420    2.5160 h1        1 IN0      0.081700
     50 H141        1.6820   -2.6960    3.8230 hc        1 IN0      0.092700
     51 H142        3.1100   -1.8180    3.1230 hc        1 IN0      0.092700
     52 H23         2.9210    0.7620    3.4950 hn        1 IN0      0.338500
     53 H38         1.4500    1.4390    5.9220 h1        1 IN0      0.068700
     54 H611        3.3380    2.7420    6.8610 hc        1 IN0      0.093200
     55 H612        4.4910    2.0560    5.6390 hc        1 IN0      0.093200
     56 H8         -2.8010   -2.0970    0.1890 ha        1 IN0      0.139000
     57 H9         -3.9120    0.0630   -0.2110 ha        1 IN0      0.143000
     58 H21        -0.0720    2.0710   -0.1870 ha        1 IN0      0.178000
     59 H431       -0.3020   -4.5900    0.3200 h1        1 IN0      0.060200
     60 H432       -1.6620   -3.6570   -0.4720 h1        1 IN0      0.060200
     61 H321       -1.4750   -5.3060   -2.2380 hc        1 IN0      0.037589
     62 H322        0.0340   -5.4480   -3.2320 hc        1 IN0      0.037589
     63 H323        0.0090   -6.0770   -1.5310 hc        1 IN0      0.037589
     64 H251        2.0160   -2.8760   -1.4490 hc        1 IN0      0.037589
     65 H252        1.9450   -4.5270   -0.7080 hc        1 IN0      0.037589
     66 H253        2.0800   -4.3390   -2.5120 hc        1 IN0      0.037589
     67 H241       -0.0540   -1.8170   -2.3020 hc        1 IN0      0.037589
     68 H242        0.1650   -2.9890   -3.6680 hc        1 IN0      0.037589
     69 H243       -1.4360   -2.8680   -2.8260 hc        1 IN0      0.037589
     70 H232        2.1340   -0.0410    7.1830 ho        1 IN0      0.457000
@<TRIPOS>BOND
     1    1    2 1   
     2    1   30 ar  
     3    1   35 ar  
     4    2    3 1   
     5    2   13 1   
     6    2   41 1   
     7    3    4 ar  
     8    3   12 ar  
     9    4    5 ar  
    10    4   42 1   
    11    5    6 ar  
    12    5   43 1   
    13    6    7 ar  
    14    6   44 1   
    15    7    8 ar  
    16    7   12 ar  
    17    8    9 ar  
    18    8   45 1   
    19    9   10 ar  
    20    9   46 1   
    21   10   11 ar  
    22   10   47 1   
    23   11   12 ar  
    24   11   48 1   
    25   13   14 1   
    26   14   15 1   
    27   14   27 1   
    28   14   49 1   
    29   15   16 1   
    30   15   50 1   
    31   15   51 1   
    32   16   17 2   
    33   16   18 1   
    34   18   19 1   
    35   18   52 1   
    36   19   20 1   
    37   19   24 1   
    38   19   53 1   
    39   20   21 1   
    40   20   54 1   
    41   20   55 1   
    42   21   22 2   
    43   21   23 1   
    44   23   70 1   
    45   24   25 1   
    46   24   26 1   
    47   27   28 2   
    48   27   29 1   
    49   29   30 1   
    50   29   36 1   
    51   30   31 ar  
    52   31   32 ar  
    53   31   56 1   
    54   32   33 ar  
    55   32   57 1   
    56   33   34 1   
    57   33   35 ar  
    58   35   58 1   
    59   36   37 1   
    60   36   59 1   
    61   36   60 1   
    62   37   38 1   
    63   37   39 1   
    64   37   40 1   
    65   38   61 1   
    66   38   62 1   
    67   38   63 1   
    68   39   64 1   
    69   39   65 1   
    70   39   66 1   
    71   40   67 1   
    72   40   68 1   
    73   40   69 1   
@<TRIPOS>SUBSTRUCTURE
     1 IN0         1 TEMP              0 ****  ****    0 ROOT
