@<TRIPOS>MOLECULE
IN0
   70    73     1     0     0
SMALL
bcc


@<TRIPOS>ATOM
      1 C1         -0.0110   -0.0680    0.0570 ca        1 IN0     -0.130300
      2 C7          1.4920   -0.1400    0.1190 c3        1 IN0      0.241700
      3 C17         2.1810    1.1290   -0.3010 ca        1 IN0     -0.124300
      4 C28         2.4860    2.0780    0.6520 ca        1 IN0     -0.064000
      5 C27         3.1740    3.2660    0.3070 ca        1 IN0     -0.099000
      6 C26         3.5460    3.4900   -0.9930 ca        1 IN0     -0.137000
      7 C16         3.2420    2.5360   -2.0040 ca        1 IN0     -0.045000
      8 C29         3.6220    2.7660   -3.3540 ca        1 IN0     -0.114000
      9 C30         3.3290    1.8510   -4.3340 ca        1 IN0     -0.146000
     10 C31         2.6360    0.6640   -4.0040 ca        1 IN0     -0.137000
     11 C33         2.2570    0.4170   -2.7070 ca        1 IN0     -0.125000
     12 C15         2.5500    1.3400   -1.6660 ca        1 IN0     -0.019000
     13 O6          1.9800   -0.4400    1.4400 os        1 IN0     -0.398600
     14 C5          1.1880   -1.3470    2.1950 c3        1 IN0      0.092100
     15 C14         2.0190   -1.7210    3.4180 c3        1 IN0     -0.148400
     16 C11         1.8720   -0.6880    4.5250 c         1 IN0      0.646100
     17 O58         1.1920   -0.9700    5.5420 o         1 IN0     -0.662100
     18 N23         2.5530    0.4920    4.3980 ns        1 IN0     -0.518900
     19 C38         2.3810    1.5950    5.3170 c3        1 IN0     -0.061300
     20 C61         3.5710    1.7990    6.2570 c3        1 IN0     -0.173400
     21 C62         3.8980    0.6900    7.2040 c         1 IN0      0.633100
     22 O64         5.0150    0.4820    7.6990 o         1 IN0     -0.555000
     23 O63         2.9540   -0.1740    7.6700 oh        1 IN0     -0.603100
     24 C60         2.1980    2.9770    4.5740 c         1 IN0      0.919600
     25 O66         2.6900    3.1040    3.4190 o         1 IN0     -0.822300
     26 O65         1.5840    3.8640    5.2150 o         1 IN0     -0.822300
     27 C4          0.8540   -2.6060    1.3780 c         1 IN0      0.676500
     28 O13         1.4150   -3.6970    1.5800 o         1 IN0     -0.622500
     29 N3         -0.1550   -2.5060    0.4140 n         1 IN0     -0.390000
     30 C2         -0.7790   -1.2580    0.1690 ca        1 IN0      0.064600
     31 C8         -2.1850   -1.1710    0.0680 ca        1 IN0     -0.153000
     32 C9         -2.8100    0.0510   -0.1470 ca        1 IN0     -0.106000
     33 C20        -2.0450    1.2150   -0.2450 ca        1 IN0      0.000400
     34 Cl36       -2.8110    2.7100   -0.4980 cl        1 IN0     -0.090400
     35 C21        -0.6540    1.1550   -0.1310 ca        1 IN0     -0.067000
     36 C43        -0.5630   -3.6750   -0.3310 c3        1 IN0      0.103000
     37 C10         0.0960   -3.8910   -1.7130 c3        1 IN0     -0.072000
     38 C32        -0.3810   -5.2470   -2.2210 c3        1 IN0     -0.089433
     39 C25         1.6100   -3.9090   -1.5950 c3        1 IN0     -0.089433
     40 C24        -0.3360   -2.8130   -2.6910 c3        1 IN0     -0.089433
     41 H7          1.8410   -0.9920   -0.5410 h1        1 IN0      0.056700
     42 H28         2.2120    1.9340    1.7180 ha        1 IN0      0.204000
     43 H27         3.3910    3.9790    1.1230 ha        1 IN0      0.182000
     44 H26         4.0840    4.4050   -1.2790 ha        1 IN0      0.125000
     45 H29         4.1590    3.6960   -3.5950 ha        1 IN0      0.125000
     46 H30         3.6240    2.0280   -5.3780 ha        1 IN0      0.121000
     47 H31         2.4040   -0.0590   -4.8000 ha        1 IN0      0.121000
     48 H33         1.7090   -0.5090   -2.4710 ha        1 IN0      0.127000
     49 H5          0.2310   -0.8410    2.5110 h1        1 IN0      0.081700
     50 H141        1.6590   -2.7070    3.8170 hc        1 IN0      0.092700
     51 H142        3.0950   -1.8350    3.1240 hc        1 IN0      0.092700
     52 H23         2.9190    0.7450    3.5020 hn        1 IN0      0.338500
     53 H38         1.4460    1.4240    5.9280 h1        1 IN0      0.068700
     54 H611        4.4920    2.0230    5.6540 hc        1 IN0      0.093200
     55 H612        3.3390    2.7120    6.8750 hc        1 IN0      0.093200
     56 H8         -2.8100   -2.0710    0.1730 ha        1 IN0      0.139000
     57 H9         -3.9070    0.0970   -0.2240 ha        1 IN0      0.143000
     58 H21        -0.0550    2.0820   -0.1840 ha        1 IN0      0.178000
     59 H431       -1.6780   -3.6360   -0.4900 h1        1 IN0      0.060200
     60 H432       -0.3270   -4.5790    0.3040 h1        1 IN0      0.060200
     61 H321       -0.0190   -6.0620   -1.5510 hc        1 IN0      0.037589
     62 H322       -1.4960   -5.2810   -2.2590 hc        1 IN0      0.037589
     63 H323        0.0140   -5.4290   -3.2490 hc        1 IN0      0.037589
     64 H251        1.9230   -4.5270   -0.7180 hc        1 IN0      0.037589
     65 H252        2.0650   -4.3340   -2.5210 hc        1 IN0      0.037589
     66 H253        2.0070   -2.8740   -1.4550 hc        1 IN0      0.037589
     67 H241       -0.0550   -1.8000   -2.3100 hc        1 IN0      0.037589
     68 H242        0.1610   -2.9690   -3.6790 hc        1 IN0      0.037589
     69 H243       -1.4420   -2.8410   -2.8410 hc        1 IN0      0.037589
     70 H232        2.1190   -0.0640    7.1860 ho        1 IN0      0.457000
@<TRIPOS>BOND
     1    1    2 1   
     2    1   30 ar  
     3    1   35 ar  
     4    2    3 1   
     5    2   13 1   
     6    2   41 1   
     7    3    4 ar  
     8    3   12 ar  
     9    4    5 ar  
    10    4   42 1   
    11    5    6 ar  
    12    5   43 1   
    13    6    7 ar  
    14    6   44 1   
    15    7    8 ar  
    16    7   12 ar  
    17    8    9 ar  
    18    8   45 1   
    19    9   10 ar  
    20    9   46 1   
    21   10   11 ar  
    22   10   47 1   
    23   11   12 ar  
    24   11   48 1   
    25   13   14 1   
    26   14   15 1   
    27   14   27 1   
    28   14   49 1   
    29   15   16 1   
    30   15   50 1   
    31   15   51 1   
    32   16   17 2   
    33   16   18 1   
    34   18   19 1   
    35   18   52 1   
    36   19   20 1   
    37   19   24 1   
    38   19   53 1   
    39   20   21 1   
    40   20   54 1   
    41   20   55 1   
    42   21   22 2   
    43   21   23 1   
    44   23   70 1   
    45   24   25 1   
    46   24   26 1   
    47   27   28 2   
    48   27   29 1   
    49   29   30 1   
    50   29   36 1   
    51   30   31 ar  
    52   31   32 ar  
    53   31   56 1   
    54   32   33 ar  
    55   32   57 1   
    56   33   34 1   
    57   33   35 ar  
    58   35   58 1   
    59   36   37 1   
    60   36   59 1   
    61   36   60 1   
    62   37   38 1   
    63   37   39 1   
    64   37   40 1   
    65   38   61 1   
    66   38   62 1   
    67   38   63 1   
    68   39   64 1   
    69   39   65 1   
    70   39   66 1   
    71   40   67 1   
    72   40   68 1   
    73   40   69 1   
@<TRIPOS>SUBSTRUCTURE
     1 IN0         1 TEMP              0 ****  ****    0 ROOT
