@<TRIPOS>MOLECULE
IN1
   47    47     1     0     0
SMALL
bcc


@<TRIPOS>ATOM
      1 C1         -0.1940   -0.3770   -0.0030 c3        1 IN1      0.141400
      2 C2         -0.7030    0.3720    1.2140 c3        1 IN1     -0.059400
      3 C3         -0.5140    0.6570    3.7080 c3        1 IN1      0.079400
      4 C7         -0.1660   -0.2300    8.3870 c3        1 IN1     -0.096100
      5 C1B        -0.5440   -0.4160   -2.3540 c3        1 IN1      0.309900
      6 C2B        -1.5610    0.0680   -3.4060 c3        1 IN1      0.088100
      7 C3B        -1.0220   -0.2490   -4.8080 c3        1 IN1      0.108100
      8 C4B         0.3850    0.3520   -4.9670 c3        1 IN1      0.122100
      9 C5B         1.2980   -0.1490   -3.8370 c3        1 IN1      0.107100
     10 C6B         2.6570    0.5550   -3.8780 c3        1 IN1      0.141400
     11 O5B         0.7360    0.1700   -2.5620 os        1 IN1     -0.446600
     12 O2B        -2.7860   -0.6280   -3.2720 oh        1 IN1     -0.604800
     13 O3B        -1.8290    0.3470   -5.8090 oh        1 IN1     -0.606800
     14 O4B         0.9660   -0.0690   -6.1880 oh        1 IN1     -0.594800
     15 O6B         3.5340    0.0270   -2.9090 oh        1 IN1     -0.595800
     16 O1B        -0.9430    0.1290   -1.1170 os        1 IN1     -0.430600
     17 C6         -0.0260   -0.1450    2.4860 c3        1 IN1      0.347600
     18 O1R         1.3730   -0.0550    2.3270 oh        1 IN1     -0.612300
     19 O2          0.1760    0.0910    4.8320 os        1 IN1     -0.475900
     20 C4         -0.1030    0.6300    6.0640 c         1 IN1      0.639100
     21 C5          0.6870   -0.0070    7.1640 c3        1 IN1     -0.125400
     22 O3         -0.9240    1.5450    6.1140 o         1 IN1     -0.524000
     23 O4S        -0.3070   -1.5220    2.6210 oh        1 IN1     -0.612300
     24 H11         0.9000   -0.1860   -0.1610 h1        1 IN1      0.058700
     25 H12        -0.3770   -1.4790    0.1000 h1        1 IN1      0.058700
     26 H21        -1.8090    0.2320    1.3170 hc        1 IN1      0.070700
     27 H22        -0.4850    1.4650    1.1090 hc        1 IN1      0.070700
     28 H31        -1.6180    0.5400    3.8510 h1        1 IN1      0.075700
     29 H32        -0.2450    1.7390    3.6140 h1        1 IN1      0.075700
     30 H71         0.4720   -0.5930    9.2280 hc        1 IN1      0.051700
     31 H72        -0.6650    0.7210    8.6950 hc        1 IN1      0.051700
     32 H73        -0.9560   -0.9930    8.1850 hc        1 IN1      0.051700
     33 H1B        -0.4690   -1.5380   -2.3240 h2        1 IN1      0.056700
     34 H2B        -1.7290    1.1750   -3.2910 h1        1 IN1      0.076700
     35 H3B        -0.9920   -1.3630   -4.9640 h1        1 IN1      0.064700
     36 H4B         0.3160    1.4760   -4.9450 h1        1 IN1      0.063700
     37 H5B         1.4350   -1.2630   -3.9190 h1        1 IN1      0.068700
     38 H6B1        3.1430    0.3540   -4.8700 h1        1 IN1      0.063700
     39 H6B2        2.5200    1.6580   -3.7250 h1        1 IN1      0.063700
     40 HO2        -3.1110   -0.4430   -2.3810 ho        1 IN1      0.425000
     41 HO3        -2.7310    0.0340   -5.6580 ho        1 IN1      0.427000
     42 HO4         0.3390    0.1700   -6.8850 ho        1 IN1      0.425000
     43 HO6         3.1170    0.1600   -2.0470 ho        1 IN1      0.412000
     44 HO1         1.7830   -0.2770    3.1730 ho        1 IN1      0.416000
     45 H51         1.5390    0.6870    7.4020 hc        1 IN1      0.078700
     46 H52         1.1230   -0.9760    6.8030 hc        1 IN1      0.078700
     47 HOS4        0.0410   -1.8130    3.4740 ho        1 IN1      0.416000
@<TRIPOS>BOND
     1    1    2 1   
     2    1   16 1   
     3    1   24 1   
     4    1   25 1   
     5    2   17 1   
     6    2   26 1   
     7    2   27 1   
     8    3   17 1   
     9    3   19 1   
    10    3   28 1   
    11    3   29 1   
    12    4   21 1   
    13    4   30 1   
    14    4   31 1   
    15    4   32 1   
    16    5    6 1   
    17    5   11 1   
    18    5   16 1   
    19    5   33 1   
    20    6    7 1   
    21    6   12 1   
    22    6   34 1   
    23    7    8 1   
    24    7   13 1   
    25    7   35 1   
    26    8    9 1   
    27    8   14 1   
    28    8   36 1   
    29    9   10 1   
    30    9   11 1   
    31    9   37 1   
    32   10   15 1   
    33   10   38 1   
    34   10   39 1   
    35   12   40 1   
    36   13   41 1   
    37   14   42 1   
    38   15   43 1   
    39   17   18 1   
    40   17   23 1   
    41   18   44 1   
    42   19   20 1   
    43   20   21 1   
    44   20   22 2   
    45   21   45 1   
    46   21   46 1   
    47   23   47 1   
@<TRIPOS>SUBSTRUCTURE
     1 IN1         1 TEMP              0 ****  ****    0 ROOT
