@<TRIPOS>MOLECULE
IN2
   36    34     1     0     0
SMALL
bcc


@<TRIPOS>ATOM
      1 N1         -0.1650    0.0750   -0.9020 n4        1 IN2     -0.837600
      2 C2          1.2780    0.0380   -0.5280 c3        1 IN2      0.101800
      3 C3          1.5260    0.2760    0.9610 c3        1 IN2     -0.106400
      4 C4          3.0170    0.1960    1.2560 c3        1 IN2     -0.116400
      5 C5          3.2540    0.3990    2.7520 c3        1 IN2      0.108800
      6 N6          4.5980    0.1200    3.2730 n3        1 IN2     -0.601000
      7 N7          5.5750    1.1380    3.1530 n4        1 IN2     -0.435600
      8 C8          5.9790    1.6620    4.5360 c         1 IN2      0.517100
      9 O8          5.8170    2.8490    4.7490 o         1 IN2     -0.287100
     10 N9          6.5370    0.7020    5.5260 n4        1 IN2     -0.537200
     11 C10         5.5270    0.4700    6.6140 c3        1 IN2      0.079600
     12 C11         7.8070    1.2640    6.1020 c3        1 IN2      0.079600
     13 C12         8.1670   -1.9150    2.8790 c1        1 IN2      0.937000
     14 O1          7.3890   -1.0510    3.2280 o         1 IN2     -0.462000
     15 O2          8.9130   -2.7520    2.5400 o         1 IN2     -0.462000
     16 HN11       -0.6920   -0.6500   -0.3990 hn        1 IN2      0.478467
     17 HN12       -0.5760    0.9910   -0.6800 hn        1 IN2      0.478467
     18 H21         1.6790   -0.9760   -0.8290 hx        1 IN2      0.122200
     19 H22         1.8070    0.8270   -1.1390 hx        1 IN2      0.122200
     20 H31         1.1370    1.2860    1.2620 hc        1 IN2      0.085700
     21 H32         0.9830   -0.4960    1.5710 hc        1 IN2      0.085700
     22 H41         3.5580    0.9810    0.6650 hc        1 IN2      0.073700
     23 H42         3.4060   -0.8070    0.9310 hc        1 IN2      0.073700
     24 H51         2.9190    1.4340    3.0540 h1        1 IN2      0.125200
     25 H52         2.6240   -0.3450    3.3380 h1        1 IN2      0.125200
     26 HN7         6.4380    0.7930    2.6770 hn        1 IN2      0.498800
     27 H101        5.9780   -0.2480    7.3580 hx        1 IN2      0.139033
     28 H102        4.5940    0.0240    6.1750 hx        1 IN2      0.139033
     29 H103        5.2950    1.4430    7.1300 hx        1 IN2      0.139033
     30 H111        8.1820    0.5410    6.8830 hx        1 IN2      0.139033
     31 H112        7.6010    2.2610    6.5840 hx        1 IN2      0.139033
     32 H113        8.5740    1.3770    5.2880 hx        1 IN2      0.139033
     33 H13        -0.2640   -0.0910   -1.9150 hn        1 IN2      0.478467
     34 H61         4.9730   -0.7330    2.8530 hn        1 IN2      0.441800
     35 H72         5.2180    1.9680    2.6310 hn        1 IN2      0.498800
     36 H91         6.7540   -0.2080    5.0750 hn        1 IN2      0.499800
@<TRIPOS>BOND
     1    1    2 1   
     2    1   16 1   
     3    1   17 1   
     4    1   33 1   
     5    2    3 1   
     6    2   18 1   
     7    2   19 1   
     8    3    4 1   
     9    3   20 1   
    10    3   21 1   
    11    4    5 1   
    12    4   22 1   
    13    4   23 1   
    14    5    6 1   
    15    5   24 1   
    16    5   25 1   
    17    6    7 1   
    18    6   34 1   
    19    7    8 1   
    20    7   26 1   
    21    7   35 1   
    22    8    9 2   
    23    8   10 1   
    24   10   11 1   
    25   10   12 1   
    26   10   36 1   
    27   11   27 1   
    28   11   28 1   
    29   11   29 1   
    30   12   30 1   
    31   12   31 1   
    32   12   32 1   
    33   13   14 2   
    34   13   15 2   
@<TRIPOS>SUBSTRUCTURE
     1 IN2         1 TEMP              0 ****  ****    0 ROOT
