@<TRIPOS>MOLECULE
IN2
   32    31     1     0     0
SMALL
bcc


@<TRIPOS>ATOM
      1 N1          1.4670    0.2910   -5.5410 n3        1 IN2     -0.916800
      2 C2          1.0740   -0.4730   -4.3770 c3        1 IN2      0.150800
      3 C3          0.5510    0.3740   -3.2190 c3        1 IN2     -0.085400
      4 C4          0.1330   -0.5140   -2.0670 c3        1 IN2     -0.085400
      5 C5         -0.4300    0.3420   -0.9280 c3        1 IN2      0.092000
      6 N6         -0.9950   -0.4390    0.1610 n         1 IN2     -0.428400
      7 N7         -0.1260   -1.1760    0.8980 n         1 IN2     -0.289500
      8 C8          0.7240   -0.6370    1.9390 c         1 IN2      0.681100
      9 O8          1.4410   -1.4590    2.5670 o         1 IN2     -0.669100
     10 N9          0.9470    0.7540    2.1320 n         1 IN2     -0.457800
     11 C10        -0.1970    1.6260    2.2380 c3        1 IN2      0.062800
     12 C11         2.0620    1.0990    2.9750 c3        1 IN2      0.062800
     13 C12        -2.2630    0.0690    0.7680 c         1 IN2      0.990600
     14 O1         -2.6080   -0.4440    1.8700 o         1 IN2     -0.812300
     15 O2         -2.9020    0.9400    0.1210 o         1 IN2     -0.812300
     16 HN11        0.8680    1.0830   -5.6680 hn        1 IN2      0.337300
     17 HN12        1.4180   -0.2810   -6.3610 hn        1 IN2      0.337300
     18 H21         1.9860   -1.0380   -4.0320 h1        1 IN2      0.025700
     19 H22         0.2850   -1.2450   -4.6270 h1        1 IN2      0.025700
     20 H31        -0.3260    0.9870   -3.5580 hc        1 IN2      0.040200
     21 H32         1.3470    1.0880   -2.8810 hc        1 IN2      0.040200
     22 H41         1.0130   -1.1060   -1.7060 hc        1 IN2      0.043700
     23 H42        -0.6430   -1.2440   -2.4130 hc        1 IN2      0.043700
     24 H51        -1.2670    0.9810   -1.3330 h1        1 IN2      0.046200
     25 H52         0.3940    1.0300   -0.5770 h1        1 IN2      0.046200
     26 HN7        -0.6510   -1.9370    1.3210 hn        1 IN2      0.300500
     27 H101        0.0540    2.5190    2.8700 h1        1 IN2      0.038367
     28 H102       -0.4870    1.9880    1.2140 h1        1 IN2      0.038367
     29 H103       -1.0860    1.1050    2.6920 h1        1 IN2      0.038367
     30 H111        2.9220    0.4110    2.7610 h1        1 IN2      0.038367
     31 H112        2.3670    2.1550    2.7490 h1        1 IN2      0.038367
     32 H113        1.8140    1.0220    4.0690 h1        1 IN2      0.038367
@<TRIPOS>BOND
     1    1    2 1   
     2    1   16 1   
     3    1   17 1   
     4    2    3 1   
     5    2   18 1   
     6    2   19 1   
     7    3    4 1   
     8    3   20 1   
     9    3   21 1   
    10    4    5 1   
    11    4   22 1   
    12    4   23 1   
    13    5    6 1   
    14    5   24 1   
    15    5   25 1   
    16    6    7 1   
    17    6   13 1   
    18    7    8 1   
    19    7   26 1   
    20    8    9 2   
    21    8   10 1   
    22   10   11 1   
    23   10   12 1   
    24   11   27 1   
    25   11   28 1   
    26   11   29 1   
    27   12   30 1   
    28   12   31 1   
    29   12   32 1   
    30   13   14 1   
    31   13   15 1   
@<TRIPOS>SUBSTRUCTURE
     1 IN2         1 TEMP              0 ****  ****    0 ROOT
