@<TRIPOS>MOLECULE
IN2
   36    34     1     0     0
SMALL
bcc


@<TRIPOS>ATOM
      1 N1         -0.1910    0.1830   -0.8780 nz        1 IN2     -0.837600
      2 C2          1.2530    0.1190   -0.5130 c3        1 IN2      0.101800
      3 C3          1.5140    0.3380    0.9770 c3        1 IN2     -0.106400
      4 C4          3.0050    0.2330    1.2620 c3        1 IN2     -0.116400
      5 C5          3.2540    0.4170    2.7590 c3        1 IN2      0.108800
      6 N6          4.5970    0.1120    3.2690 n7        1 IN2     -0.601000
      7 N7          5.5880    1.1150    3.1530 ny        1 IN2     -0.435600
      8 C8          6.0090    1.6200    4.5380 c         1 IN2      0.517100
      9 O8          5.8670    2.8070    4.7640 o         1 IN2     -0.287100
     10 N9          6.5570    0.6410    5.5160 nx        1 IN2     -0.537200
     11 C10         5.5500    0.4150    6.6070 c3        1 IN2      0.079600
     12 C11         7.8400    1.1780    6.0900 c3        1 IN2      0.079600
     13 C12         8.1300   -1.9760    2.8340 c1        1 IN2      0.937000
     14 O1          7.3690   -1.1030    3.1960 o         1 IN2     -0.462000
     15 O2          8.8600   -2.8210    2.4830 o         1 IN2     -0.462000
     16 HN11       -0.7250   -0.5390   -0.3790 hn        1 IN2      0.478467
     17 HN12       -0.5860    1.1020   -0.6440 hn        1 IN2      0.478467
     18 H21         1.6370   -0.8970   -0.8260 hx        1 IN2      0.122200
     19 H22         1.7910    0.9070   -1.1190 hx        1 IN2      0.122200
     20 H31         1.1420    1.3510    1.2910 hc        1 IN2      0.085700
     21 H32         0.9630   -0.4310    1.5830 hc        1 IN2      0.085700
     22 H41         3.5550    1.0150    0.6750 hc        1 IN2      0.073700
     23 H42         3.3770   -0.7730    0.9250 hc        1 IN2      0.073700
     24 H51         2.9370    1.4540    3.0730 h1        1 IN2      0.125200
     25 H52         2.6160   -0.3220    3.3410 h1        1 IN2      0.125200
     26 HN7         6.4430    0.7610    2.6690 hn        1 IN2      0.498800
     27 H101        5.9940   -0.3170    7.3420 hx        1 IN2      0.139033
     28 H102        4.6080   -0.0120    6.1700 hx        1 IN2      0.139033
     29 H103        5.3360    1.3870    7.1350 hx        1 IN2      0.139033
     30 H111        8.2080    0.4420    6.8620 hx        1 IN2      0.139033
     31 H112        7.6520    2.1740    6.5830 hx        1 IN2      0.139033
     32 H113        8.6030    1.2870    5.2730 hx        1 IN2      0.139033
     33 H13        -0.2980    0.0280   -1.8920 hn        1 IN2      0.478467
     34 H61         4.9550   -0.7430    2.8390 hn        1 IN2      0.441800
     35 H72         5.2410    1.9560    2.6410 hn        1 IN2      0.498800
     36 H91         6.7580   -0.2670    5.0550 hn        1 IN2      0.499800
@<TRIPOS>BOND
     1    1    2 1   
     2    1   16 1   
     3    1   17 1   
     4    1   33 1   
     5    2    3 1   
     6    2   18 1   
     7    2   19 1   
     8    3    4 1   
     9    3   20 1   
    10    3   21 1   
    11    4    5 1   
    12    4   22 1   
    13    4   23 1   
    14    5    6 1   
    15    5   24 1   
    16    5   25 1   
    17    6    7 1   
    18    6   34 1   
    19    7    8 1   
    20    7   26 1   
    21    7   35 1   
    22    8    9 2   
    23    8   10 1   
    24   10   11 1   
    25   10   12 1   
    26   10   36 1   
    27   11   27 1   
    28   11   28 1   
    29   11   29 1   
    30   12   30 1   
    31   12   31 1   
    32   12   32 1   
    33   13   14 2   
    34   13   15 2   
@<TRIPOS>SUBSTRUCTURE
     1 IN2         1 TEMP              0 ****  ****    0 ROOT
