@<TRIPOS>MOLECULE
IN2
   36    34     1     0     0
SMALL
bcc


@<TRIPOS>ATOM
      1 N1         -0.2060    0.3630   -0.8640 n4        1 IN2     -0.837600
      2 C2          1.2320    0.2120   -0.4990 c3        1 IN2      0.101800
      3 C3          1.5130    0.4650    0.9820 c3        1 IN2     -0.106400
      4 C4          2.9940    0.2660    1.2690 c3        1 IN2     -0.116400
      5 C5          3.2600    0.4850    2.7580 c3        1 IN2      0.108800
      6 N6          4.5800    0.1060    3.2770 n3        1 IN2     -0.601000
      7 N7          5.6390    1.0330    3.1240 n4        1 IN2     -0.435600
      8 C8          6.0990    1.5560    4.4900 c         1 IN2      0.517100
      9 O8          6.0410    2.7570    4.6730 o         1 IN2     -0.287100
     10 N9          6.5810    0.5770    5.5010 n4        1 IN2     -0.537200
     11 C10         5.5640    0.4600    6.6010 c3        1 IN2      0.079600
     12 C11         7.9000    1.0430    6.0540 c3        1 IN2      0.079600
     13 C12         7.9580   -2.2370    2.9130 c1        1 IN2      0.937000
     14 O1          7.2610   -1.3010    3.2440 o         1 IN2     -0.462000
     15 O2          8.6260   -3.1430    2.5910 o         1 IN2     -0.462000
     16 HN11       -0.5360    1.3150   -0.6630 hn        1 IN2      0.478467
     17 HN12       -0.7870   -0.3020   -0.3400 hn        1 IN2      0.478467
     18 H21         1.8210    0.9390   -1.1330 hx        1 IN2      0.122200
     19 H22         1.5430   -0.8390   -0.7760 hx        1 IN2      0.122200
     20 H31         1.2130    1.5120    1.2600 hc        1 IN2      0.085700
     21 H32         0.9110   -0.2420    1.6150 hc        1 IN2      0.085700
     22 H41         3.2930   -0.7750    0.9680 hc        1 IN2      0.073700
     23 H42         3.5950    0.9870    0.6540 hc        1 IN2      0.073700
     24 H51         2.5740   -0.1860    3.3670 h1        1 IN2      0.125200
     25 H52         3.0180    1.5530    3.0350 h1        1 IN2      0.125200
     26 HN7         5.3490    1.8770    2.5820 hn        1 IN2      0.498800
     27 H101        4.5930    0.0840    6.1800 hx        1 IN2      0.139033
     28 H102        5.9590   -0.2750    7.3610 hx        1 IN2      0.139033
     29 H103        5.4200    1.4620    7.0940 hx        1 IN2      0.139033
     30 H111        8.2190    0.3110    6.8510 hx        1 IN2      0.139033
     31 H112        8.6660    1.0690    5.2330 hx        1 IN2      0.139033
     32 H113        7.7840    2.0660    6.5120 hx        1 IN2      0.139033
     33 H13        -0.3270    0.1810   -1.8710 hn        1 IN2      0.478467
     34 H61         4.8770   -0.7860    2.8780 hn        1 IN2      0.441800
     35 H72         6.4650    0.6030    2.6520 hn        1 IN2      0.498800
     36 H91         6.7160   -0.3600    5.0730 hn        1 IN2      0.499800
@<TRIPOS>BOND
     1    1    2 1   
     2    1   16 1   
     3    1   17 1   
     4    1   33 1   
     5    2    3 1   
     6    2   18 1   
     7    2   19 1   
     8    3    4 1   
     9    3   20 1   
    10    3   21 1   
    11    4    5 1   
    12    4   22 1   
    13    4   23 1   
    14    5    6 1   
    15    5   24 1   
    16    5   25 1   
    17    6    7 1   
    18    6   34 1   
    19    7    8 1   
    20    7   26 1   
    21    7   35 1   
    22    8    9 2   
    23    8   10 1   
    24   10   11 1   
    25   10   12 1   
    26   10   36 1   
    27   11   27 1   
    28   11   28 1   
    29   11   29 1   
    30   12   30 1   
    31   12   31 1   
    32   12   32 1   
    33   13   14 2   
    34   13   15 2   
@<TRIPOS>SUBSTRUCTURE
     1 IN2         1 TEMP              0 ****  ****    0 ROOT
