@<TRIPOS>MOLECULE
IN3
   73    75     1     0     0
SMALL
bcc


@<TRIPOS>ATOM
      1 C1          1.5750    0.0330   -0.3510 ca        1 IN3     -0.122000
      2 C2          2.7640    0.0430    0.3790 ca        1 IN3     -0.130500
      3 C3          2.7290    0.1070    1.7720 ca        1 IN3     -0.110500
      4 C4          1.5020    0.1670    2.4390 ca        1 IN3     -0.098300
      5 C5          0.3100    0.1640    1.7050 ca        1 IN3     -0.110500
      6 C6          0.3500    0.0930    0.3140 ca        1 IN3     -0.130500
      7 C7          1.4330    0.1990    3.9290 c3        1 IN3      0.175700
      8 O8          2.5830    0.9190    4.4020 os        1 IN3     -0.321900
      9 C9          2.7010    1.0250    5.7730 ca        1 IN3      0.123100
     10 C10         1.7850    0.5130    6.6990 ca        1 IN3     -0.179000
     11 C11         4.0630    1.8870    7.5720 ca        1 IN3     -0.118600
     12 C12         3.1550    1.3730    8.5060 ca        1 IN3     -0.131000
     13 C14         2.0260    0.6890    8.0630 ca        1 IN3     -0.101000
     14 C17         5.2930    2.6100    7.9920 c         1 IN3      0.645700
     15 O18         6.3810    2.4930    7.4060 o         1 IN3     -0.559100
     16 N19         5.1700    3.4250    9.1510 n         1 IN3     -0.448500
     17 N20         6.1270    4.3330    9.4960 n         1 IN3     -0.346500
     18 C24         3.8520    1.7120    6.2040 ca        1 IN3     -0.105000
     19 C21         6.8700    4.1080   10.7150 c         1 IN3      0.663100
     20 O22         7.9860    4.6580   10.8230 o         1 IN3     -0.599100
     21 C1'         8.4740   -5.7490   17.3680 ca        1 IN3     -0.124000
     22 C2'         9.4160   -4.9950   16.6690 ca        1 IN3     -0.131500
     23 C3'         9.3000   -3.6070   16.6130 ca        1 IN3     -0.111000
     24 C4'         8.2350   -2.9660   17.2550 ca        1 IN3     -0.097300
     25 C5'         7.2860   -3.7260   17.9500 ca        1 IN3     -0.111000
     26 C6'         7.4100   -5.1120   18.0090 ca        1 IN3     -0.131500
     27 C7'         8.1040   -1.4820   17.2470 c3        1 IN3      0.196700
     28 O8'         8.6060   -1.0060   15.9800 os        1 IN3     -0.435900
     29 C9'         8.5440    0.3610   15.8150 c         1 IN3      0.730100
     30 OA'         8.0250    1.0550   16.7050 o         1 IN3     -0.583000
     31 CB'         8.8820    2.1140   14.1530 c3        1 IN3      0.033700
     32 CC'        10.1250    2.8010   13.5580 c3        1 IN3     -0.083400
     33 CE'        11.1290    3.2230   14.6190 c3        1 IN3     -0.066700
     34 CF'        12.4680    3.5050   13.9650 c3        1 IN3     -0.094600
     35 CG'        10.6550    4.4460   15.3780 c3        1 IN3     -0.094600
     36 CH'         7.8260    2.0920   13.0230 c         1 IN3      0.578100
     37 OI'         7.6840    1.1190   12.2640 o         1 IN3     -0.572100
     38 NJ'         6.9590    3.2180   12.9560 n         1 IN3     -0.384500
     39 NK'         6.2140    3.4980   11.8530 n         1 IN3     -0.330500
     40 NO'         9.1670    0.7870   14.6500 n         1 IN3     -0.504900
     41 H1          1.6030   -0.0210   -1.4490 ha        1 IN3      0.133000
     42 H2          3.7310   -0.0000   -0.1420 ha        1 IN3      0.134500
     43 H3          3.6650    0.1220    2.3520 ha        1 IN3      0.139000
     44 H5         -0.6570    0.2190    2.2250 ha        1 IN3      0.139000
     45 H6         -0.5880    0.0870   -0.2610 ha        1 IN3      0.134500
     46 H71         0.5030    0.7210    4.2800 h1        1 IN3      0.049200
     47 H72         1.4590   -0.8470    4.3410 h1        1 IN3      0.049200
     48 H10         0.8860   -0.0280    6.3730 ha        1 IN3      0.144000
     49 H12         3.3330    1.4850    9.5860 ha        1 IN3      0.145000
     50 H14         1.3140    0.2780    8.7950 ha        1 IN3      0.142000
     51 HN9         4.2530    3.8160    9.2970 hn        1 IN3      0.324500
     52 HN0         6.7870    4.5080    8.7410 hn        1 IN3      0.313500
     53 H24         4.5750    2.0930    5.4660 ha        1 IN3      0.171000
     54 H2'        10.2530   -5.4950   16.1600 ha        1 IN3      0.133000
     55 H3'        10.0380   -3.0070   16.0580 ha        1 IN3      0.138500
     56 H5'         6.4430   -3.2270   18.4500 ha        1 IN3      0.138500
     57 H6'         6.6650   -5.7050   18.5590 ha        1 IN3      0.133000
     58 H7'1        7.0350   -1.1550   17.3530 h1        1 IN3      0.064700
     59 H7'2        8.7150   -1.0180   18.0680 h1        1 IN3      0.064700
     60 H11'        8.4980    2.7320   15.0230 h1        1 IN3      0.113700
     61 H12A       10.6210    2.1100   12.8250 hc        1 IN3      0.063700
     62 H12B        9.7860    3.7070   12.9860 hc        1 IN3      0.063700
     63 H14'       11.2650    2.3780   15.3520 hc        1 IN3      0.063700
     64 H15A       13.2100    3.8320   14.7340 hc        1 IN3      0.037200
     65 H15B       12.3690    4.3140   13.2020 hc        1 IN3      0.037200
     66 H15C       12.8600    2.5880   13.4630 hc        1 IN3      0.037200
     67 H16A       11.4220    4.7480   16.1320 hc        1 IN3      0.037200
     68 H16B       10.4890    5.3030   14.6810 hc        1 IN3      0.037200
     69 H16C        9.7010    4.2340   15.9170 hc        1 IN3      0.037200
     70 HN1         7.3600    4.0630   13.3360 hn        1 IN3      0.320500
     71 HN2         5.6690    2.6830   11.5970 hn        1 IN3      0.315500
     72 HN4         9.3520    0.0900   13.9590 hn        1 IN3      0.331500
     73 H1'         8.5680   -6.8430   17.4140 ha        1 IN3      0.132000
@<TRIPOS>BOND
     1    1    2 ar  
     2    1    6 ar  
     3    1   41 1   
     4    2    3 ar  
     5    2   42 1   
     6    3    4 ar  
     7    3   43 1   
     8    4    5 ar  
     9    4    7 1   
    10    5    6 ar  
    11    5   44 1   
    12    6   45 1   
    13    7    8 1   
    14    7   46 1   
    15    7   47 1   
    16    8    9 1   
    17    9   10 ar  
    18    9   18 ar  
    19   10   13 ar  
    20   10   48 1   
    21   11   12 ar  
    22   11   14 1   
    23   11   18 ar  
    24   12   13 ar  
    25   12   49 1   
    26   13   50 1   
    27   14   15 2   
    28   14   16 1   
    29   16   17 1   
    30   16   51 1   
    31   17   19 1   
    32   17   52 1   
    33   18   53 1   
    34   19   20 2   
    35   19   39 1   
    36   21   22 ar  
    37   21   26 ar  
    38   21   73 1   
    39   22   23 ar  
    40   22   54 1   
    41   23   24 ar  
    42   23   55 1   
    43   24   25 ar  
    44   24   27 1   
    45   25   26 ar  
    46   25   56 1   
    47   26   57 1   
    48   27   28 1   
    49   27   58 1   
    50   27   59 1   
    51   28   29 1   
    52   29   30 2   
    53   29   40 1   
    54   31   32 1   
    55   31   36 1   
    56   31   40 1   
    57   31   60 1   
    58   32   33 1   
    59   32   61 1   
    60   32   62 1   
    61   33   34 1   
    62   33   35 1   
    63   33   63 1   
    64   34   64 1   
    65   34   65 1   
    66   34   66 1   
    67   35   67 1   
    68   35   68 1   
    69   35   69 1   
    70   36   37 2   
    71   36   38 1   
    72   38   39 1   
    73   38   70 1   
    74   39   71 1   
    75   40   72 1   
@<TRIPOS>SUBSTRUCTURE
     1 IN3         1 TEMP              0 ****  ****    0 ROOT
