@<TRIPOS>MOLECULE
IN3
   78    80     1     0     0
SMALL
bcc


@<TRIPOS>ATOM
      1 C1          0.0000    0.0000    0.0000 ca        1 IN3      0.171000
      2 C2          1.3820    0.0000    0.0000 ca        1 IN3      0.025500
      3 C3          2.0730    0.0000    1.1970 ca        1 IN3      0.005000
      4 C4          1.3820    0.0020    2.3940 ca        1 IN3      0.081700
      5 C5          0.0010   -0.0020    2.3930 ca        1 IN3      0.005000
      6 C6         -0.6910    0.0010    1.1970 ca        1 IN3      0.025500
      7 C7          2.1350    0.0040    3.7000 c3        1 IN3      0.197700
      8 O8          2.3760    1.3510    4.1100 os        1 IN3     -0.246900
      9 C9          3.0540    1.2880    5.2850 ca        1 IN3      0.142100
     10 C10         3.3710    0.0560    5.8390 ca        1 IN3     -0.119000
     11 C11         4.1250    2.3850    7.1370 ca        1 IN3     -0.190600
     12 C12         4.4400    1.1410    7.6860 ca        1 IN3     -0.129000
     13 C14         4.0620   -0.0140    7.0350 ca        1 IN3     -0.001000
     14 C17         4.5290    3.6260    7.8330 c         1 IN3      0.365700
     15 O18         4.1850    4.7070    7.3970 o         1 IN3     -0.386100
     16 N19         5.2800    3.5580    8.9510 ny        1 IN3      0.186400
     17 N20         5.7480    4.7340    9.5520 ny        1 IN3     -0.233600
     18 C24         3.4240    2.4540    5.9340 ca        1 IN3      0.014000
     19 C21         6.5950    4.6650   10.5980 c         1 IN3      0.177100
     20 O22         6.9840    5.6850   11.1330 o         1 IN3     -0.367100
     21 C1'         7.8740   -5.3250   17.9810 ca        1 IN3     -0.080000
     22 C2'         8.9730   -4.5730   18.3460 ca        1 IN3      0.055000
     23 C3'         8.9780   -3.2060   18.1350 ca        1 IN3      0.086500
     24 C4'         7.8820   -2.5940   17.5570 ca        1 IN3     -0.227300
     25 C5'         6.7800   -3.3450   17.1970 ca        1 IN3      0.086500
     26 C6'         6.7780   -4.7120   17.4040 ca        1 IN3      0.055000
     27 C7'         7.8870   -1.1050   17.3280 c3        1 IN3      0.327700
     28 O8'         8.4320   -0.8190   16.0130 os        1 IN3     -0.395900
     29 C9'         8.5340    0.4540   15.5870 c         1 IN3      0.464100
     30 OA'         8.1680    1.3640   16.3040 o         1 IN3     -0.449000
     31 CB'         9.0870    2.0980   13.8770 c3        1 IN3     -0.152500
     32 CC'        10.5420    2.5020   13.6300 c3        1 IN3     -0.034400
     33 CE'        11.3070    2.4880   14.9540 c3        1 IN3     -0.058700
     34 CF'        12.7890    2.7630   14.6900 c3        1 IN3      0.003900
     35 CG'        10.7450    3.5680   15.8810 c3        1 IN3      0.003900
     36 CH'         8.3120    2.2000   12.5880 c         1 IN3      0.402100
     37 OI'         8.1310    1.2110   11.9100 o         1 IN3     -0.472100
     38 NJ'         7.8210    3.3890   12.1900 ny        1 IN3      0.011400
     39 NK'         7.0080    3.4650   11.0510 ny        1 IN3     -0.375600
     40 NO'         9.0410    0.7180   14.3680 ny        1 IN3      0.183200
     41 H1         -0.5420    0.0010   -0.9380 ha        1 IN3      0.172000
     42 H2          1.9230    0.0020   -0.9380 ha        1 IN3      0.176000
     43 H3          3.1570   -0.0130    1.1970 ha        1 IN3      0.159500
     44 H5         -0.5410   -0.0090    3.3320 ha        1 IN3      0.159500
     45 H6         -1.7750   -0.0000    1.1970 ha        1 IN3      0.176000
     46 H71         1.5480   -0.5040    4.4560 h1        1 IN3      0.050700
     47 H72         3.0810   -0.5090    3.5720 h1        1 IN3      0.050700
     48 H10         3.0760   -0.8550    5.3330 ha        1 IN3      0.154000
     49 H12         4.9300    1.0830    8.6510 ha        1 IN3      0.066000
     50 H14         4.3060   -0.9790    7.4620 ha        1 IN3      0.140000
     51 HN9         6.0840    3.0050    8.7280 hn        1 IN3      0.286800
     52 HN0         6.2090    5.2620    8.8380 hn        1 IN3      0.351300
     53 H24         3.1770    3.4170    5.5030 ha        1 IN3      0.160000
     54 H3'         9.8410   -2.6170   18.4200 ha        1 IN3      0.129500
     55 H5'         5.9030   -2.8580   16.7870 ha        1 IN3      0.129500
     56 H6'         5.9140   -5.3010   17.1220 ha        1 IN3      0.155000
     57 H7'1        8.4960   -0.6240   18.0840 h1        1 IN3      0.047700
     58 H7'2        6.8730   -0.7270   17.3880 h1        1 IN3      0.047700
     59 H11'        8.6490    2.7590   14.6160 hx        1 IN3      0.147700
     60 H12A       10.5720    3.4990   13.2060 hc        1 IN3      0.059200
     61 H12B       10.9990    1.8030   12.9410 hc        1 IN3      0.059200
     62 H14'       11.1980    1.5180   15.4240 hc        1 IN3      0.001700
     63 H15A       13.1660    2.0480   13.9680 hc        1 IN3      0.031200
     64 H15B       13.3440    2.6680   15.6160 hc        1 IN3      0.031200
     65 H15C       12.9060    3.7660   14.3000 hc        1 IN3      0.031200
     66 H16A       10.0270    3.1240   16.5600 hc        1 IN3      0.031200
     67 H16B       10.2570    4.3330   15.2890 hc        1 IN3      0.031200
     68 H16C       11.5530    4.0120   16.4490 hc        1 IN3      0.031200
     69 HN1         8.6050    3.9890   12.0290 hn        1 IN3      0.315800
     70 HN2         7.5130    3.0300   10.3040 hn        1 IN3      0.305800
     71 HN4         8.5110    0.1870   13.7050 hn        1 IN3      0.283800
     72 H1'         7.8570   -6.3910   18.1770 ha        1 IN3      0.169000
     73 H192        4.7350    3.0760    9.6380 hn        1 IN3      0.286800
     74 H202        4.9430    5.2420    9.8620 hn        1 IN3      0.351300
     75 HJ'2        7.2840    3.7520   12.9530 hn        1 IN3      0.315800
     76 HK'2        6.1860    2.9280   11.2440 hn        1 IN3      0.305800
     77 HO'2        9.9780    0.3670   14.3540 hn        1 IN3      0.283800
     78 H2'         9.8320   -5.0530   18.7990 ha        1 IN3      0.155000
@<TRIPOS>BOND
     1    1    2 ar  
     2    1    6 ar  
     3    1   41 1   
     4    2    3 ar  
     5    2   42 1   
     6    3    4 ar  
     7    3   43 1   
     8    4    5 ar  
     9    4    7 1   
    10    5    6 ar  
    11    5   44 1   
    12    6   45 1   
    13    7    8 1   
    14    7   46 1   
    15    7   47 1   
    16    8    9 1   
    17    9   10 ar  
    18    9   18 ar  
    19   10   13 ar  
    20   10   48 1   
    21   11   12 ar  
    22   11   14 1   
    23   11   18 ar  
    24   12   13 ar  
    25   12   49 1   
    26   13   50 1   
    27   14   15 2   
    28   14   16 1   
    29   16   17 1   
    30   16   51 1   
    31   16   73 1   
    32   17   19 1   
    33   17   52 1   
    34   17   74 1   
    35   18   53 1   
    36   19   20 2   
    37   19   39 1   
    38   21   22 ar  
    39   21   26 ar  
    40   21   72 1   
    41   22   23 ar  
    42   22   78 1   
    43   23   24 ar  
    44   23   54 1   
    45   24   25 ar  
    46   24   27 1   
    47   25   26 ar  
    48   25   55 1   
    49   26   56 1   
    50   27   28 1   
    51   27   57 1   
    52   27   58 1   
    53   28   29 1   
    54   29   30 2   
    55   29   40 1   
    56   31   32 1   
    57   31   36 1   
    58   31   40 1   
    59   31   59 1   
    60   32   33 1   
    61   32   60 1   
    62   32   61 1   
    63   33   34 1   
    64   33   35 1   
    65   33   62 1   
    66   34   63 1   
    67   34   64 1   
    68   34   65 1   
    69   35   66 1   
    70   35   67 1   
    71   35   68 1   
    72   36   37 2   
    73   36   38 1   
    74   38   39 1   
    75   38   69 1   
    76   38   75 1   
    77   39   70 1   
    78   39   76 1   
    79   40   71 1   
    80   40   77 1   
@<TRIPOS>SUBSTRUCTURE
     1 IN3         1 TEMP              0 ****  ****    0 ROOT
