@<TRIPOS>MOLECULE
IN3
   73    75     1     0     0
SMALL
bcc


@<TRIPOS>ATOM
      1 C1         -1.4580   -1.9330  -11.5330 ca        1 IN3     -0.122000
      2 C2         -1.0920   -2.5320  -10.3280 ca        1 IN3     -0.130500
      3 C3         -1.1790   -1.8140   -9.1350 ca        1 IN3     -0.110500
      4 C4         -1.6290   -0.4910   -9.1460 ca        1 IN3     -0.098300
      5 C5         -1.9890    0.1110  -10.3580 ca        1 IN3     -0.110500
      6 C6         -1.9070   -0.6120  -11.5460 ca        1 IN3     -0.130500
      7 C7         -1.7680    0.2890   -7.8820 c3        1 IN3      0.175700
      8 O8         -0.7320   -0.1460   -6.9870 os        1 IN3     -0.321900
      9 C9         -0.7240    0.4540   -5.7440 ca        1 IN3      0.123100
     10 C10        -1.6180    1.4460   -5.3250 ca        1 IN3     -0.179000
     11 C11         0.3920    0.5340   -3.6030 ca        1 IN3     -0.118600
     12 C12        -0.5020    1.5240   -3.1740 ca        1 IN3     -0.131000
     13 C14        -1.5000    1.9690   -4.0370 ca        1 IN3     -0.101000
     14 C17         1.4640    0.0110   -2.7160 c         1 IN3      0.645700
     15 O18         1.8040   -1.1840   -2.6960 o         1 IN3     -0.559100
     16 N19         2.0640    0.9570   -1.8400 n         1 IN3     -0.448500
     17 N20         3.2180    0.6830   -1.1660 n         1 IN3     -0.346500
     18 C24         0.2860   -0.0140   -4.8810 ca        1 IN3     -0.105000
     19 C21         3.1580    0.5890    0.2750 c         1 IN3      0.663100
     20 O22         4.0600   -0.0550    0.8520 o         1 IN3     -0.599100
     21 C1'        -6.0540   -1.0770    7.7830 ca        1 IN3     -0.124000
     22 C2'        -4.9470   -1.8930    7.5520 ca        1 IN3     -0.131500
     23 C3'        -3.6960   -1.3240    7.3170 ca        1 IN3     -0.111000
     24 C4'        -3.5490    0.0660    7.3060 ca        1 IN3     -0.097300
     25 C5'        -4.6630    0.8840    7.5290 ca        1 IN3     -0.111000
     26 C6'        -5.9100    0.3110    7.7720 ca        1 IN3     -0.131500
     27 C7'        -2.2180    0.7050    7.0950 c3        1 IN3      0.196700
     28 O8'        -1.4730   -0.1320    6.1850 os        1 IN3     -0.435900
     29 C9'        -0.2110    0.3330    5.8810 c         1 IN3      0.730100
     30 OA'         0.1600    1.4240    6.3450 o         1 IN3     -0.583000
     31 CB'         1.6980   -0.0990    4.4270 c3        1 IN3      0.033700
     32 CC'         2.8420   -1.1310    4.4370 c3        1 IN3     -0.083400
     33 CE'         3.4920   -1.2750    5.8040 c3        1 IN3     -0.066700
     34 CF'         4.3000   -2.5580    5.8480 c3        1 IN3     -0.094600
     35 CG'         4.3820   -0.0920    6.1240 c3        1 IN3     -0.094600
     36 CH'         1.4070    0.1990    2.9370 c         1 IN3      0.578100
     37 OI'         0.5280   -0.4010    2.2990 o         1 IN3     -0.572100
     38 NJ'         2.1460    1.2680    2.3580 n         1 IN3     -0.384500
     39 NK'         2.2450    1.4380    1.0120 n         1 IN3     -0.330500
     40 NO'         0.5220   -0.5690    5.1230 n         1 IN3     -0.504900
     41 H1         -1.3910   -2.5010  -12.4730 ha        1 IN3      0.133000
     42 H2         -0.7340   -3.5720  -10.3150 ha        1 IN3      0.134500
     43 H3         -0.8860   -2.2800   -8.1810 ha        1 IN3      0.139000
     44 H5         -2.3360    1.1550  -10.3730 ha        1 IN3      0.139000
     45 H6         -2.1930   -0.1380  -12.4960 ha        1 IN3      0.134500
     46 H71        -2.7690    0.0890   -7.4110 h1        1 IN3      0.049200
     47 H72        -1.6510    1.3910   -8.0710 h1        1 IN3      0.049200
     48 H10        -2.4110    1.8160   -5.9900 ha        1 IN3      0.144000
     49 H12        -0.4380    1.9380   -2.1570 ha        1 IN3      0.145000
     50 H14        -2.2080    2.7420   -3.7000 ha        1 IN3      0.142000
     51 HN9         2.0830    1.9030   -2.1880 hn        1 IN3      0.324500
     52 HN0         3.6910   -0.1430   -1.5260 hn        1 IN3      0.313500
     53 H24         0.9710   -0.8090   -5.2150 ha        1 IN3      0.171000
     54 H2'        -5.0590   -2.9870    7.5560 ha        1 IN3      0.133000
     55 H3'        -2.8200   -1.9640    7.1290 ha        1 IN3      0.138500
     56 H5'        -4.5540    1.9780    7.5150 ha        1 IN3      0.138500
     57 H6'        -6.7830    0.9560    7.9520 ha        1 IN3      0.133000
     58 H7'1       -1.6480    0.7750    8.0600 h1        1 IN3      0.064700
     59 H7'2       -2.3110    1.7290    6.6450 h1        1 IN3      0.064700
     60 H11'        2.0490    0.8470    4.9440 h1        1 IN3      0.113700
     61 H12A        3.6150   -0.8050    3.6900 hc        1 IN3      0.063700
     62 H12B        2.4500   -2.1270    4.1000 hc        1 IN3      0.063700
     63 H14'        2.6860   -1.3390    6.5890 hc        1 IN3      0.063700
     64 H15A        4.7950   -2.6670    6.8420 hc        1 IN3      0.037200
     65 H15B        3.6390   -3.4430    5.6830 hc        1 IN3      0.037200
     66 H15C        5.0880   -2.5520    5.0570 hc        1 IN3      0.037200
     67 H16A        5.1850    0.0170    5.3560 hc        1 IN3      0.037200
     68 H16B        3.7900    0.8540    6.1580 hc        1 IN3      0.037200
     69 H16C        4.8660   -0.2360    7.1200 hc        1 IN3      0.037200
     70 HN1         3.0380    1.4330    2.8020 hn        1 IN3      0.320500
     71 HN2         1.3180    1.4590    0.6050 hn        1 IN3      0.315500
     72 HN4         0.0090   -1.2980    4.6730 hn        1 IN3      0.331500
     73 H1'        -7.0400   -1.5260    7.9710 ha        1 IN3      0.132000
@<TRIPOS>BOND
     1    1    2 ar  
     2    1    6 ar  
     3    1   41 1   
     4    2    3 ar  
     5    2   42 1   
     6    3    4 ar  
     7    3   43 1   
     8    4    5 ar  
     9    4    7 1   
    10    5    6 ar  
    11    5   44 1   
    12    6   45 1   
    13    7    8 1   
    14    7   46 1   
    15    7   47 1   
    16    8    9 1   
    17    9   10 ar  
    18    9   18 ar  
    19   10   13 ar  
    20   10   48 1   
    21   11   12 ar  
    22   11   14 1   
    23   11   18 ar  
    24   12   13 ar  
    25   12   49 1   
    26   13   50 1   
    27   14   15 2   
    28   14   16 1   
    29   16   17 1   
    30   16   51 1   
    31   17   19 1   
    32   17   52 1   
    33   18   53 1   
    34   19   20 2   
    35   19   39 1   
    36   21   22 ar  
    37   21   26 ar  
    38   21   73 1   
    39   22   23 ar  
    40   22   54 1   
    41   23   24 ar  
    42   23   55 1   
    43   24   25 ar  
    44   24   27 1   
    45   25   26 ar  
    46   25   56 1   
    47   26   57 1   
    48   27   28 1   
    49   27   58 1   
    50   27   59 1   
    51   28   29 1   
    52   29   30 2   
    53   29   40 1   
    54   31   32 1   
    55   31   36 1   
    56   31   40 1   
    57   31   60 1   
    58   32   33 1   
    59   32   61 1   
    60   32   62 1   
    61   33   34 1   
    62   33   35 1   
    63   33   63 1   
    64   34   64 1   
    65   34   65 1   
    66   34   66 1   
    67   35   67 1   
    68   35   68 1   
    69   35   69 1   
    70   36   37 2   
    71   36   38 1   
    72   38   39 1   
    73   38   70 1   
    74   39   71 1   
    75   40   72 1   
@<TRIPOS>SUBSTRUCTURE
     1 IN3         1 TEMP              0 ****  ****    0 ROOT
