@<TRIPOS>MOLECULE
IN3
   73    67     1     0     0
SMALL
bcc


@<TRIPOS>ATOM
      1 C1         -5.4780   -7.2560   -4.5990 c1        1 IN3     -0.123000
      2 C2         -5.0190   -7.2570   -3.2840 c1        1 IN3     -0.123000
      3 C3         -4.9210   -6.0510   -2.5780 c1        1 IN3     -0.123000
      4 C4         -5.2870   -4.8420   -3.1980 c1        1 IN3     -0.090000
      5 C5         -5.7410   -4.8440   -4.4990 c1        1 IN3     -0.100000
      6 C6         -5.8390   -6.0550   -5.2100 c1        1 IN3     -0.123000
      7 C7         -5.2100   -3.5340   -2.4210 c3        1 IN3      0.018000
      8 O8         -3.8980   -3.0710   -2.4200 os        1 IN3     -0.206000
      9 C9         -3.7140   -1.8740   -1.6940 c2        1 IN3      0.078000
     10 C10        -3.7100   -1.9000   -0.3200 c1        1 IN3     -0.182000
     11 C11        -3.1690    0.4770   -1.6370 c1        1 IN3     -0.092000
     12 C12        -3.1640    0.4530   -0.2790 c1        1 IN3     -0.123000
     13 C14        -3.4350   -0.7350    0.3980 c1        1 IN3     -0.123000
     14 C17        -2.9810    1.7900   -2.3760 c2        1 IN3      0.300000
     15 O18        -2.9840    1.8060   -3.5670 o         1 IN3     -0.321000
     16 N19        -2.7100    3.0350   -1.6210 n         1 IN3     -0.234000
     17 N20        -1.5040    3.7320   -1.8190 n         1 IN3     -0.175000
     18 C24        -3.4460   -0.6990   -2.3630 c2        1 IN3     -0.102000
     19 C21        -0.4500    3.5750   -0.9070 c2        1 IN3      0.254000
     20 O22        -0.4790    2.6920   -0.1210 o         1 IN3     -0.364000
     21 C1'         2.3280   -4.7250    3.0260 c1        1 IN3     -0.123000
     22 C2'         3.2150   -3.8380    2.3870 c1        1 IN3     -0.123000
     23 C3'         2.8690   -2.4860    2.2420 c1        1 IN3     -0.123000
     24 C4'         1.6510   -2.0250    2.7290 c1        1 IN3     -0.090000
     25 C5'         0.7660   -2.9130    3.3670 c1        1 IN3     -0.119000
     26 C6'         1.1080   -4.2590    3.5120 c1        1 IN3     -0.123000
     27 C7'         1.2560   -0.5040    2.5590 c3        1 IN3      0.039000
     28 O8'         2.2280    0.3070    3.1880 os        1 IN3     -0.272000
     29 C9'         2.2640    1.6430    2.7090 c2        1 IN3      0.386000
     30 OA'         1.3540    2.4140    2.9810 o         1 IN3     -0.396000
     31 CB'         3.4390    3.4220    1.4900 c3        1 IN3      0.019000
     32 CC'         4.8320    3.7590    1.0140 c3        1 IN3     -0.157000
     33 CE'         5.4750    4.8270    1.9700 c3        1 IN3     -0.106000
     34 CF'         6.9020    4.4940    2.1870 c3        1 IN3     -0.212000
     35 CG'         5.3670    6.2240    1.3240 c3        1 IN3     -0.212000
     36 CH'         2.4640    3.4770    0.3020 c2        1 IN3      0.219000
     37 OI'         2.5070    2.6120   -0.5620 o         1 IN3     -0.332000
     38 NJ'         1.5210    4.5260    0.2070 n         1 IN3     -0.231000
     39 NK'         0.6080    4.5540   -0.8490 n         1 IN3     -0.180000
     40 NO'         3.4280    2.1240    2.0400 n         1 IN3     -0.325000
     41 H1         -5.5470   -8.1050   -5.0990 ha        1 IN3      0.136100
     42 H2         -4.7720   -8.0780   -2.8650 ha        1 IN3      0.136100
     43 H3         -4.5930   -6.0490   -1.6340 ha        1 IN3      0.136100
     44 H5         -6.0000   -3.9860   -4.9380 ha        1 IN3      0.148000
     45 H6         -6.1590   -6.0520   -6.1270 ha        1 IN3      0.136100
     46 H71        -5.8020   -2.8540   -2.8520 h1        1 IN3      0.088500
     47 H72        -5.5140   -3.6930   -1.4650 h1        1 IN3      0.088500
     48 H10        -3.8970   -2.7290    0.1510 ha        1 IN3      0.142000
     49 H12        -2.9750    1.2540    0.2150 ha        1 IN3      0.136100
     50 H14        -3.4320   -0.7520    1.3780 ha        1 IN3      0.136100
     51 HN9        -3.3290    3.3640   -1.0700 hn        1 IN3      0.236000
     52 HN0        -1.4190    4.2810   -2.5020 hn        1 IN3      0.222000
     53 H24        -3.4480   -0.6810   -3.3580 ha        1 IN3      0.169000
     54 H1'         2.5690   -5.6800    3.1300 ha        1 IN3      0.136100
     55 H2'         4.0410   -4.1520    2.0560 ha        1 IN3      0.136100
     56 H3'         3.4880   -1.8630    1.7950 ha        1 IN3      0.136100
     57 H5'        -0.0820   -2.5910    3.7050 ha        1 IN3      0.133000
     58 H6'         0.4700   -4.8970    3.9710 ha        1 IN3      0.136100
     59 H7'1        0.3880   -0.3470    2.9710 h1        1 IN3      0.104500
     60 H7'2        1.2090   -0.2740    1.5650 h1        1 IN3      0.104500
     61 H11'        3.1470    4.0980    2.2020 h1        1 IN3      0.147000
     62 H12A        5.3960    2.9280    1.0130 hc        1 IN3      0.101000
     63 H12B        4.7860    4.1230    0.1040 hc        1 IN3      0.101000
     64 H14'        5.0220    4.8270    2.7970 hc        1 IN3      0.103000
     65 H15A        6.9690    3.6750    2.7300 hc        1 IN3      0.076167
     66 H15B        7.3380    4.3460    1.3200 hc        1 IN3      0.076167
     67 H15C        7.3400    5.2290    2.6510 hc        1 IN3      0.076167
     68 H16A        5.5680    6.8970    1.9800 hc        1 IN3      0.076167
     69 H16B        4.4880    6.3540    0.9990 hc        1 IN3      0.076167
     70 H16C        5.9970    6.2890    0.5910 hc        1 IN3      0.076167
     71 HN1         1.5460    5.1910    0.7840 hn        1 IN3      0.241000
     72 HN2         0.6080    5.2750   -1.4430 hn        1 IN3      0.220000
     73 HN4         4.1550    1.5760    1.9380 hn        1 IN3      0.249000
@<TRIPOS>BOND
     1    1    6 1   
     2    1   41 1   
     3    2    3 1   
     4    2   42 1   
     5    3   43 1   
     6    4    5 1   
     7    4    7 1   
     8    5   44 1   
     9    6   45 1   
    10    7    8 1   
    11    7   46 1   
    12    7   47 1   
    13    8    9 1   
    14    9   10 1   
    15    9   18 1   
    16   10   48 1   
    17   11   14 1   
    18   11   18 1   
    19   12   13 1   
    20   12   49 1   
    21   13   50 1   
    22   14   15 1   
    23   14   16 1   
    24   16   17 1   
    25   16   51 1   
    26   17   19 1   
    27   17   52 1   
    28   18   53 1   
    29   19   20 1   
    30   19   39 1   
    31   21   26 1   
    32   21   54 1   
    33   22   23 1   
    34   22   55 1   
    35   23   56 1   
    36   24   25 1   
    37   24   27 1   
    38   25   57 1   
    39   26   58 1   
    40   27   28 1   
    41   27   59 1   
    42   27   60 1   
    43   28   29 1   
    44   29   30 1   
    45   29   40 1   
    46   31   32 1   
    47   31   36 1   
    48   31   40 1   
    49   31   61 1   
    50   32   33 1   
    51   32   62 1   
    52   32   63 1   
    53   33   34 1   
    54   33   35 1   
    55   33   64 1   
    56   34   65 1   
    57   34   66 1   
    58   34   67 1   
    59   35   68 1   
    60   35   69 1   
    61   35   70 1   
    62   36   37 1   
    63   36   38 1   
    64   38   39 1   
    65   38   71 1   
    66   39   72 1   
    67   40   73 1   
@<TRIPOS>SUBSTRUCTURE
     1 IN3         1 TEMP              0 ****  ****    0 ROOT
