@<TRIPOS>MOLECULE
IN4
   50    44     1     0     0
SMALL
bcc


@<TRIPOS>ATOM
      1 C1         -2.2120    1.5950   -3.8390 c1        1 IN4     -0.111500
      2 C2         -0.8320    1.5580   -3.8320 c1        1 IN4     -0.122500
      3 C3         -0.1520    1.5480   -2.6420 c1        1 IN4     -0.122500
      4 C4         -0.8470    1.5750   -1.4490 c1        1 IN4     -0.086000
      5 C5         -2.2340    1.6120   -1.4590 c1        1 IN4     -0.086000
      6 C6         -2.9090    1.6210   -2.6500 c1        1 IN4     -0.115000
      7 C10        -0.0970    1.4720   -0.1350 c3        1 IN4     -0.066000
      8 C9          0.6920    0.2160   -0.1130 c3        1 IN4     -0.152000
      9 C11         0.8130   -0.2760    1.3230 c3        1 IN4     -0.128000
     10 C12         1.3360   -1.7510    1.3370 c2        1 IN4     -0.059000
     11 C20        -4.4440    1.6410   -2.6640 c2        1 IN4      0.115500
     12 N3         -5.1050    2.8190   -2.7000 n1        1 IN4     -0.302000
     13 N4         -5.2030    0.3630   -2.6420 n3        1 IN4     -0.331000
     14 C7          0.4600   -2.8080    1.2440 c2        1 IN4     -0.134000
     15 C13         0.9170   -4.1150    1.4310 c1        1 IN4     -0.093000
     16 C15         2.2560   -4.3500    1.7110 c1        1 IN4     -0.115000
     17 C16         2.7700   -5.7900    1.8250 c2        1 IN4      0.115500
     18 C17         3.1360   -3.2930    1.8040 c1        1 IN4     -0.111500
     19 C19         2.6770   -1.9820    1.6170 c1        1 IN4     -0.131000
     20 N2          2.7820   -6.3850    2.9780 n1        1 IN4     -0.302000
     21 N1          3.2220   -6.4680    0.6810 n3        1 IN4     -0.331000
     22 C14         0.8610    2.6890    0.0070 c3        1 IN4     -0.153000
     23 C22         0.2370    3.7330    0.9580 c2        1 IN4      0.301000
     24 O3         -0.8040    4.2890    0.6520 o         1 IN4     -0.352000
     25 O4          0.9350    4.1380    2.1240 os        1 IN4     -0.278000
     26 C8          0.2250    5.0910    2.9050 c3        1 IN4     -0.065000
     27 H1         -2.7090    1.6010   -4.7120 ha        1 IN4      0.139500
     28 H2         -0.3400    1.5390   -4.6750 ha        1 IN4      0.135500
     29 H3          0.8260    1.5220   -2.6380 ha        1 IN4      0.135500
     30 H5         -2.7140    1.6300   -0.6460 ha        1 IN4      0.158000
     31 H10        -0.7040    1.4700    0.5710 hc        1 IN4      0.123000
     32 H91         1.5860    0.3860   -0.4790 hc        1 IN4      0.091000
     33 H92         0.2610   -0.4350   -0.6310 hc        1 IN4      0.091000
     34 H111        1.4190    0.2760    1.7920 hc        1 IN4      0.093500
     35 H112       -0.0490   -0.2390    1.7480 hc        1 IN4      0.093500
     36 HN3        -4.6230    3.6320   -2.7160 DU        1 IN4      0.150500
     37 HN41       -6.1320    0.3680   -2.4780 hn        1 IN4      0.193500
     38 HN42       -4.7600   -0.4450   -2.7820 hn        1 IN4      0.193500
     39 H7         -0.4570   -2.6480    1.0560 ha        1 IN4      0.137000
     40 H13         0.3210   -4.8330    1.3640 ha        1 IN4      0.150000
     41 H17         4.0580   -3.4540    1.9970 ha        1 IN4      0.139500
     42 H19         3.3100   -1.2200    1.6840 ha        1 IN4      0.135000
     43 HN2         2.4990   -5.9640    3.6890 DU        1 IN4      0.150500
     44 HN11        3.3420   -5.9940   -0.1360 hn        1 IN4      0.193500
     45 HN12        3.4470   -7.3560    0.7340 hn        1 IN4      0.193500
     46 H141        1.7340    2.3870    0.3740 hc        1 IN4      0.121000
     47 H142        0.9970    3.0870   -0.8550 hc        1 IN4      0.121000
     48 H81        -0.4940    4.6450    3.3880 h1        1 IN4      0.091333
     49 H82         0.8560    5.5270    3.5650 h1        1 IN4      0.091333
     50 H83        -0.1550    5.7760    2.3150 h1        1 IN4      0.091333
@<TRIPOS>BOND
     1    1    6 1   
     2    1   27 1   
     3    2    3 1   
     4    2   28 1   
     5    3   29 1   
     6    4    5 1   
     7    4    7 1   
     8    5   30 1   
     9    6   11 1   
    10    7    8 1   
    11    7   22 1   
    12    7   31 1   
    13    8    9 1   
    14    8   32 1   
    15    8   33 1   
    16    9   10 1   
    17    9   34 1   
    18    9   35 1   
    19   10   14 1   
    20   10   19 1   
    21   11   12 1   
    22   11   13 1   
    23   13   37 1   
    24   13   38 1   
    25   14   15 1   
    26   14   39 1   
    27   15   40 1   
    28   16   17 1   
    29   16   18 1   
    30   17   20 1   
    31   17   21 1   
    32   18   41 1   
    33   19   42 1   
    34   21   44 1   
    35   21   45 1   
    36   22   23 1   
    37   22   46 1   
    38   22   47 1   
    39   23   24 1   
    40   23   25 1   
    41   25   26 1   
    42   26   48 1   
    43   26   49 1   
    44   26   50 1   
@<TRIPOS>SUBSTRUCTURE
     1 IN4         1 TEMP              0 ****  ****    0 ROOT
