@<TRIPOS>MOLECULE
IN4
   52    53     1     0     0
SMALL
bcc


@<TRIPOS>ATOM
      1 C1         -0.5720   -0.7770   -0.2110 ca        1 IN4     -0.076000
      2 C2          0.6470   -1.4550   -0.1910 ca        1 IN4     -0.114000
      3 C3          1.4990   -1.3530    0.9100 ca        1 IN4     -0.078000
      4 C4          1.1170   -0.6160    2.0360 ca        1 IN4     -0.086300
      5 C5         -0.1430   -0.0060    2.0510 ca        1 IN4     -0.083000
      6 C6         -0.9510   -0.0310    0.9100 ca        1 IN4     -0.246900
      7 C10         2.0220   -0.3630    3.2040 c3        1 IN4     -0.010400
      8 C9          3.0610   -1.4660    3.3820 c3        1 IN4     -0.076400
      9 C11         3.5860   -1.5160    4.8070 c3        1 IN4     -0.055100
     10 C12         4.5970   -2.5950    4.9920 ca        1 IN4     -0.024300
     11 C20        -2.1770    0.7940    0.8890 ce        1 IN4      0.588800
     12 N3         -3.4070    0.4970    0.7150 n2        1 IN4     -0.706100
     13 N4         -1.8490    2.2490    1.1080 nz        1 IN4     -0.828600
     14 C7          5.9500   -2.2770    5.1750 ca        1 IN4     -0.118000
     15 C13         6.8910   -3.2830    5.3820 ca        1 IN4     -0.085500
     16 C15         6.4820   -4.6220    5.4050 ca        1 IN4     -0.265900
     17 C16         7.4780   -5.7000    5.5760 ce        1 IN4      0.587800
     18 C17         5.1340   -4.9510    5.2190 ca        1 IN4     -0.085500
     19 C19         4.2000   -3.9390    5.0150 ca        1 IN4     -0.118000
     20 N2          7.9250   -6.5790    4.7660 n2        1 IN4     -0.699100
     21 N1          8.0350   -5.7340    6.9770 nz        1 IN4     -0.823600
     22 C14         2.7100    0.9930    3.0280 c3        1 IN4     -0.135400
     23 C22         1.8130    2.1570    3.3380 c         1 IN4      0.669100
     24 O3          0.7370    2.4860    2.8120 o         1 IN4     -0.643000
     25 O4          2.3080    2.9470    4.3220 os        1 IN4     -0.413900
     26 C8          1.5760    4.1310    4.6640 c3        1 IN4      0.122700
     27 H1         -1.2170   -0.8250   -1.1020 ha        1 IN4      0.159000
     28 H2          0.9490   -2.0580   -1.0640 ha        1 IN4      0.168000
     29 H3          2.4820   -1.8510    0.8800 ha        1 IN4      0.154000
     30 H5         -0.4760    0.5190    2.9620 ha        1 IN4      0.149000
     31 H10         1.3910   -0.3260    4.1400 hc        1 IN4      0.073700
     32 H91         3.9120   -1.3050    2.6700 hc        1 IN4      0.060200
     33 H92         2.5920   -2.4560    3.1350 hc        1 IN4      0.060200
     34 H111        4.0360   -0.5230    5.0810 hc        1 IN4      0.069200
     35 H112        2.7300   -1.6970    5.5140 hc        1 IN4      0.069200
     36 HN3        -3.6500   -0.4620    0.5730 hn        1 IN4      0.486400
     37 HN41       -2.6800    2.7970    1.3570 hn        1 IN4      0.478800
     38 HN42       -1.1430    2.3190    1.8610 hn        1 IN4      0.478800
     39 H7          6.2760   -1.2240    5.1570 ha        1 IN4      0.162500
     40 H13         7.9520   -3.0160    5.5040 ha        1 IN4      0.151000
     41 H17         4.8080   -6.0040    5.2300 ha        1 IN4      0.151000
     42 H19         3.1380   -4.1990    4.8740 ha        1 IN4      0.162500
     43 HN2         7.5870   -6.5880    3.8260 hn        1 IN4      0.492400
     44 HN11        8.7960   -6.4200    7.0740 hn        1 IN4      0.472467
     45 HN12        7.2750   -5.9760    7.6210 hn        1 IN4      0.472467
     46 H141        3.6090    1.0480    3.7010 hc        1 IN4      0.095700
     47 H142        3.0650    1.1140    1.9690 hc        1 IN4      0.095700
     48 H81         0.5660    3.8510    5.0480 h1        1 IN4      0.064700
     49 H82         2.2050    4.6000    5.4610 h1        1 IN4      0.064700
     50 H83         1.4860    4.7920    3.7690 h1        1 IN4      0.064700
     51 H43        -1.4450    2.6230    0.2440 hn        1 IN4      0.478800
     52 H131        8.3860   -4.7970    7.2040 hn        1 IN4      0.472467
@<TRIPOS>BOND
     1    1    2 ar  
     2    1    6 ar  
     3    1   27 1   
     4    2    3 ar  
     5    2   28 1   
     6    3    4 ar  
     7    3   29 1   
     8    4    5 ar  
     9    4    7 1   
    10    5    6 ar  
    11    5   30 1   
    12    6   11 1   
    13    7    8 1   
    14    7   22 1   
    15    7   31 1   
    16    8    9 1   
    17    8   32 1   
    18    8   33 1   
    19    9   10 1   
    20    9   34 1   
    21    9   35 1   
    22   10   14 ar  
    23   10   19 ar  
    24   11   12 2   
    25   11   13 1   
    26   12   36 1   
    27   13   37 1   
    28   13   38 1   
    29   13   51 1   
    30   14   15 ar  
    31   14   39 1   
    32   15   16 ar  
    33   15   40 1   
    34   16   17 1   
    35   16   18 ar  
    36   17   20 2   
    37   17   21 1   
    38   18   19 ar  
    39   18   41 1   
    40   19   42 1   
    41   20   43 1   
    42   21   44 1   
    43   21   45 1   
    44   21   52 1   
    45   22   23 1   
    46   22   46 1   
    47   22   47 1   
    48   23   24 2   
    49   23   25 1   
    50   25   26 1   
    51   26   48 1   
    52   26   49 1   
    53   26   50 1   
@<TRIPOS>SUBSTRUCTURE
     1 IN4         1 TEMP              0 ****  ****    0 ROOT
