@<TRIPOS>MOLECULE
IN4
   52    53     1     0     0
SMALL
bcc


@<TRIPOS>ATOM
      1 C1         -0.6840   -0.8810   -0.1000 ca        1 IN4     -0.076000
      2 C2          0.5250   -1.5750   -0.0910 ca        1 IN4     -0.114000
      3 C3          1.4160   -1.4380    0.9750 ca        1 IN4     -0.078000
      4 C4          1.0820   -0.6460    2.0800 ca        1 IN4     -0.086300
      5 C5         -0.1680   -0.0180    2.1100 ca        1 IN4     -0.083000
      6 C6         -1.0140   -0.0800    0.9990 ca        1 IN4     -0.246900
      7 C10         2.0310   -0.3560    3.2040 c3        1 IN4     -0.010400
      8 C9          3.0630   -1.4630    3.3940 c3        1 IN4     -0.076400
      9 C11         3.6370   -1.4580    4.8010 c3        1 IN4     -0.055100
     10 C12         4.6580   -2.5270    4.9880 ca        1 IN4     -0.024300
     11 C20        -2.2300    0.7610    0.9820 ce        1 IN4      0.588800
     12 N3         -3.4680    0.4750    0.8630 n2        1 IN4     -0.706100
     13 N4         -1.8750    2.2190    1.1270 n4        1 IN4     -0.828600
     14 C7          6.0230   -2.2110    4.9970 ca        1 IN4     -0.118000
     15 C13         6.9790   -3.2040    5.2020 ca        1 IN4     -0.085500
     16 C15         6.5710   -4.5270    5.4030 ca        1 IN4     -0.266900
     17 C16         7.5880   -5.5850    5.5740 ce        1 IN4      0.587800
     18 C17         5.2090   -4.8550    5.3930 ca        1 IN4     -0.085500
     19 C19         4.2610   -3.8570    5.1850 ca        1 IN4     -0.118000
     20 N2          8.3990   -6.1250    4.7520 n2        1 IN4     -0.699100
     21 N1          7.6460   -6.0800    6.9980 n4        1 IN4     -0.824600
     22 C14         2.7280    0.9830    2.9460 c3        1 IN4     -0.135400
     23 C22         1.8560    2.1700    3.2370 c         1 IN4      0.669100
     24 O3          0.7680    2.4930    2.7330 o         1 IN4     -0.644000
     25 O4          2.3920    2.9920    4.1720 os        1 IN4     -0.413900
     26 C8          1.6870    4.1990    4.4890 c3        1 IN4      0.122700
     27 H1         -1.3600   -0.9580   -0.9660 ha        1 IN4      0.159000
     28 H2          0.7890   -2.2200   -0.9460 ha        1 IN4      0.168000
     29 H3          2.3900   -1.9520    0.9340 ha        1 IN4      0.154000
     30 H5         -0.4630    0.5510    3.0080 ha        1 IN4      0.149000
     31 H10         1.4340   -0.2700    4.1580 hc        1 IN4      0.073700
     32 H91         2.5750   -2.4570    3.2060 hc        1 IN4      0.060200
     33 H92         3.8910   -1.3440    2.6460 hc        1 IN4      0.060200
     34 H111        4.0940   -0.4560    5.0220 hc        1 IN4      0.068700
     35 H112        2.8050   -1.6130    5.5430 hc        1 IN4      0.068700
     36 HN3        -3.7290   -0.4850    0.7700 hn        1 IN4      0.486400
     37 HN41       -2.6900    2.7910    1.3760 hn        1 IN4      0.478800
     38 HN42       -1.1450    2.3120    1.8540 hn        1 IN4      0.478800
     39 H7          6.3490   -1.1680    4.8450 ha        1 IN4      0.162500
     40 H13         8.0490   -2.9400    5.2000 ha        1 IN4      0.151500
     41 H17         4.8810   -5.8980    5.5300 ha        1 IN4      0.151500
     42 H19         3.1890   -4.1160    5.1770 ha        1 IN4      0.162500
     43 HN2         8.3910   -5.8300    3.7970 hn        1 IN4      0.492400
     44 HN11        7.9580   -5.3080    7.5960 hn        1 IN4      0.472467
     45 HN12        6.7010   -6.3640    7.2770 hn        1 IN4      0.472467
     46 H141        3.6510    1.0540    3.5840 hc        1 IN4      0.095700
     47 H142        3.0460    1.0540    1.8710 hc        1 IN4      0.095700
     48 H81         2.3480    4.6910    5.2470 h1        1 IN4      0.064700
     49 H82         1.5780    4.8250    3.5710 h1        1 IN4      0.064700
     50 H83         0.6870    3.9490    4.9150 h1        1 IN4      0.064700
     51 H43        -1.4920    2.5480    0.2350 hn        1 IN4      0.478800
     52 H131        8.2900   -6.8750    7.1050 hn        1 IN4      0.472467
@<TRIPOS>BOND
     1    1    2 ar  
     2    1    6 ar  
     3    1   27 1   
     4    2    3 ar  
     5    2   28 1   
     6    3    4 ar  
     7    3   29 1   
     8    4    5 ar  
     9    4    7 1   
    10    5    6 ar  
    11    5   30 1   
    12    6   11 1   
    13    7    8 1   
    14    7   22 1   
    15    7   31 1   
    16    8    9 1   
    17    8   32 1   
    18    8   33 1   
    19    9   10 1   
    20    9   34 1   
    21    9   35 1   
    22   10   14 ar  
    23   10   19 ar  
    24   11   12 2   
    25   11   13 1   
    26   12   36 1   
    27   13   37 1   
    28   13   38 1   
    29   13   51 1   
    30   14   15 ar  
    31   14   39 1   
    32   15   16 ar  
    33   15   40 1   
    34   16   17 1   
    35   16   18 ar  
    36   17   20 2   
    37   17   21 1   
    38   18   19 ar  
    39   18   41 1   
    40   19   42 1   
    41   20   43 1   
    42   21   44 1   
    43   21   45 1   
    44   21   52 1   
    45   22   23 1   
    46   22   46 1   
    47   22   47 1   
    48   23   24 2   
    49   23   25 1   
    50   25   26 1   
    51   26   48 1   
    52   26   49 1   
    53   26   50 1   
@<TRIPOS>SUBSTRUCTURE
     1 IN4         1 TEMP              0 ****  ****    0 ROOT
