@<TRIPOS>MOLECULE
IN4
   52    53     1     0     0
SMALL
bcc


@<TRIPOS>ATOM
      1 C1         -0.6320   -0.8110   -0.1580 ca        1 IN4     -0.076000
      2 C2          0.5780   -1.5050   -0.1450 ca        1 IN4     -0.114000
      3 C3          1.4510   -1.3910    0.9390 ca        1 IN4     -0.078000
      4 C4          1.0990   -0.6230    2.0550 ca        1 IN4     -0.086300
      5 C5         -0.1520    0.0040    2.0780 ca        1 IN4     -0.083000
      6 C6         -0.9800   -0.0350    0.9530 ca        1 IN4     -0.246900
      7 C10         2.0290   -0.3580    3.2000 c3        1 IN4     -0.010400
      8 C9          3.0560   -1.4710    3.3850 c3        1 IN4     -0.076400
      9 C11         3.6060   -1.4970    4.8000 c3        1 IN4     -0.055100
     10 C12         4.6040   -2.5870    4.9920 ca        1 IN4     -0.024300
     11 C20        -2.1960    0.8070    0.9350 ce        1 IN4      0.588800
     12 N3         -3.4320    0.5230    0.7890 n2        1 IN4     -0.706100
     13 N4         -1.8440    2.2610    1.1160 n4        1 IN4     -0.828600
     14 C7          5.9650   -2.2860    5.1380 ca        1 IN4     -0.118000
     15 C13         6.8950   -3.3010    5.3500 ca        1 IN4     -0.085500
     16 C15         6.4670   -4.6320    5.4160 ca        1 IN4     -0.265900
     17 C16         7.4490   -5.7220    5.5930 ce        1 IN4      0.587800
     18 C17         5.1100   -4.9450    5.2660 ca        1 IN4     -0.085500
     19 C19         4.1870   -3.9240    5.0560 ca        1 IN4     -0.118000
     20 N2          7.8650   -6.6280    4.7970 n2        1 IN4     -0.699100
     21 N1          8.0360   -5.7290    6.9820 n4        1 IN4     -0.823600
     22 C14         2.7320    0.9840    2.9820 c3        1 IN4     -0.135400
     23 C22         1.8560    2.1670    3.2820 c         1 IN4      0.668100
     24 O3          0.7760    2.4990    2.7680 o         1 IN4     -0.643000
     25 O4          2.3790    2.9710    4.2400 os        1 IN4     -0.413900
     26 C8          1.6690    4.1720    4.5680 c3        1 IN4      0.122700
     27 H1         -1.2940   -0.8690   -1.0370 ha        1 IN4      0.159000
     28 H2          0.8560   -2.1310   -1.0100 ha        1 IN4      0.168000
     29 H3          2.4260   -1.9030    0.9020 ha        1 IN4      0.154000
     30 H5         -0.4620    0.5530    2.9830 ha        1 IN4      0.149000
     31 H10         1.4150   -0.2910    4.1460 hc        1 IN4      0.073700
     32 H91         2.5690   -2.4600    3.1680 hc        1 IN4      0.060200
     33 H92         3.8960   -1.3380    2.6530 hc        1 IN4      0.060200
     34 H111        2.7610   -1.6490    5.5270 hc        1 IN4      0.069200
     35 H112        4.0760   -0.5050    5.0440 hc        1 IN4      0.069200
     36 HN3        -3.6900   -0.4360    0.6720 hn        1 IN4      0.486400
     37 HN41       -1.1240    2.3380    1.8540 hn        1 IN4      0.478800
     38 HN42       -2.6630    2.8260    1.3670 hn        1 IN4      0.478800
     39 H7          6.3070   -1.2390    5.0860 ha        1 IN4      0.162500
     40 H13         7.9630   -3.0470    5.4430 ha        1 IN4      0.151000
     41 H17         4.7680   -5.9910    5.3110 ha        1 IN4      0.151000
     42 H19         3.1180   -4.1700    4.9440 ha        1 IN4      0.162500
     43 HN2         7.5060   -6.6550    3.8640 hn        1 IN4      0.492400
     44 HN11        8.7880   -6.4240    7.0810 hn        1 IN4      0.472467
     45 HN12        7.2870   -5.9420    7.6480 hn        1 IN4      0.472467
     46 H141        3.0690    1.0770    1.9150 hc        1 IN4      0.095700
     47 H142        3.6430    1.0410    3.6380 hc        1 IN4      0.095700
     48 H81         2.3190    4.6510    5.3440 h1        1 IN4      0.064700
     49 H82         0.6630    3.9150    4.9750 h1        1 IN4      0.064700
     50 H83         1.5730    4.8150    3.6600 h1        1 IN4      0.064700
     51 H43        -1.4500    2.6100    0.2370 hn        1 IN4      0.478800
     52 H131        8.4060   -4.7930    7.1780 hn        1 IN4      0.472467
@<TRIPOS>BOND
     1    1    2 ar  
     2    1    6 ar  
     3    1   27 1   
     4    2    3 ar  
     5    2   28 1   
     6    3    4 ar  
     7    3   29 1   
     8    4    5 ar  
     9    4    7 1   
    10    5    6 ar  
    11    5   30 1   
    12    6   11 1   
    13    7    8 1   
    14    7   22 1   
    15    7   31 1   
    16    8    9 1   
    17    8   32 1   
    18    8   33 1   
    19    9   10 1   
    20    9   34 1   
    21    9   35 1   
    22   10   14 ar  
    23   10   19 ar  
    24   11   12 2   
    25   11   13 1   
    26   12   36 1   
    27   13   37 1   
    28   13   38 1   
    29   13   51 1   
    30   14   15 ar  
    31   14   39 1   
    32   15   16 ar  
    33   15   40 1   
    34   16   17 1   
    35   16   18 ar  
    36   17   20 2   
    37   17   21 1   
    38   18   19 ar  
    39   18   41 1   
    40   19   42 1   
    41   20   43 1   
    42   21   44 1   
    43   21   45 1   
    44   21   52 1   
    45   22   23 1   
    46   22   46 1   
    47   22   47 1   
    48   23   24 2   
    49   23   25 1   
    50   25   26 1   
    51   26   48 1   
    52   26   49 1   
    53   26   50 1   
@<TRIPOS>SUBSTRUCTURE
     1 IN4         1 TEMP              0 ****  ****    0 ROOT
