@<TRIPOS>MOLECULE
IN4
   50    51     1     0     0
SMALL
bcc


@<TRIPOS>ATOM
      1 C1         -2.2860    1.5510    3.6150 ca        1 IN4     -0.106000
      2 C2         -1.6230    2.3520    2.6850 ca        1 IN4     -0.136000
      3 C3         -0.6690    1.7980    1.8340 ca        1 IN4     -0.115000
      4 C4         -0.3670    0.4320    1.9030 ca        1 IN4     -0.094300
      5 C5         -1.0340   -0.3740    2.8320 ca        1 IN4     -0.078000
      6 C6         -1.9860    0.1880    3.6880 ca        1 IN4     -0.141900
      7 C10         0.6460   -0.1770    0.9830 c3        1 IN4     -0.018400
      8 C9          0.2460    0.0590   -0.4710 c3        1 IN4     -0.073400
      9 C11         0.8670   -0.9670   -1.4020 c3        1 IN4     -0.041100
     10 C12         0.4920   -0.7100   -2.8210 ca        1 IN4     -0.067300
     11 C20        -2.6950   -0.6850    4.6790 ce        1 IN4      0.649800
     12 N3         -3.2950   -1.7510    4.2450 n2        1 IN4     -0.823100
     13 N4         -2.6850   -0.1830    6.0000 nh        1 IN4     -0.955800
     14 C7          1.0610    0.3630   -3.5170 ca        1 IN4     -0.135000
     15 C13         0.7230    0.6030   -4.8470 ca        1 IN4     -0.097000
     16 C15        -0.1960   -0.2300   -5.4930 ca        1 IN4     -0.144900
     17 C16        -0.5590    0.0310   -6.9230 ce        1 IN4      0.651800
     18 C17        -0.7600   -1.3100   -4.8080 ca        1 IN4     -0.097000
     19 C19        -0.4170   -1.5460   -3.4780 ca        1 IN4     -0.135000
     20 N2          0.3980    0.2080   -7.7830 n2        1 IN4     -0.827100
     21 N1         -1.9470   -0.0140   -7.1860 nh        1 IN4     -0.959800
     22 C14         2.0380    0.3900    1.2480 c3        1 IN4     -0.125400
     23 C22         2.6860   -0.2530    2.4340 c         1 IN4      0.632100
     24 O3          2.6060   -1.4150    2.8370 o         1 IN4     -0.542000
     25 O4          3.4990    0.6110    3.1200 os        1 IN4     -0.441900
     26 C8          4.1920    0.0810    4.2500 c3        1 IN4      0.125700
     27 H1         -3.0480    1.9900    4.2770 ha        1 IN4      0.145000
     28 H2         -1.8590    3.4240    2.6200 ha        1 IN4      0.135000
     29 H3         -0.1540    2.4340    1.0990 ha        1 IN4      0.132000
     30 H5         -0.8150   -1.4520    2.8870 ha        1 IN4      0.155000
     31 H10         0.6820   -1.2910    1.1680 hc        1 IN4      0.082700
     32 H91        -0.8720    0.0010   -0.5560 hc        1 IN4      0.053200
     33 H92         0.5510    1.0910   -0.7870 hc        1 IN4      0.053200
     34 H111        1.9860   -0.9400   -1.3070 hc        1 IN4      0.052700
     35 H112        0.5340   -1.9950   -1.0970 hc        1 IN4      0.052700
     36 HN3        -3.7560   -2.3130    4.9280 hn        1 IN4      0.383400
     37 HN41       -2.8400   -0.8430    6.7270 hn        1 IN4      0.397800
     38 HN42       -1.9690    0.4770    6.1970 hn        1 IN4      0.397800
     39 H7          1.7850    1.0190   -3.0100 ha        1 IN4      0.134500
     40 H13         1.1880    1.4400   -5.3910 ha        1 IN4      0.146000
     41 H17        -1.4650   -1.9850   -5.3170 ha        1 IN4      0.146000
     42 H19        -0.8620   -2.3990   -2.9440 ha        1 IN4      0.134500
     43 HN2         0.1220    0.3800   -8.7260 hn        1 IN4      0.382400
     44 HN11       -2.2620    0.4500   -8.0060 hn        1 IN4      0.398800
     45 HN12       -2.5350    0.1060   -6.3950 hn        1 IN4      0.398800
     46 H141        1.9890    1.5000    1.4010 hc        1 IN4      0.082200
     47 H142        2.7060    0.1920    0.3660 hc        1 IN4      0.082200
     48 H81         4.7800    0.9510    4.6330 h1        1 IN4      0.050033
     49 H82         3.4600   -0.2850    5.0090 h1        1 IN4      0.050033
     50 H83         4.8600   -0.7550    3.9300 h1        1 IN4      0.050033
@<TRIPOS>BOND
     1    1    2 ar  
     2    1    6 ar  
     3    1   27 1   
     4    2    3 ar  
     5    2   28 1   
     6    3    4 ar  
     7    3   29 1   
     8    4    5 ar  
     9    4    7 1   
    10    5    6 ar  
    11    5   30 1   
    12    6   11 1   
    13    7    8 1   
    14    7   22 1   
    15    7   31 1   
    16    8    9 1   
    17    8   32 1   
    18    8   33 1   
    19    9   10 1   
    20    9   34 1   
    21    9   35 1   
    22   10   14 ar  
    23   10   19 ar  
    24   11   12 2   
    25   11   13 1   
    26   12   36 1   
    27   13   37 1   
    28   13   38 1   
    29   14   15 ar  
    30   14   39 1   
    31   15   16 ar  
    32   15   40 1   
    33   16   17 1   
    34   16   18 ar  
    35   17   20 2   
    36   17   21 1   
    37   18   19 ar  
    38   18   41 1   
    39   19   42 1   
    40   20   43 1   
    41   21   44 1   
    42   21   45 1   
    43   22   23 1   
    44   22   46 1   
    45   22   47 1   
    46   23   24 2   
    47   23   25 1   
    48   25   26 1   
    49   26   48 1   
    50   26   49 1   
    51   26   50 1   
@<TRIPOS>SUBSTRUCTURE
     1 IN4         1 TEMP              0 ****  ****    0 ROOT
