@<TRIPOS>MOLECULE
IN5
   37    35     1     0     0
SMALL
bcc


@<TRIPOS>ATOM
      1 C1        152.6630  -31.4570 -127.3890 c1        1 IN5     -0.146000
      2 C2        152.0230  -31.2500 -125.1200 c2        1 IN5     -0.094000
      3 C3        150.6860  -31.2590 -125.3860 c2        1 IN5     -0.045000
      4 O4        151.9940  -31.3600 -133.4460 o         1 IN5     -1.124000
      5 O5        151.9240  -33.2420 -131.7210 o         1 IN5     -1.124000
      6 C9        148.5220  -27.7460 -126.6570 c3        1 IN5      0.075000
      7 C10       148.9260  -26.5030 -126.1350 c2        1 IN5     -0.798000
      8 N1        152.9580  -31.3180 -126.1710 n2        1 IN5     -0.285000
      9 C4        150.0720  -31.3200 -126.7610 c3        1 IN5      0.094000
     10 C5        151.1010  -31.7220 -127.8330 c3        1 IN5     -0.293000
     11 O1        149.7830  -31.1600 -124.3410 oh        1 IN5     -0.301000
     12 C6        152.5460  -31.1750 -123.7270 c3        1 IN5     -0.134000
     13 O2        151.4510  -31.4880 -130.2170 oh        1 IN5     -0.277000
     14 N2        149.6820  -28.8180 -126.6320 n4        1 IN5      0.067000
     15 P1        151.2170  -32.2690 -132.5880 p3        1 IN5      2.403000
     16 O3        149.7510  -32.3330 -132.7000 o         1 IN5     -1.124000
     17 P2      -1250.9810  256.1330    0.4150 p2        1 IN5      0.444000
     18 O6      -1250.5990  255.5970    0.7340 o         1 IN5     -0.126000
     19 O7      -1251.0820  257.5890    0.2120 o         1 IN5     -0.660000
     20 O8      -1251.2620  255.2120    0.2990 os        1 IN5     -0.658000
     21 H1        151.1770  -32.8410 -127.9310 hc        1 IN5      0.129000
     22 H71       150.3470  -30.1230 -129.1750 h4        1 IN5      0.197000
     23 H72       152.0240  -32.2960 -130.0950 ho        1 IN5      0.320000
     24 H81       149.3380  -32.1870 -126.7400 hc        1 IN5      0.056000
     25 H82       148.3620  -30.1870 -127.5940 hx        1 IN5      0.124000
     26 H9        148.2400  -27.7280 -127.7450 hx        1 IN5      0.040000
     27 H101      149.3770  -25.7450 -126.7670 ha        1 IN5      0.062000
     28 H102      147.7170  -28.2620 -126.0650 hx        1 IN5      0.040000
     29 H103      148.8580  -26.2890 -125.0730 ha        1 IN5      0.062000
     30 HO1       148.9590  -30.8210 -124.7320 ho        1 IN5      0.228000
     31 H61       153.3420  -30.3940 -123.6420 hc        1 IN5      0.060667
     32 H62       151.7200  -30.9250 -123.0170 hc        1 IN5      0.060667
     33 H63       152.9900  -32.1570 -123.4260 hc        1 IN5      0.060667
     34 HN2       150.0570  -28.8490 -125.6820 hn        1 IN5      0.131500
     35 C7        150.9200  -31.0690 -129.0740 c2        1 IN5      0.238000
     36 C8        149.2960  -30.1150 -127.0440 c2        1 IN5     -0.833000
     37 H22       150.4500  -28.4650 -127.2100 hn        1 IN5      0.131500
@<TRIPOS>BOND
     1    1    8 1   
     2    1   10 1   
     3    2    3 1   
     4    2    8 1   
     5    2   12 1   
     6    3    9 1   
     7    3   11 1   
     8    4   15 1   
     9    5   15 1   
    10    6    7 1   
    11    6   14 1   
    12    6   26 1   
    13    6   28 1   
    14    7   27 1   
    15    7   29 1   
    16    9   10 1   
    17    9   24 1   
    18    9   36 1   
    19   10   21 1   
    20   10   35 1   
    21   11   30 1   
    22   12   31 1   
    23   12   32 1   
    24   12   33 1   
    25   13   23 1   
    26   13   35 1   
    27   14   34 1   
    28   14   36 1   
    29   14   37 1   
    30   15   16 1   
    31   17   19 1   
    32   17   20 1   
    33   18   20 1   
    34   22   35 1   
    35   25   36 1   
@<TRIPOS>SUBSTRUCTURE
     1 IN5         1 TEMP              0 ****  ****    0 ROOT
