@<TRIPOS>MOLECULE
IN5
   36    36     1     0     0
SMALL
bcc


@<TRIPOS>ATOM
      1 C1         -1.3780   -0.9030    2.4970 ca        1 IN5      0.364200
      2 C2          0.6800   -0.4980    3.4430 ca        1 IN5      0.278600
      3 C3          1.1250    0.1000    2.2380 ca        1 IN5      0.028800
      4 O4         -5.5570   -0.8320   -0.5190 o         1 IN5     -0.938833
      5 O5         -5.2340   -0.3970    1.9630 o         1 IN5     -0.938833
      6 C9          3.1930    0.4430   -0.8200 c3        1 IN5     -0.039700
      7 C10         4.0850   -0.4260    0.0340 c3        1 IN5     -0.062100
      8 N1         -0.5730   -1.0130    3.5570 nb        1 IN5     -0.705000
      9 C4          0.2970    0.1400    1.0890 ca        1 IN5     -0.111300
     10 C5         -1.0200   -0.3250    1.2460 ca        1 IN5     -0.129600
     11 O1          2.3710    0.6820    2.3110 oh        1 IN5     -0.557100
     12 C6          1.6100   -0.5390    4.6080 c3        1 IN5     -0.097400
     13 O2         -3.2380   -0.9220    0.5270 os        1 IN5     -0.581200
     14 N2          1.8280   -0.0120   -0.9210 n3        1 IN5     -0.801200
     15 P1         -4.7770   -0.1170    0.5540 p5        1 IN5      1.321900
     16 O3         -4.4450    1.3230    0.2570 o         1 IN5     -0.938833
     17 P2          3.9960    0.5060   -2.4950 p5        1 IN5      1.202700
     18 O6          2.8480    0.7560   -3.4450 o         1 IN5     -0.949167
     19 O7          4.9390    1.6800   -2.3250 o         1 IN5     -0.949167
     20 O8          4.7210   -0.8020   -2.7250 o         1 IN5     -0.949167
     21 H1         -2.4120   -1.2920    2.6170 h4        1 IN5      0.069100
     22 H71        -2.3640    0.8920    0.0830 h1        1 IN5      0.033200
     23 H72        -1.6800   -0.5960   -0.7680 h1        1 IN5      0.033200
     24 H81         1.1780    1.7850    0.0720 h1        1 IN5      0.021200
     25 H82        -0.0790    0.8850   -0.8740 h1        1 IN5      0.021200
     26 H9          3.2620    1.5090   -0.4700 h1        1 IN5      0.011700
     27 H101        3.5200   -1.1900    0.6260 hc        1 IN5      0.005700
     28 H102        4.8140   -0.9680   -0.6250 hc        1 IN5      0.005700
     29 H103        4.6660    0.1860    0.7760 hc        1 IN5      0.005700
     30 HO1         2.6820    0.8550    1.4070 ho        1 IN5      0.462000
     31 H61         1.6450    0.4660    5.0970 hc        1 IN5      0.011367
     32 H62         1.3010   -1.2930    5.3720 hc        1 IN5      0.011367
     33 H63         2.6410   -0.7850    4.2510 hc        1 IN5      0.011367
     34 HN2         1.5850   -0.0060   -1.9050 hn        1 IN5      0.400800
     35 C7         -2.1120   -0.2050    0.2030 c3        1 IN5      0.237700
     36 C8          0.8160    0.7450   -0.2000 c3        1 IN5      0.213100
@<TRIPOS>BOND
     1    1    8 ar  
     2    1   10 ar  
     3    1   21 1   
     4    2    3 ar  
     5    2    8 ar  
     6    2   12 1   
     7    3    9 ar  
     8    3   11 1   
     9    4   15 1   
    10    5   15 1   
    11    6    7 1   
    12    6   14 1   
    13    6   17 1   
    14    6   26 1   
    15    7   27 1   
    16    7   28 1   
    17    7   29 1   
    18    9   10 ar  
    19    9   36 1   
    20   10   35 1   
    21   11   30 1   
    22   12   31 1   
    23   12   32 1   
    24   12   33 1   
    25   13   15 1   
    26   13   35 1   
    27   14   34 1   
    28   14   36 1   
    29   15   16 1   
    30   17   18 1   
    31   17   19 1   
    32   17   20 1   
    33   22   35 1   
    34   23   35 1   
    35   24   36 1   
    36   25   36 1   
@<TRIPOS>SUBSTRUCTURE
     1 IN5         1 TEMP              0 ****  ****    0 ROOT
