@<TRIPOS>MOLECULE
IN5
   37    34     1     0     0
SMALL
bcc


@<TRIPOS>ATOM
      1 C1         -0.0860   -0.4690    0.0180 c2        1 IN5     -0.152000
      2 C2          1.7270   -0.4360    1.4950 c2        1 IN5     -0.249000
      3 C3          0.7610   -0.2590    2.5900 c2        1 IN5      0.160000
      4 O4         -5.3490    0.9540   -2.3680 o         1 IN5     -1.166000
      5 O5         -3.3060   -0.4780   -2.9120 o         1 IN5     -1.166000
      6 C9         -1.1190    1.6080    5.2600 c2        1 IN5     -0.697000
      7 C10        -0.0440    2.6060    4.9340 c3        1 IN5     -0.150000
      8 N1          1.1920   -0.5720    0.2050 n2        1 IN5     -0.066000
      9 C4         -0.6040   -0.1760    2.4040 c2        1 IN5     -0.337000
     10 C5         -1.1130   -0.2080    1.0380 c2        1 IN5     -0.090000
     11 O1          1.3480   -0.2250    3.8300 oh        1 IN5     -0.274000
     12 C6          3.0820   -0.4780    1.6930 c1        1 IN5     -0.300000
     13 O2         -2.9720   -0.0490   -0.5340 oh        1 IN5     -0.345000
     14 N2         -1.9010    1.1620    4.1090 ny        1 IN5      0.001000
     15 P1         -4.6440   -0.3400   -2.2940 p3        1 IN5      2.478500
     16 O3         -5.3960   -1.5480   -1.9020 o         1 IN5     -1.166000
     17 P2         -2.6820    1.9270    6.7550 p3        1 IN5      2.478500
     18 O6         -2.3320    0.7450    7.5870 o         1 IN5     -1.166000
     19 O7         -2.4320    3.2870    7.2980 o         1 IN5     -1.166000
     20 O8         -3.8500    1.7580    5.8210 o         1 IN5     -1.166000
     21 H1         -0.4290   -0.5990   -1.0260 h4        1 IN5      0.129000
     22 H71        -3.2090    0.2110    1.4540 h4        1 IN5      0.138000
     23 H72        -2.2850   -0.1980   -1.2110 ho        1 IN5      0.262000
     24 H81        -2.5280   -0.6560    3.2180 hx        1 IN5      0.101000
     25 H82        -1.1600   -0.8100    4.3930 hx        1 IN5      0.101000
     26 H9         -0.7130    0.7440    5.8330 hx        1 IN5      0.110000
     27 H101       -0.4690    3.5390    4.4890 hc        1 IN5      0.049667
     28 H102        0.7180    2.1980    4.2180 hc        1 IN5      0.049667
     29 H103        0.4860    2.8840    5.8780 hc        1 IN5      0.049667
     30 HO1         0.6920    0.0490    4.4900 ho        1 IN5      0.220000
     31 H61         2.9830    1.2760    4.3240 ha        1 IN5      0.000000
     32 H62         3.3610    1.6000    4.7860 ha        1 IN5      0.000000
     33 H63         3.4230   -0.3520    2.7360 ha        1 IN5      0.005000
     34 HN2        -2.9130    1.1510    4.4330 hn        1 IN5      0.241000
     35 C7         -2.4160   -0.0080    0.7250 c2        1 IN5     -0.087000
     36 C8         -1.5580   -0.1800    3.5460 c3        1 IN5     -0.071000
     37 H22        -1.8160    1.8470    3.3570 hn        1 IN5      0.241000
@<TRIPOS>BOND
     1    1    8 1   
     2    1   10 1   
     3    1   21 1   
     4    2    3 1   
     5    2    8 1   
     6    2   12 1   
     7    3    9 1   
     8    3   11 1   
     9    4   15 1   
    10    5   15 1   
    11    6    7 1   
    12    6   14 1   
    13    6   26 1   
    14    7   27 1   
    15    7   28 1   
    16    7   29 1   
    17    9   10 1   
    18    9   36 1   
    19   10   35 1   
    20   11   30 1   
    21   12   33 1   
    22   13   23 1   
    23   13   35 1   
    24   14   34 1   
    25   14   36 1   
    26   14   37 1   
    27   15   16 1   
    28   17   18 1   
    29   17   19 1   
    30   17   20 1   
    31   22   35 1   
    32   24   36 1   
    33   25   36 1   
    34   31   32 1   
@<TRIPOS>SUBSTRUCTURE
     1 IN5         1 TEMP              0 ****  ****    0 ROOT
