@<TRIPOS>MOLECULE
IN5
   37    37     1     0     0
SMALL
bcc


@<TRIPOS>ATOM
      1 C1          0.0010   -1.0380    0.1400 c2        1 IN5     -0.245000
      2 C2          1.6450   -0.0630    1.4360 c2        1 IN5     -0.353000
      3 C3          0.7170    0.1460    2.4850 c2        1 IN5      0.202000
      4 O4         -3.4230    2.3540   -0.6300 o         1 IN5     -0.862833
      5 O5         -2.8170    1.1800   -2.8150 o         1 IN5     -0.862833
      6 C9         -1.5550    1.2360    5.4130 c3        1 IN5     -0.707000
      7 C10        -1.1590    2.6750    5.3950 c3        1 IN5     -0.191000
      8 N1          1.2570   -0.7370    0.2980 n2        1 IN5     -0.079000
      9 C4         -0.6250   -0.2230    2.3900 c2        1 IN5     -0.492000
     10 C5         -1.1340   -0.6860    1.0720 c3        1 IN5     -0.016000
     11 O1          1.2590    0.6790    3.6380 oh        1 IN5     -0.298000
     12 C6          3.0510    0.3830    1.5720 c3        1 IN5     -0.074000
     13 O2         -2.8010   -0.0630   -0.5370 os        1 IN5     -0.423000
     14 N2         -2.1550    0.7100    4.1850 n4        1 IN5     -0.020000
     15 P1         -3.6930    1.2730   -1.6170 p5        1 IN5      1.483500
     16 O3         -5.0500    0.6730   -1.6870 o         1 IN5     -0.862833
     17 P2         -2.8390    0.9820    6.8470 p5        1 IN5      1.588500
     18 O6         -2.9840    2.3150    7.5130 o         1 IN5     -0.898500
     19 O7         -4.0260    0.5160    6.0250 o         1 IN5     -0.898500
     20 O8         -2.1330   -0.0840    7.6270 o         1 IN5     -0.898500
     21 H1         -1.7760   -1.6080    1.2110 hc        1 IN5      0.068000
     22 H71        -1.8520    1.4170    0.5210 h4        1 IN5      0.174000
     23 H72        -0.2860   -1.5890   -0.7690 h4        1 IN5      0.124000
     24 H81        -2.2830   -1.2030    3.3130 hx        1 IN5      0.094000
     25 H82        -0.8440   -0.9510    4.3970 hx        1 IN5      0.094000
     26 H9         -0.7190    0.5860    5.7680 hx        1 IN5      0.123000
     27 H101       -1.7250    3.2840    4.6440 hc        1 IN5      0.068333
     28 H102       -0.0700    2.8040    5.1630 hc        1 IN5      0.068333
     29 H103       -1.3690    3.1020    6.4130 hc        1 IN5      0.068333
     30 HO1         0.5380    0.8770    4.2520 ho        1 IN5      0.222000
     31 H61         3.1160    1.2200    2.3120 hc        1 IN5      0.033333
     32 H62         3.7070   -0.4500    1.9390 hc        1 IN5      0.033333
     33 H63         3.4720    0.7400    0.5990 hc        1 IN5      0.033333
     34 HN2        -2.2110    1.4400    3.4730 hn        1 IN5      0.243500
     35 C7         -1.9800    0.3260    0.3280 c2        1 IN5      0.240000
     36 C8         -1.4620   -0.4750    3.5820 c3        1 IN5     -0.023000
     37 H22        -3.1500    0.4330    4.4750 hn        1 IN5      0.243500
@<TRIPOS>BOND
     1    1    8 1   
     2    1   10 1   
     3    1   23 1   
     4    2    3 1   
     5    2    8 1   
     6    2   12 1   
     7    3    9 1   
     8    3   11 1   
     9    4   15 1   
    10    5   15 1   
    11    6    7 1   
    12    6   14 1   
    13    6   17 1   
    14    6   26 1   
    15    7   27 1   
    16    7   28 1   
    17    7   29 1   
    18    9   10 1   
    19    9   36 1   
    20   10   21 1   
    21   10   35 1   
    22   11   30 1   
    23   12   31 1   
    24   12   32 1   
    25   12   33 1   
    26   13   15 1   
    27   13   35 1   
    28   14   34 1   
    29   14   36 1   
    30   14   37 1   
    31   15   16 1   
    32   17   18 1   
    33   17   19 1   
    34   17   20 1   
    35   22   35 1   
    36   24   36 1   
    37   25   36 1   
@<TRIPOS>SUBSTRUCTURE
     1 IN5         1 TEMP              0 ****  ****    0 ROOT
