@<TRIPOS>MOLECULE
IN5
   36    33     1     0     0
SMALL
bcc


@<TRIPOS>ATOM
      1 C1          0.3800   -0.3160   -2.9580 c1        1 IN5      0.270300
      2 C2          2.4290   -0.3840   -1.7900 c1        1 IN5     -0.119100
      3 C3          1.7330   -0.3390   -0.5660 c1        1 IN5      0.112600
      4 O4         -4.8110    0.2640   -2.6840 o         1 IN5     -0.941500
      5 O5         -3.9740   -2.0320   -2.9910 o         1 IN5     -0.941500
      6 C7         -1.8320   -0.2870   -1.7400 c3        1 IN5      0.209500
      7 C8         -0.3840   -0.4000    0.7540 c3        1 IN5      0.179900
      8 C9         -0.4840    0.7610    2.8360 c3        1 IN5     -0.027700
      9 C10        -0.4750   -0.0910    4.0460 c3        1 IN5     -0.093100
     10 N1          1.7430   -0.3720   -2.9630 n1        1 IN5     -0.515800
     11 C4          0.3760   -0.2830   -0.5600 c1        1 IN5     -0.104100
     12 C5         -0.3130   -0.2710   -1.7470 c1        1 IN5     -0.042100
     13 O1          2.6340   -1.1380    0.1620 oh        1 IN5     -0.588600
     14 C6          3.9740   -0.4520   -1.8000 c3        1 IN5     -0.039000
     15 O2         -2.3280   -0.0930   -3.0800 os        1 IN5     -0.583200
     16 N2          0.4080    0.1910    1.8270 n3        1 IN5     -0.798200
     17 P1         -3.8160   -0.5900   -3.4190 p5        1 IN5      1.323900
     18 O3         -4.0580   -0.4760   -4.9070 o         1 IN5     -0.941500
     19 P2          0.0810    2.4250    3.2710 p5        1 IN5      1.222700
     20 O6         -0.2220    3.3660    2.1500 o         1 IN5     -0.942500
     21 O7         -0.6360    2.8910    4.5320 o         1 IN5     -0.942500
     22 O8          1.5700    2.4020    3.5200 o         1 IN5     -0.942500
     23 H1         -0.1110   -0.3070   -3.8000 ha        1 IN5      0.131500
     24 H71        -2.1680    0.4440   -1.1540 h1        1 IN5      0.023200
     25 H72        -2.1500   -1.1560   -1.3950 h1        1 IN5      0.023200
     26 H81        -0.5530   -1.3550    0.9550 h1        1 IN5      0.032200
     27 H82        -1.2540    0.0830    0.6780 h1        1 IN5      0.032200
     28 H9         -1.3870    0.8080    2.4800 h1        1 IN5      0.021700
     29 H101        0.3720    0.0470    4.5400 hc        1 IN5      0.013700
     30 H102       -1.2310    0.1520    4.6200 hc        1 IN5      0.013700
     31 H103       -0.5510   -1.0240    3.7870 hc        1 IN5      0.013700
     32 HO1         3.2040   -0.6140    0.6060 ho        1 IN5      0.524000
     33 H61         4.3040   -0.3280   -2.7250 hc        1 IN5      0.015700
     34 H62         4.3340    0.2520   -1.2290 hc        1 IN5      0.015700
     35 H63         4.2650   -1.3280   -1.4620 hc        1 IN5      0.015700
     36 HN2         0.9310   -0.4500    2.2080 hn        1 IN5      0.369800
@<TRIPOS>BOND
     1    1   10 3   
     2    1   23 1   
     3    2    3 3   
     4    2   14 1   
     5    3   13 1   
     6    4   17 1   
     7    5   17 1   
     8    6   12 1   
     9    6   15 1   
    10    6   24 1   
    11    6   25 1   
    12    7   11 1   
    13    7   16 1   
    14    7   26 1   
    15    7   27 1   
    16    8    9 1   
    17    8   16 1   
    18    8   19 1   
    19    8   28 1   
    20    9   29 1   
    21    9   30 1   
    22    9   31 1   
    23   11   12 3   
    24   13   32 1   
    25   14   33 1   
    26   14   34 1   
    27   14   35 1   
    28   15   17 1   
    29   16   36 1   
    30   17   18 1   
    31   19   20 1   
    32   19   21 1   
    33   19   22 1   
@<TRIPOS>SUBSTRUCTURE
     1 IN5         1 TEMP              0 ****  ****    0 ROOT
