@<TRIPOS>MOLECULE
IN6
   82    84     1     0     0
SMALL
bcc


@<TRIPOS>ATOM
      1 C1         -6.7660   -2.5660   -2.3850 ca        1 IN6     -0.123000
      2 C2         -5.9420   -1.6220   -2.9980 ca        1 IN6     -0.131000
      3 C3         -4.7240   -2.0120   -3.5540 ca        1 IN6     -0.111000
      4 C4         -4.3240   -3.3500   -3.4940 ca        1 IN6     -0.097300
      5 C5         -5.1490   -4.2950   -2.8720 ca        1 IN6     -0.111000
      6 C6         -6.3680   -3.9010   -2.3240 ca        1 IN6     -0.131000
      7 C7         -3.0460   -3.8060   -4.1130 c3        1 IN6      0.196700
      8 O8         -2.0880   -2.7360   -3.9720 os        1 IN6     -0.435900
      9 C9         -0.8400   -3.0100   -4.4900 c         1 IN6      0.730100
     10 O10        -0.6180   -4.1360   -4.9680 o         1 IN6     -0.590000
     11 C11         1.4250   -2.1170   -4.6530 c3        1 IN6      0.079400
     12 C12         2.1050   -0.8910   -5.2920 c3        1 IN6     -0.073400
     13 C14         1.7210   -0.6940   -6.7500 c3        1 IN6     -0.070700
     14 C15         2.0840    0.7130   -7.1850 c3        1 IN6     -0.092600
     15 C16         2.4050   -1.7060   -7.6470 c3        1 IN6     -0.092600
     16 C17         2.1480   -2.4350   -3.3620 cc        1 IN6      0.326700
     17 S18         3.0750   -3.8710   -3.1790 ss        1 IN6      0.010700
     18 N19         2.1270   -1.6490   -2.2840 nd        1 IN6     -0.610000
     19 C20         2.8950   -2.2310   -1.2810 cd        1 IN6      0.275800
     20 N24         0.0050   -1.9120   -4.4600 n         1 IN6     -0.510900
     21 C42         3.4790   -3.4530   -1.6290 cc        1 IN6     -0.201400
     22 C21         3.0850   -1.6300    0.0620 c         1 IN6      0.552600
     23 O22         3.6290   -2.2750    0.9780 o         1 IN6     -0.585100
     24 C1'        -5.0380    5.1860    5.9120 ca        1 IN6     -0.124000
     25 C2'        -4.5920    3.8840    6.1360 ca        1 IN6     -0.131500
     26 C3'        -3.2480    3.5610    5.9480 ca        1 IN6     -0.111000
     27 C4'        -2.3450    4.5430    5.5290 ca        1 IN6     -0.097300
     28 C5'        -2.7960    5.8480    5.2970 ca        1 IN6     -0.111000
     29 C6'        -4.1380    6.1670    5.4940 ca        1 IN6     -0.131500
     30 C7'        -0.8950    4.2410    5.3560 c3        1 IN6      0.196700
     31 O8'        -0.7870    2.8770    4.8940 os        1 IN6     -0.435900
     32 C9'         0.5050    2.4480    4.6740 c         1 IN6      0.734100
     33 OA'         1.4450    3.2470    4.8290 o         1 IN6     -0.589000
     34 CB'         1.7910    0.5790    3.7800 c3        1 IN6      0.035700
     35 CC'         2.3240   -0.6650    4.5120 c3        1 IN6     -0.081400
     36 CE'         2.6820   -0.4020    5.9670 c3        1 IN6     -0.063700
     37 CF'         3.2060   -1.6830    6.5880 c3        1 IN6     -0.097600
     38 CG'         3.7010    0.7090    6.1100 c3        1 IN6     -0.097600
     39 CH'         1.5760    0.1520    2.3070 c         1 IN6      0.580100
     40 OI'         0.4720   -0.2270    1.8840 o         1 IN6     -0.570100
     41 NJ'         2.6960    0.3200    1.4470 n         1 IN6     -0.376500
     42 NK'         2.7540   -0.2550    0.2160 n         1 IN6     -0.370500
     43 NO'         0.5770    1.1010    4.3620 n         1 IN6     -0.513900
     44 H1         -7.7270   -2.2570   -1.9480 ha        1 IN6      0.132000
     45 H2         -6.2510   -0.5670   -3.0430 ha        1 IN6      0.133000
     46 H3         -4.0680   -1.2700   -4.0340 ha        1 IN6      0.138500
     47 H5         -4.8340   -5.3470   -2.8160 ha        1 IN6      0.138500
     48 H6         -7.0150   -4.6470   -1.8390 ha        1 IN6      0.133000
     49 H71        -3.1810   -4.0200   -5.2070 h1        1 IN6      0.064700
     50 H72        -2.6370   -4.7200   -3.6050 h1        1 IN6      0.064700
     51 H11         1.5490   -3.0080   -5.3440 h1        1 IN6      0.097700
     52 H121        1.8470    0.0300   -4.7050 hc        1 IN6      0.059200
     53 H122        3.2150   -1.0370   -5.2150 hc        1 IN6      0.059200
     54 H14         0.6060   -0.8190   -6.8580 hc        1 IN6      0.063700
     55 H151        1.5320    1.4660   -6.5740 hc        1 IN6      0.036200
     56 H152        3.1800    0.8910   -7.0620 hc        1 IN6      0.036200
     57 H153        1.8190    0.8640   -8.2590 hc        1 IN6      0.036200
     58 H161        3.5150   -1.6270   -7.5560 hc        1 IN6      0.036200
     59 H162        2.0990   -2.7450   -7.3790 hc        1 IN6      0.036200
     60 H163        2.1250   -1.5230   -8.7130 hc        1 IN6      0.036200
     61 HN4        -0.2640   -1.1490   -3.8780 hn        1 IN6      0.329500
     62 H42         4.1060   -4.0350   -0.9500 h4        1 IN6      0.207000
     63 H2'        -5.3000    3.1070    6.4620 ha        1 IN6      0.133000
     64 H3'        -2.8930    2.5340    6.1180 ha        1 IN6      0.138500
     65 H5'        -2.0900    6.6220    4.9600 ha        1 IN6      0.138500
     66 H6'        -4.4880    7.1940    5.3140 ha        1 IN6      0.133000
     67 H7'1       -0.3450    4.3300    6.3310 h1        1 IN6      0.065200
     68 H7'2       -0.4140    4.9140    4.5970 h1        1 IN6      0.065200
     69 H11'        2.5820    1.3920    3.8280 h1        1 IN6      0.111700
     70 H12A        3.2370   -1.0170    3.9630 hc        1 IN6      0.058700
     71 H12B        1.5600   -1.4850    4.4640 hc        1 IN6      0.058700
     72 H14'        1.7480   -0.1000    6.5190 hc        1 IN6      0.060700
     73 H15A        3.4190   -1.5230    7.6730 hc        1 IN6      0.038533
     74 H15B        2.4530   -2.5010    6.4920 hc        1 IN6      0.038533
     75 H15C        4.1490   -2.0060    6.0860 hc        1 IN6      0.038533
     76 H16A        4.5840    0.5230    5.4530 hc        1 IN6      0.038533
     77 H16B        3.2500    1.6960    5.8370 hc        1 IN6      0.038533
     78 H16C        4.0560    0.7680    7.1680 hc        1 IN6      0.038533
     79 HN9         3.5830    0.2310    1.9210 hn        1 IN6      0.315500
     80 HN0         1.9900    0.0650   -0.3630 hn        1 IN6      0.335500
     81 HN2        -0.2730    0.6380    4.1170 hn        1 IN6      0.337500
     82 H1'        -6.0970    5.4400    6.0640 ha        1 IN6      0.132000
@<TRIPOS>BOND
     1    1    2 ar  
     2    1    6 ar  
     3    1   44 1   
     4    2    3 ar  
     5    2   45 1   
     6    3    4 ar  
     7    3   46 1   
     8    4    5 ar  
     9    4    7 1   
    10    5    6 ar  
    11    5   47 1   
    12    6   48 1   
    13    7    8 1   
    14    7   49 1   
    15    7   50 1   
    16    8    9 1   
    17    9   10 2   
    18    9   20 1   
    19   11   12 1   
    20   11   16 1   
    21   11   20 1   
    22   11   51 1   
    23   12   13 1   
    24   12   52 1   
    25   12   53 1   
    26   13   14 1   
    27   13   15 1   
    28   13   54 1   
    29   14   55 1   
    30   14   56 1   
    31   14   57 1   
    32   15   58 1   
    33   15   59 1   
    34   15   60 1   
    35   16   17 1   
    36   16   18 2   
    37   17   21 1   
    38   18   19 1   
    39   19   21 2   
    40   19   22 1   
    41   20   61 1   
    42   21   62 1   
    43   22   23 2   
    44   22   42 1   
    45   24   25 ar  
    46   24   29 ar  
    47   24   82 1   
    48   25   26 ar  
    49   25   63 1   
    50   26   27 ar  
    51   26   64 1   
    52   27   28 ar  
    53   27   30 1   
    54   28   29 ar  
    55   28   65 1   
    56   29   66 1   
    57   30   31 1   
    58   30   67 1   
    59   30   68 1   
    60   31   32 1   
    61   32   33 2   
    62   32   43 1   
    63   34   35 1   
    64   34   39 1   
    65   34   43 1   
    66   34   69 1   
    67   35   36 1   
    68   35   70 1   
    69   35   71 1   
    70   36   37 1   
    71   36   38 1   
    72   36   72 1   
    73   37   73 1   
    74   37   74 1   
    75   37   75 1   
    76   38   76 1   
    77   38   77 1   
    78   38   78 1   
    79   39   40 2   
    80   39   41 1   
    81   41   42 1   
    82   41   79 1   
    83   42   80 1   
    84   43   81 1   
@<TRIPOS>SUBSTRUCTURE
     1 IN6         1 TEMP              0 ****  ****    0 ROOT
