@<TRIPOS>MOLECULE
IN6
   82    84     1     0     0
SMALL
bcc


@<TRIPOS>ATOM
      1 C1          3.8840   -5.0640    7.3940 ca        1 IN6     -0.123000
      2 C2          3.2040   -4.0090    6.7880 ca        1 IN6     -0.131000
      3 C3          3.8640   -2.8080    6.5270 ca        1 IN6     -0.111000
      4 C4          5.2090   -2.6590    6.8790 ca        1 IN6     -0.097300
      5 C5          5.8880   -3.7170    7.4950 ca        1 IN6     -0.111000
      6 C6          5.2260   -4.9170    7.7470 ca        1 IN6     -0.131000
      7 C7          5.9540   -1.4020    6.5800 c3        1 IN6      0.196700
      8 O8          5.0250   -0.3050    6.7080 os        1 IN6     -0.435900
      9 C9          5.5700    0.9400    6.4710 c         1 IN6      0.730100
     10 O10         6.7870    1.0320    6.2330 o         1 IN6     -0.590000
     11 C11         5.0590    3.3240    6.5640 c3        1 IN6      0.079400
     12 C12         4.0900    4.2920    5.8590 c3        1 IN6     -0.073400
     13 C14         4.1240    4.1670    4.3440 c3        1 IN6     -0.070700
     14 C15         2.8940    4.8280    3.7520 c3        1 IN6     -0.092600
     15 C16         5.3770    4.7890    3.7630 c3        1 IN6     -0.092600
     16 C17         5.2230    3.7830    7.9960 cc        1 IN6      0.326700
     17 S18         6.7150    4.4100    8.5770 ss        1 IN6      0.010700
     18 N19         4.2500    3.7400    8.9080 nd        1 IN6     -0.610000
     19 C20         4.7310    4.2400   10.1130 cd        1 IN6      0.275800
     20 N24         4.6200    1.9480    6.4660 n         1 IN6     -0.510900
     21 C42         6.0680    4.6480   10.0810 cc        1 IN6     -0.201400
     22 C21         3.9170    4.3320   11.3480 c         1 IN6      0.552600
     23 O22         4.4440    4.6150   12.4410 o         1 IN6     -0.585100
     24 C1'        -5.0050   -3.2460   14.4580 ca        1 IN6     -0.124000
     25 C2'        -3.7200   -3.0720   14.9720 ca        1 IN6     -0.131500
     26 C3'        -3.1760   -1.7920   15.0790 ca        1 IN6     -0.111000
     27 C4'        -3.9160   -0.6800   14.6670 ca        1 IN6     -0.097300
     28 C5'        -5.2030   -0.8570   14.1450 ca        1 IN6     -0.111000
     29 C6'        -5.7450   -2.1370   14.0460 ca        1 IN6     -0.131500
     30 C7'        -3.3800    0.7040   14.8040 c3        1 IN6      0.196700
     31 O8'        -1.9520    0.6390   14.6030 os        1 IN6     -0.435900
     32 C9'        -1.3060    1.8550   14.6880 c         1 IN6      0.734100
     33 OA'        -1.9750    2.8860   14.8710 o         1 IN6     -0.589000
     34 CB'         0.8670    2.9110   14.3590 c3        1 IN6      0.035700
     35 CC'         2.0100    3.1050   15.3710 c3        1 IN6     -0.081400
     36 CE'         1.5270    3.2860   16.8010 c3        1 IN6     -0.063700
     37 CF'         2.7250    3.4810   17.7100 c3        1 IN6     -0.097600
     38 CG'         0.5690    4.4510   16.9350 c3        1 IN6     -0.097600
     39 CH'         1.5350    2.8430   12.9640 c         1 IN6      0.580100
     40 OI'         1.8250    1.7650   12.4210 o         1 IN6     -0.570100
     41 NJ'         1.7000    4.0890   12.2990 n         1 IN6     -0.376500
     42 NK'         2.5040    4.2270   11.2110 n         1 IN6     -0.370500
     43 NO'         0.0720    1.7350   14.6230 n         1 IN6     -0.513900
     44 H1          3.3630   -6.0110    7.5970 ha        1 IN6      0.132000
     45 H2          2.1440   -4.1210    6.5140 ha        1 IN6      0.133500
     46 H3          3.3300   -1.9700    6.0540 ha        1 IN6      0.138500
     47 H5          6.9440   -3.6010    7.7810 ha        1 IN6      0.138500
     48 H6          5.7630   -5.7480    8.2270 ha        1 IN6      0.133500
     49 H71         6.3530   -1.4090    5.5300 h1        1 IN6      0.064700
     50 H72         6.8020   -1.2370    7.2970 h1        1 IN6      0.064700
     51 H11         6.0750    3.3920    6.0630 h1        1 IN6      0.096700
     52 H121        3.0450    4.1140    6.2290 hc        1 IN6      0.059200
     53 H122        4.3750    5.3360    6.1530 hc        1 IN6      0.059200
     54 H14         4.1060    3.0750    4.0640 hc        1 IN6      0.063700
     55 H151        2.8550    5.9070    4.0350 hc        1 IN6      0.036200
     56 H152        1.9660    4.3300    4.1220 hc        1 IN6      0.036200
     57 H153        2.9160    4.7540    2.6380 hc        1 IN6      0.036200
     58 H161        5.4420    5.8710    4.0330 hc        1 IN6      0.036200
     59 H162        5.3640    4.7050    2.6490 hc        1 IN6      0.036200
     60 H163        6.2910    4.2720    4.1420 hc        1 IN6      0.036200
     61 HN4         3.7290    1.7320    6.8570 hn        1 IN6      0.329500
     62 H42         6.5930    5.0580   10.9470 h4        1 IN6      0.207000
     63 H2'        -3.1320   -3.9440   15.2930 ha        1 IN6      0.133000
     64 H3'        -2.1600   -1.6510   15.4780 ha        1 IN6      0.138500
     65 H5'        -5.7860    0.0140   13.8130 ha        1 IN6      0.138500
     66 H6'        -6.7580   -2.2730   13.6390 ha        1 IN6      0.133000
     67 H7'1       -3.8170    1.4010   14.0400 h1        1 IN6      0.065200
     68 H7'2       -3.5750    1.1130   15.8320 h1        1 IN6      0.065200
     69 H11'        0.1840    3.8160   14.4090 h1        1 IN6      0.111700
     70 H12A        2.7050    2.2250   15.3270 hc        1 IN6      0.058700
     71 H12B        2.5910    4.0140   15.0580 hc        1 IN6      0.058700
     72 H14'        0.9910    2.3480   17.1220 hc        1 IN6      0.059700
     73 H15A        3.4290    2.6190   17.6200 hc        1 IN6      0.038533
     74 H15B        2.3920    3.5580   18.7730 hc        1 IN6      0.038533
     75 H15C        3.2730    4.4160   17.4430 hc        1 IN6      0.038533
     76 H16A        1.0040    5.3750   16.4840 hc        1 IN6      0.038533
     77 H16B        0.3590    4.6520   18.0130 hc        1 IN6      0.038533
     78 H16C       -0.4010    4.2240   16.4260 hc        1 IN6      0.038533
     79 HN9         1.8230    4.8680   12.9300 hn        1 IN6      0.315500
     80 HN0         2.1960    3.6240   10.4610 hn        1 IN6      0.335500
     81 HN2         0.4460    0.8630   14.3120 hn        1 IN6      0.337500
     82 H1'        -5.4340   -4.2550   14.3770 ha        1 IN6      0.132000
@<TRIPOS>BOND
     1    1    2 ar  
     2    1    6 ar  
     3    1   44 1   
     4    2    3 ar  
     5    2   45 1   
     6    3    4 ar  
     7    3   46 1   
     8    4    5 ar  
     9    4    7 1   
    10    5    6 ar  
    11    5   47 1   
    12    6   48 1   
    13    7    8 1   
    14    7   49 1   
    15    7   50 1   
    16    8    9 1   
    17    9   10 2   
    18    9   20 1   
    19   11   12 1   
    20   11   16 1   
    21   11   20 1   
    22   11   51 1   
    23   12   13 1   
    24   12   52 1   
    25   12   53 1   
    26   13   14 1   
    27   13   15 1   
    28   13   54 1   
    29   14   55 1   
    30   14   56 1   
    31   14   57 1   
    32   15   58 1   
    33   15   59 1   
    34   15   60 1   
    35   16   17 1   
    36   16   18 2   
    37   17   21 1   
    38   18   19 1   
    39   19   21 2   
    40   19   22 1   
    41   20   61 1   
    42   21   62 1   
    43   22   23 2   
    44   22   42 1   
    45   24   25 ar  
    46   24   29 ar  
    47   24   82 1   
    48   25   26 ar  
    49   25   63 1   
    50   26   27 ar  
    51   26   64 1   
    52   27   28 ar  
    53   27   30 1   
    54   28   29 ar  
    55   28   65 1   
    56   29   66 1   
    57   30   31 1   
    58   30   67 1   
    59   30   68 1   
    60   31   32 1   
    61   32   33 2   
    62   32   43 1   
    63   34   35 1   
    64   34   39 1   
    65   34   43 1   
    66   34   69 1   
    67   35   36 1   
    68   35   70 1   
    69   35   71 1   
    70   36   37 1   
    71   36   38 1   
    72   36   72 1   
    73   37   73 1   
    74   37   74 1   
    75   37   75 1   
    76   38   76 1   
    77   38   77 1   
    78   38   78 1   
    79   39   40 2   
    80   39   41 1   
    81   41   42 1   
    82   41   79 1   
    83   42   80 1   
    84   43   81 1   
@<TRIPOS>SUBSTRUCTURE
     1 IN6         1 TEMP              0 ****  ****    0 ROOT
