@<TRIPOS>MOLECULE
IN6
   86    88     1     0     0
SMALL
bcc


@<TRIPOS>ATOM
      1 C1          0.0000    0.0000    0.0000 ca        1 IN6     -0.054000
      2 C2          1.3830    0.0000    0.0000 ca        1 IN6     -0.030000
      3 C3          2.0740    0.0000    1.1970 ca        1 IN6     -0.006000
      4 C4          1.3830    0.0020    2.3950 ca        1 IN6     -0.202300
      5 C5          0.0010   -0.0040    2.3950 ca        1 IN6     -0.006000
      6 C6         -0.6900    0.0010    1.1970 ca        1 IN6     -0.030000
      7 C7          2.1370    0.0020    3.6990 c3        1 IN6      0.328700
      8 O8          2.3800    1.3710    4.1170 os        1 IN6     -0.387900
      9 C9          3.0410    1.6180    5.2630 c         1 IN6      0.466100
     10 O10         3.4350    0.6950    5.9470 o         1 IN6     -0.474000
     11 C11         4.0300    3.1570    6.8720 c3        1 IN6     -0.041800
     12 C12         5.4120    3.6960    6.4990 c3        1 IN6     -0.044400
     13 C14         6.1680    2.6450    5.6840 c3        1 IN6     -0.061700
     14 C15         7.4910    3.2350    5.1910 c3        1 IN6      0.002900
     15 C16         6.4510    1.4250    6.5640 c3        1 IN6      0.002900
     16 C17         3.3010    4.1770    7.7070 cc        1 IN6      0.377700
     17 S18         2.8620    5.8010    7.2900 ss        1 IN6     -0.081300
     18 N19         2.8470    4.0580    8.9270 nd        1 IN6     -0.574000
     19 C20         2.2170    5.0820    9.5060 cd        1 IN6      0.122800
     20 N24         3.2660    2.8880    5.6510 ny        1 IN6      0.177200
     21 C42         2.0830    6.2370    8.7780 cc        1 IN6      0.148600
     22 C21         1.6900    4.9770   10.8770 c         1 IN6      0.318600
     23 O22         1.1220    5.9270   11.3830 o         1 IN6     -0.417100
     24 C1'         1.0770   -5.1900   18.7910 ca        1 IN6      0.049000
     25 C2'         1.0720   -4.0610   19.5900 ca        1 IN6     -0.074000
     26 C3'         0.5510   -2.8760   19.1080 ca        1 IN6     -0.060500
     27 C4'         0.0370   -2.8170   17.8260 ca        1 IN6     -0.109300
     28 C5'         0.0360   -3.9470   17.0290 ca        1 IN6     -0.060500
     29 C6'         0.5600   -5.1310   17.5100 ca        1 IN6     -0.074000
     30 C7'        -0.5300   -1.5230   17.3000 c3        1 IN6      0.311700
     31 O8'         0.5230   -0.7630   16.6510 os        1 IN6     -0.375900
     32 C9'         0.2460    0.4360   16.1030 c         1 IN6      0.459100
     33 OA'        -0.8830    0.8810   16.1510 o         1 IN6     -0.463000
     34 CB'         0.9400    2.4770   14.9680 c3        1 IN6     -0.145500
     35 CC'         1.6090    3.5300   15.8540 c3        1 IN6     -0.040400
     36 CE'         0.9800    3.4980   17.2480 c3        1 IN6     -0.057700
     37 CF'         1.7470    4.4420   18.1760 c3        1 IN6      0.004400
     38 CG'        -0.4800    3.9460   17.1600 c3        1 IN6      0.004400
     39 CH'         1.4800    2.5840   13.5650 c         1 IN6      0.393100
     40 OI'         2.0450    1.6380   13.0590 o         1 IN6     -0.436100
     41 NJ'         1.3330    3.7310   12.8720 ny        1 IN6     -0.033600
     42 NK'         1.8350    3.8300   11.5680 ny        1 IN6      0.044400
     43 NO'         1.2230    1.1420   15.5000 ny        1 IN6      0.176200
     44 H1         -0.5420   -0.0020   -0.9380 ha        1 IN6      0.143000
     45 H2          1.9240   -0.0010   -0.9380 ha        1 IN6      0.136500
     46 H3          3.1570    0.0020    1.1970 ha        1 IN6      0.111500
     47 H5         -0.5410   -0.0030    3.3330 ha        1 IN6      0.111500
     48 H6         -1.7740   -0.0010    1.1980 ha        1 IN6      0.136500
     49 H71         1.5510   -0.5080    4.4550 h1        1 IN6      0.034200
     50 H72         3.0830   -0.5100    3.5700 h1        1 IN6      0.034200
     51 H11         4.1410    2.2390    7.4370 hx        1 IN6      0.133700
     52 H121        5.9670    3.9210    7.4020 hc        1 IN6      0.062200
     53 H122        5.3010    4.5980    5.9090 hc        1 IN6      0.062200
     54 H14         5.5670    2.3450    4.8340 hc        1 IN6     -0.002300
     55 H151        7.9970    2.5110    4.5630 hc        1 IN6      0.025867
     56 H152        7.2940    4.1330    4.6180 hc        1 IN6      0.025867
     57 H153        8.1170    3.4770    6.0400 hc        1 IN6      0.025867
     58 H161        6.0030    0.5460    6.1170 hc        1 IN6      0.025867
     59 H162        6.0300    1.5840    7.5490 hc        1 IN6      0.025867
     60 H163        7.5220    1.2810    6.6480 hc        1 IN6      0.025867
     61 HN4         2.3730    3.3280    5.7580 hn        1 IN6      0.270800
     62 H42         1.9970    7.2380    9.1830 h4        1 IN6      0.218000
     63 H3'         0.5640   -1.9870   19.7270 ha        1 IN6      0.116000
     64 H5'        -0.4190   -3.9160   16.0460 ha        1 IN6      0.116000
     65 H6'         0.5730   -6.0130   16.8810 ha        1 IN6      0.140000
     66 H7'1       -0.9380   -0.9470   18.1210 h1        1 IN6      0.042700
     67 H7'2       -1.3140   -1.7380   16.5840 h1        1 IN6      0.042700
     68 H11'       -0.1310    2.6420   14.9570 hx        1 IN6      0.160700
     69 H12A        2.6680    3.3180   15.9300 hc        1 IN6      0.048700
     70 H12B        1.4680    4.5120   15.4170 hc        1 IN6      0.048700
     71 H14'        1.0250    2.4900   17.6420 hc        1 IN6      0.014700
     72 H15A        1.2430    4.4970   19.1330 hc        1 IN6      0.030700
     73 H15B        2.7540    4.0690   18.3190 hc        1 IN6      0.030700
     74 H15C        1.7880    5.4300   17.7320 hc        1 IN6      0.030700
     75 H16A       -0.9140    3.9600   18.1520 hc        1 IN6      0.030700
     76 H16B       -0.5280    4.9390   16.7310 hc        1 IN6      0.030700
     77 H16C       -1.0330    3.2550   16.5340 hc        1 IN6      0.030700
     78 HN9         1.7720    4.4530   13.4090 hn        1 IN6      0.334300
     79 HN0         2.8170    3.6430   11.6190 hn        1 IN6      0.322300
     80 HN2         1.9690    1.2390   16.1600 hn        1 IN6      0.283300
     81 H1'         1.4860   -6.1190   19.1680 ha        1 IN6      0.137000
     82 H242        3.7400    3.3480    4.8990 hn        1 IN6      0.270800
     83 HJ'2        0.3510    3.9170   12.8210 hn        1 IN6      0.334300
     84 HK'2        1.3940    3.1090   11.0320 hn        1 IN6      0.322300
     85 HO'2        1.5620    0.5880   14.7380 hn        1 IN6      0.283300
     86 H2'         1.4750   -4.1070   20.5940 ha        1 IN6      0.140000
@<TRIPOS>BOND
     1    1    2 ar  
     2    1    6 ar  
     3    1   44 1   
     4    2    3 ar  
     5    2   45 1   
     6    3    4 ar  
     7    3   46 1   
     8    4    5 ar  
     9    4    7 1   
    10    5    6 ar  
    11    5   47 1   
    12    6   48 1   
    13    7    8 1   
    14    7   49 1   
    15    7   50 1   
    16    8    9 1   
    17    9   10 2   
    18    9   20 1   
    19   11   12 1   
    20   11   16 1   
    21   11   20 1   
    22   11   51 1   
    23   12   13 1   
    24   12   52 1   
    25   12   53 1   
    26   13   14 1   
    27   13   15 1   
    28   13   54 1   
    29   14   55 1   
    30   14   56 1   
    31   14   57 1   
    32   15   58 1   
    33   15   59 1   
    34   15   60 1   
    35   16   17 1   
    36   16   18 2   
    37   17   21 1   
    38   18   19 1   
    39   19   21 2   
    40   19   22 1   
    41   20   61 1   
    42   20   82 1   
    43   21   62 1   
    44   22   23 2   
    45   22   42 1   
    46   24   25 ar  
    47   24   29 ar  
    48   24   81 1   
    49   25   26 ar  
    50   25   86 1   
    51   26   27 ar  
    52   26   63 1   
    53   27   28 ar  
    54   27   30 1   
    55   28   29 ar  
    56   28   64 1   
    57   29   65 1   
    58   30   31 1   
    59   30   66 1   
    60   30   67 1   
    61   31   32 1   
    62   32   33 2   
    63   32   43 1   
    64   34   35 1   
    65   34   39 1   
    66   34   43 1   
    67   34   68 1   
    68   35   36 1   
    69   35   69 1   
    70   35   70 1   
    71   36   37 1   
    72   36   38 1   
    73   36   71 1   
    74   37   72 1   
    75   37   73 1   
    76   37   74 1   
    77   38   75 1   
    78   38   76 1   
    79   38   77 1   
    80   39   40 2   
    81   39   41 1   
    82   41   42 1   
    83   41   78 1   
    84   41   83 1   
    85   42   79 1   
    86   42   84 1   
    87   43   80 1   
    88   43   85 1   
@<TRIPOS>SUBSTRUCTURE
     1 IN6         1 TEMP              0 ****  ****    0 ROOT
