@<TRIPOS>MOLECULE
IN7
   48    50     1     0     0
SMALL
bcc


@<TRIPOS>ATOM
      1 C1         -0.0930    0.2980    0.3310 ca        1 IN7      0.294600
      2 C2          1.2330    0.8210    0.4270 ca        1 IN7     -0.235000
      3 C3          1.9760    0.6720    1.5750 ca        1 IN7      0.069500
      4 C7         -1.1150    1.2580   -3.1890 c3        1 IN7     -0.081900
      5 C6         -0.6040   -0.3740    1.4900 ca        1 IN7     -0.235000
      6 O2          3.6940   -0.5410    3.7960 o         1 IN7     -0.619800
      7 C4          1.4800   -0.0100    2.7130 ca        1 IN7     -0.595500
      8 C5          0.1590   -0.5100    2.6220 ca        1 IN7      0.069500
      9 O3          0.8290    4.1190    2.8800 o         1 IN7     -0.780300
     10 S           2.3560   -0.2200    4.0190 sy        1 IN7      1.487200
     11 C11        -2.6170    1.2660   -2.9580 c3        1 IN7     -0.021400
     12 C13        -2.9690    0.0460   -2.1240 c3        1 IN7     -0.081900
     13 C15        -2.2400    0.0540   -0.7850 c3        1 IN7      0.199800
     14 N1         -0.8330    0.4070   -0.8270 nh        1 IN7     -0.636000
     15 C18        -0.3460    1.2910   -1.8730 c3        1 IN7      0.199800
     16 C10        -4.7940    1.3430   -6.6620 ca        1 IN7     -0.126000
     17 C12        -4.9350    2.3800   -5.7400 ca        1 IN7     -0.127000
     18 C14        -4.2280    2.3520   -4.5400 ca        1 IN7     -0.124000
     19 C16        -3.3700    1.2830   -4.2490 ca        1 IN7     -0.084300
     20 C17        -3.2330    0.2460   -5.1790 ca        1 IN7     -0.124000
     21 C19        -3.9410    0.2760   -6.3790 ca        1 IN7     -0.127000
     22 O1          1.6990   -0.9100    5.0430 o         1 IN7     -0.619800
     23 N2          2.5220    1.4710    4.7290 ny        1 IN7     -0.702900
     24 C8          1.4130    2.4120    4.4620 c3        1 IN7     -0.061200
     25 C9          1.7430    3.3530    3.2330 c         1 IN7      0.924600
     26 O4          2.8970    3.2130    2.7390 o         1 IN7     -0.780300
     27 H2          1.6780    1.3970   -0.4000 ha        1 IN7      0.154500
     28 H3          2.9800    1.1440    1.6270 ha        1 IN7      0.167500
     29 H71        -0.8100    2.1570   -3.7850 hc        1 IN7      0.061200
     30 H72        -0.8310    0.3470   -3.7770 hc        1 IN7      0.061200
     31 H6         -1.6280   -0.7780    1.5010 ha        1 IN7      0.154500
     32 H5         -0.2670   -1.0290    3.5020 ha        1 IN7      0.167500
     33 H11        -2.8820    2.1910   -2.3680 hc        1 IN7      0.063700
     34 H131       -2.7120   -0.8850   -2.6930 hc        1 IN7      0.061200
     35 H132       -4.0700    0.0240   -1.9150 hc        1 IN7      0.061200
     36 H151       -2.3260   -0.9880   -0.3580 h1        1 IN7      0.056200
     37 H152       -2.7740    0.7650   -0.0860 h1        1 IN7      0.056200
     38 H181       -0.3400    2.3510   -1.4800 h1        1 IN7      0.056200
     39 H182        0.7200    0.9970   -2.1080 h1        1 IN7      0.056200
     40 H10        -5.3530    1.3670   -7.6090 ha        1 IN7      0.134000
     41 H12        -5.6060    3.2240   -5.9600 ha        1 IN7      0.134000
     42 H14        -4.3440    3.1750   -3.8180 ha        1 IN7      0.132000
     43 H17        -2.5610   -0.5990   -4.9640 ha        1 IN7      0.132000
     44 H19        -3.8260   -0.5430   -7.1040 ha        1 IN7      0.134000
     45 HN2         2.6860    1.4170    5.7290 hn        1 IN7      0.455800
     46 H81         0.4780    1.8350    4.2420 hx        1 IN7      0.081700
     47 H82         1.2400    3.0690    5.3540 hx        1 IN7      0.081700
     48 H22         3.3570    1.9210    4.2950 hn        1 IN7      0.455800
@<TRIPOS>BOND
     1    1    2 ar  
     2    1    5 ar  
     3    1   14 1   
     4    2    3 ar  
     5    2   27 1   
     6    3    7 ar  
     7    3   28 1   
     8    4   11 1   
     9    4   15 1   
    10    4   29 1   
    11    4   30 1   
    12    5    8 ar  
    13    5   31 1   
    14    6   10 2   
    15    7    8 ar  
    16    7   10 1   
    17    8   32 1   
    18    9   25 1   
    19   10   22 2   
    20   10   23 1   
    21   11   12 1   
    22   11   19 1   
    23   11   33 1   
    24   12   13 1   
    25   12   34 1   
    26   12   35 1   
    27   13   14 1   
    28   13   36 1   
    29   13   37 1   
    30   14   15 1   
    31   15   38 1   
    32   15   39 1   
    33   16   17 ar  
    34   16   21 ar  
    35   16   40 1   
    36   17   18 ar  
    37   17   41 1   
    38   18   19 ar  
    39   18   42 1   
    40   19   20 ar  
    41   20   21 ar  
    42   20   43 1   
    43   21   44 1   
    44   23   24 1   
    45   23   45 1   
    46   23   48 1   
    47   24   25 1   
    48   24   46 1   
    49   24   47 1   
    50   25   26 1   
@<TRIPOS>SUBSTRUCTURE
     1 IN7         1 TEMP              0 ****  ****    0 ROOT
