@<TRIPOS>MOLECULE
IN7
   48    50     1     0     0
SMALL
bcc


@<TRIPOS>ATOM
      1 C1         -0.1000    0.2940    0.3330 ca        1 IN7      0.294600
      2 C2          1.2200    0.8280    0.4570 ca        1 IN7     -0.235000
      3 C3          1.9460    0.6710    1.6140 ca        1 IN7      0.069500
      4 C7         -1.0770    1.2910   -3.1890 c3        1 IN7     -0.081900
      5 C6         -0.6230   -0.3980    1.4760 ca        1 IN7     -0.235000
      6 O2          3.6420   -0.5550    3.8450 o         1 IN7     -0.619800
      7 C4          1.4400   -0.0300    2.7350 ca        1 IN7     -0.595500
      8 C5          0.1240   -0.5420    2.6170 ca        1 IN7      0.069500
      9 O3          0.7440    4.0900    2.9470 o         1 IN7     -0.780300
     10 S           2.2970   -0.2500    4.0520 sy        1 IN7      1.487200
     11 C11        -2.5830    1.2810   -2.9830 c3        1 IN7     -0.021400
     12 C13        -2.9350    0.0470   -2.1690 c3        1 IN7     -0.081900
     13 C15        -2.2270    0.0450   -0.8190 c3        1 IN7      0.199800
     14 N1         -0.8230    0.4120   -0.8350 nh        1 IN7     -0.636000
     15 C18        -0.3280    1.3130   -1.8620 c3        1 IN7      0.199800
     16 C10        -4.7020    1.3850   -6.7180 ca        1 IN7     -0.126000
     17 C12        -4.8680    2.4090   -5.7860 ca        1 IN7     -0.127000
     18 C14        -4.1790    2.3710   -4.5750 ca        1 IN7     -0.124000
     19 C16        -3.3150    1.3080   -4.2850 ca        1 IN7     -0.084300
     20 C17        -3.1530    0.2840   -5.2260 ca        1 IN7     -0.124000
     21 C19        -3.8430    0.3230   -6.4360 ca        1 IN7     -0.127000
     22 O1          1.6310   -0.9600    5.0560 o         1 IN7     -0.619800
     23 N2          2.4350    1.4330    4.7860 n4        1 IN7     -0.702900
     24 C8          1.3220    2.3670    4.5150 c3        1 IN7     -0.061200
     25 C9          1.6610    3.3280    3.3040 c         1 IN7      0.924600
     26 O4          2.8240    3.2050    2.8250 o         1 IN7     -0.780300
     27 H2          1.6710    1.4200   -0.3550 ha        1 IN7      0.154500
     28 H3          2.9440    1.1520    1.6880 ha        1 IN7      0.167500
     29 H71        -0.7710    2.2000   -3.7690 hc        1 IN7      0.061200
     30 H72        -0.7740    0.3900   -3.7840 hc        1 IN7      0.061200
     31 H6         -1.6420   -0.8120    1.4650 ha        1 IN7      0.154500
     32 H5         -0.3100   -1.0770    3.4840 ha        1 IN7      0.167500
     33 H11        -2.8660    2.1960   -2.3850 hc        1 IN7      0.063700
     34 H131       -2.6600   -0.8740   -2.7470 hc        1 IN7      0.061200
     35 H132       -4.0390    0.0120   -1.9780 hc        1 IN7      0.061200
     36 H151       -2.3090   -1.0040   -0.4070 h1        1 IN7      0.056200
     37 H152       -2.7780    0.7410   -0.1200 h1        1 IN7      0.056200
     38 H181       -0.3390    2.3680   -1.4540 h1        1 IN7      0.056200
     39 H182        0.7430    1.0330   -2.0830 h1        1 IN7      0.056200
     40 H10        -5.2460    1.4160   -7.6740 ha        1 IN7      0.134000
     41 H12        -5.5440    3.2490   -6.0050 ha        1 IN7      0.134000
     42 H14        -4.3140    3.1840   -3.8450 ha        1 IN7      0.132000
     43 H17        -2.4760   -0.5570   -5.0100 ha        1 IN7      0.132000
     44 H19        -3.7090   -0.4860   -7.1690 ha        1 IN7      0.134000
     45 HN2         3.2730    1.8970    4.3700 hn        1 IN7      0.455800
     46 H81         1.1290    3.0110    5.4130 hx        1 IN7      0.081700
     47 H82         0.3960    1.7830    4.2740 hx        1 IN7      0.081700
     48 H22         2.5850    1.3670    5.7880 hn        1 IN7      0.455800
@<TRIPOS>BOND
     1    1    2 ar  
     2    1    5 ar  
     3    1   14 1   
     4    2    3 ar  
     5    2   27 1   
     6    3    7 ar  
     7    3   28 1   
     8    4   11 1   
     9    4   15 1   
    10    4   29 1   
    11    4   30 1   
    12    5    8 ar  
    13    5   31 1   
    14    6   10 2   
    15    7    8 ar  
    16    7   10 1   
    17    8   32 1   
    18    9   25 1   
    19   10   22 2   
    20   10   23 1   
    21   11   12 1   
    22   11   19 1   
    23   11   33 1   
    24   12   13 1   
    25   12   34 1   
    26   12   35 1   
    27   13   14 1   
    28   13   36 1   
    29   13   37 1   
    30   14   15 1   
    31   15   38 1   
    32   15   39 1   
    33   16   17 ar  
    34   16   21 ar  
    35   16   40 1   
    36   17   18 ar  
    37   17   41 1   
    38   18   19 ar  
    39   18   42 1   
    40   19   20 ar  
    41   20   21 ar  
    42   20   43 1   
    43   21   44 1   
    44   23   24 1   
    45   23   45 1   
    46   23   48 1   
    47   24   25 1   
    48   24   46 1   
    49   24   47 1   
    50   25   26 1   
@<TRIPOS>SUBSTRUCTURE
     1 IN7         1 TEMP              0 ****  ****    0 ROOT
