@<TRIPOS>MOLECULE
IN7
   48    50     1     0     0
SMALL
bcc


@<TRIPOS>ATOM
      1 C1         -0.0920    0.2970    0.3290 ca        1 IN7      0.294600
      2 C2          1.2340    0.8220    0.4270 ca        1 IN7     -0.235000
      3 C3          1.9760    0.6720    1.5750 ca        1 IN7      0.069500
      4 C7         -1.1140    1.2640   -3.1880 c3        1 IN7     -0.081900
      5 C6         -0.6020   -0.3790    1.4870 ca        1 IN7     -0.235000
      6 O2          3.6960   -0.5420    3.7940 o         1 IN7     -0.619800
      7 C4          1.4820   -0.0140    2.7110 ca        1 IN7     -0.595500
      8 C5          0.1610   -0.5160    2.6190 ca        1 IN7      0.069500
      9 O3          0.8180    4.1120    2.8890 o         1 IN7     -0.780300
     10 S           2.3570   -0.2260    4.0170 sy        1 IN7      1.487200
     11 C11        -2.6160    1.2690   -2.9580 c3        1 IN7     -0.021400
     12 C13        -2.9660    0.0460   -2.1270 c3        1 IN7     -0.081900
     13 C15        -2.2380    0.0520   -0.7880 c3        1 IN7      0.199800
     14 N1         -0.8310    0.4080   -0.8290 nh        1 IN7     -0.636000
     15 C18        -0.3450    1.2950   -1.8730 c3        1 IN7      0.199800
     16 C10        -4.7920    1.3520   -6.6620 ca        1 IN7     -0.126000
     17 C12        -4.9350    2.3860   -5.7380 ca        1 IN7     -0.127000
     18 C14        -4.2280    2.3560   -4.5370 ca        1 IN7     -0.124000
     19 C16        -3.3690    1.2880   -4.2490 ca        1 IN7     -0.084300
     20 C17        -3.2300    0.2530   -5.1820 ca        1 IN7     -0.124000
     21 C19        -3.9380    0.2860   -6.3820 ca        1 IN7     -0.127000
     22 O1          1.7020   -0.9200    5.0390 o         1 IN7     -0.619800
     23 N2          2.5180    1.4640    4.7310 n4        1 IN7     -0.702900
     24 C8          1.4070    2.4030    4.4670 c3        1 IN7     -0.061200
     25 C9          1.7340    3.3480    3.2400 c         1 IN7      0.924600
     26 O4          2.8890    3.2120    2.7460 o         1 IN7     -0.780300
     27 H2          1.6770    1.4020   -0.3980 ha        1 IN7      0.154500
     28 H3          2.9790    1.1460    1.6290 ha        1 IN7      0.167500
     29 H71        -0.8280    0.3540   -3.7790 hc        1 IN7      0.061200
     30 H72        -0.8110    2.1650   -3.7830 hc        1 IN7      0.061200
     31 H6         -1.6240   -0.7850    1.4960 ha        1 IN7      0.154500
     32 H5         -0.2640   -1.0390    3.4970 ha        1 IN7      0.167500
     33 H11        -2.8830    2.1920   -2.3660 hc        1 IN7      0.063700
     34 H131       -4.0680    0.0220   -1.9180 hc        1 IN7      0.061200
     35 H132       -2.7070   -0.8830   -2.6990 hc        1 IN7      0.061200
     36 H151       -2.7730    0.7600   -0.0880 h1        1 IN7      0.056200
     37 H152       -2.3210   -0.9920   -0.3630 h1        1 IN7      0.056200
     38 H181       -0.3410    2.3530   -1.4770 h1        1 IN7      0.056200
     39 H182        0.7210    1.0030   -2.1070 h1        1 IN7      0.056200
     40 H10        -5.3510    1.3770   -7.6090 ha        1 IN7      0.134000
     41 H12        -5.6070    3.2300   -5.9560 ha        1 IN7      0.134000
     42 H14        -4.3460    3.1770   -3.8140 ha        1 IN7      0.132000
     43 H17        -2.5570   -0.5910   -4.9680 ha        1 IN7      0.132000
     44 H19        -3.8220   -0.5320   -7.1080 ha        1 IN7      0.134000
     45 HN2         2.6830    1.4080    5.7310 hn        1 IN7      0.455800
     46 H81         0.4740    1.8230    4.2460 hx        1 IN7      0.081700
     47 H82         1.2320    3.0580    5.3600 hx        1 IN7      0.081700
     48 H22         3.3530    1.9170    4.2980 hn        1 IN7      0.455800
@<TRIPOS>BOND
     1    1    2 ar  
     2    1    5 ar  
     3    1   14 1   
     4    2    3 ar  
     5    2   27 1   
     6    3    7 ar  
     7    3   28 1   
     8    4   11 1   
     9    4   15 1   
    10    4   29 1   
    11    4   30 1   
    12    5    8 ar  
    13    5   31 1   
    14    6   10 2   
    15    7    8 ar  
    16    7   10 1   
    17    8   32 1   
    18    9   25 1   
    19   10   22 2   
    20   10   23 1   
    21   11   12 1   
    22   11   19 1   
    23   11   33 1   
    24   12   13 1   
    25   12   34 1   
    26   12   35 1   
    27   13   14 1   
    28   13   36 1   
    29   13   37 1   
    30   14   15 1   
    31   15   38 1   
    32   15   39 1   
    33   16   17 ar  
    34   16   21 ar  
    35   16   40 1   
    36   17   18 ar  
    37   17   41 1   
    38   18   19 ar  
    39   18   42 1   
    40   19   20 ar  
    41   20   21 ar  
    42   20   43 1   
    43   21   44 1   
    44   23   24 1   
    45   23   45 1   
    46   23   48 1   
    47   24   25 1   
    48   24   46 1   
    49   24   47 1   
    50   25   26 1   
@<TRIPOS>SUBSTRUCTURE
     1 IN7         1 TEMP              0 ****  ****    0 ROOT
