@<TRIPOS>MOLECULE
IN7
   47    49     1     0     0
SMALL
bcc


@<TRIPOS>ATOM
      1 C1         -0.7280    0.0130   -0.0720 ca        1 IN7      0.176600
      2 C2         -1.2190   -1.1350    0.5950 ca        1 IN7     -0.199500
      3 C3         -1.4340   -1.1140    1.9660 ca        1 IN7      0.005500
      4 C7          0.2260   -1.2250   -3.5040 c3        1 IN7     -0.074900
      5 C6         -0.4860    1.1730    0.6990 ca        1 IN7     -0.199500
      6 O2         -2.3620   -1.0130    4.7020 o         1 IN7     -0.682300
      7 C4         -1.1820    0.0300    2.7290 ca        1 IN7     -0.370500
      8 C5         -0.7160    1.1690    2.0700 ca        1 IN7      0.005500
      9 O3          3.4870    0.6360    5.1440 o         1 IN7     -0.828800
     10 S          -1.4340    0.0310    4.4180 sy        1 IN7      1.501200
     11 C11         0.5610    0.1000   -4.1760 c3        1 IN7     -0.025400
     12 C13        -0.3690    1.1850   -3.6480 c3        1 IN7     -0.074900
     13 C15        -0.3050    1.2640   -2.1220 c3        1 IN7      0.184800
     14 N1         -0.5660   -0.0140   -1.4810 nh        1 IN7     -0.641000
     15 C18         0.2780   -1.0910   -1.9830 c3        1 IN7      0.184800
     16 C10         0.3560   -0.2050   -8.4590 ca        1 IN7     -0.137000
     17 C12         1.5580    0.1250   -7.8330 ca        1 IN7     -0.131500
     18 C14         1.6210    0.2240   -6.4440 ca        1 IN7     -0.126000
     19 C16         0.4810   -0.0080   -5.6650 ca        1 IN7     -0.069300
     20 C17        -0.7230   -0.3400   -6.3000 ca        1 IN7     -0.126000
     21 C19        -0.7830   -0.4370   -7.6890 ca        1 IN7     -0.131500
     22 O1         -1.8840    1.3330    4.7620 o         1 IN7     -0.682300
     23 N2         -0.0210   -0.3090    5.0270 n3        1 IN7     -0.913100
     24 C8          1.0960    0.5940    5.0920 c3        1 IN7      0.083800
     25 C9          2.4810   -0.1170    5.2200 c         1 IN7      0.915600
     26 O4          2.5060   -1.3670    5.3900 o         1 IN7     -0.828800
     27 H2         -1.4440   -2.0540    0.0340 ha        1 IN7      0.130500
     28 H3         -1.8240   -2.0170    2.4700 ha        1 IN7      0.151000
     29 H71        -0.7930   -1.5650   -3.8250 hc        1 IN7      0.049950
     30 H72         0.9640   -2.0090   -3.8140 hc        1 IN7      0.049950
     31 H6         -0.1010    2.0930    0.2350 ha        1 IN7      0.130500
     32 H5         -0.5230    2.0870    2.6540 ha        1 IN7      0.151000
     33 H11         1.6160    0.3780   -3.8870 hc        1 IN7      0.055700
     34 H131       -1.4190    0.9760   -3.9770 hc        1 IN7      0.049950
     35 H132       -0.0700    2.1810   -4.0640 hc        1 IN7      0.049950
     36 H151       -1.0900    1.9930   -1.7710 h1        1 IN7      0.042700
     37 H152        0.7070    1.6730   -1.8300 h1        1 IN7      0.042700
     38 H181        1.3530   -0.9340   -1.6740 h1        1 IN7      0.042700
     39 H182       -0.0700   -2.0600   -1.5270 h1        1 IN7      0.042700
     40 H10         0.3070   -0.2830   -9.5540 ha        1 IN7      0.126000
     41 H12         2.4590    0.3090   -8.4360 ha        1 IN7      0.127000
     42 H14         2.5730    0.4840   -5.9580 ha        1 IN7      0.134000
     43 H17        -1.6250   -0.5240   -5.6970 ha        1 IN7      0.134000
     44 H19        -1.7330   -0.6990   -8.1770 ha        1 IN7      0.127000
     45 HN2         0.2680   -1.2420    5.2600 hn        1 IN7      0.484800
     46 H81         0.9760    1.2750    5.9790 h1        1 IN7      0.029200
     47 H82         1.1230    1.2290    4.1620 h1        1 IN7      0.029200
@<TRIPOS>BOND
     1    1    2 ar  
     2    1    5 ar  
     3    1   14 1   
     4    2    3 ar  
     5    2   27 1   
     6    3    7 ar  
     7    3   28 1   
     8    4   11 1   
     9    4   15 1   
    10    4   29 1   
    11    4   30 1   
    12    5    8 ar  
    13    5   31 1   
    14    6   10 2   
    15    7    8 ar  
    16    7   10 1   
    17    8   32 1   
    18    9   25 1   
    19   10   22 2   
    20   10   23 1   
    21   11   12 1   
    22   11   19 1   
    23   11   33 1   
    24   12   13 1   
    25   12   34 1   
    26   12   35 1   
    27   13   14 1   
    28   13   36 1   
    29   13   37 1   
    30   14   15 1   
    31   15   38 1   
    32   15   39 1   
    33   16   17 ar  
    34   16   21 ar  
    35   16   40 1   
    36   17   18 ar  
    37   17   41 1   
    38   18   19 ar  
    39   18   42 1   
    40   19   20 ar  
    41   20   21 ar  
    42   20   43 1   
    43   21   44 1   
    44   23   24 1   
    45   23   45 1   
    46   24   25 1   
    47   24   46 1   
    48   24   47 1   
    49   25   26 1   
@<TRIPOS>SUBSTRUCTURE
     1 IN7         1 TEMP              0 ****  ****    0 ROOT
