@<TRIPOS>MOLECULE
IN8
   47    49     1     0     0
SMALL
bcc


@<TRIPOS>ATOM
      1 C1          0.2990    0.0110   -0.1910 cc        1 IN8      0.341300
      2 C2          2.2220    0.1840    1.2120 cc        1 IN8      0.395700
      3 C3         -2.0390    0.3460   -0.6970 c         1 IN8      0.660100
      4 C7         -6.4730   -1.0420   -2.0050 ca        1 IN8     -0.103500
      5 C8         -7.4080   -1.3530   -2.9920 ca        1 IN8     -0.116500
      6 C9         -7.4460   -0.6180   -4.1780 ca        1 IN8     -0.081000
      7 C10        -6.5440    0.4300   -4.3800 ca        1 IN8     -0.116500
      8 C11        -5.6040    0.7410   -3.4010 ca        1 IN8     -0.103500
      9 C12        -6.0020    1.6960    0.3180 c         1 IN8      0.630100
     10 C13        -7.8000    3.1050    1.0500 c3        1 IN8      0.210700
     11 C14        -6.3870    4.9100    4.6600 ca        1 IN8     -0.088000
     12 C15        -6.6180    5.6970    3.5310 ca        1 IN8     -0.129500
     13 C16        -7.0640    5.1090    2.3490 ca        1 IN8     -0.094500
     14 C19        -6.6010    3.5320    4.6070 ca        1 IN8     -0.129500
     15 S1          1.0790   -1.0410    0.9360 ss        1 IN8     -0.012800
     16 N1          0.9350    1.2260   -0.2890 nd        1 IN8     -0.282000
     17 N2          1.9680    1.3160    0.4670 nd        1 IN8     -0.331000
     18 N3         -0.8590   -0.3520   -0.8970 n         1 IN8     -0.477400
     19 S2          3.4940    0.0070    2.2660 sh        1 IN8     -0.204100
     20 O1         -2.2360    1.0480    0.3180 o         1 IN8     -0.610100
     21 C4         -3.1320    0.1860   -1.7420 c3        1 IN8     -0.190400
     22 C5         -4.5430    0.3050   -1.1550 c3        1 IN8      0.216800
     23 C6         -5.5650    0.0040   -2.2100 ca        1 IN8     -0.188300
     24 O2         -6.7070    2.8240    0.1140 os        1 IN8     -0.411900
     25 O3         -6.2900    0.7930    1.0910 o         1 IN8     -0.437000
     26 N4         -4.7910    1.6750   -0.5540 n4        1 IN8     -0.651800
     27 C17        -7.2800    3.7270    2.2930 ca        1 IN8     -0.181300
     28 C18        -7.0460    2.9390    3.4270 ca        1 IN8     -0.094500
     29 H7         -6.4510   -1.6240   -1.0690 ha        1 IN8      0.140000
     30 H8         -8.1170   -2.1810   -2.8320 ha        1 IN8      0.160000
     31 H9         -8.1850   -0.8650   -4.9570 ha        1 IN8      0.161000
     32 H10        -6.5740    1.0090   -5.3170 ha        1 IN8      0.160000
     33 H11        -4.8900    1.5590   -3.5770 ha        1 IN8      0.140000
     34 H131       -8.3570    2.1530    1.2480 h1        1 IN8      0.097700
     35 H132       -8.4140    3.8200    0.4340 h1        1 IN8      0.097700
     36 H16        -7.2540    5.7320    1.4610 ha        1 IN8      0.141500
     37 H19        -6.4230    2.9120    5.4990 ha        1 IN8      0.151000
     38 HN3        -0.6930   -0.7340   -1.8070 hn        1 IN8      0.331500
     39 HS2         4.1240    1.1700    2.1190 hs        1 IN8      0.230800
     40 H41        -3.0840   -0.8260   -2.2340 hc        1 IN8      0.110200
     41 H42        -2.9580    0.9550   -2.5430 hc        1 IN8      0.110200
     42 H5         -4.6400   -0.4250   -0.2890 hx        1 IN8      0.133700
     43 HN4        -4.9020    2.3700   -1.3010 hn        1 IN8      0.485800
     44 H18        -7.2160    1.8510    3.3840 ha        1 IN8      0.141500
     45 H14        -6.0400    5.3780    5.5950 ha        1 IN8      0.151000
     46 H421       -3.9750    1.9330    0.0410 hn        1 IN8      0.485800
     47 H15        -6.4540    6.7850    3.5740 ha        1 IN8      0.151000
@<TRIPOS>BOND
     1    1   15 1   
     2    1   16 2   
     3    1   18 1   
     4    2   15 1   
     5    2   17 2   
     6    2   19 1   
     7    3   18 1   
     8    3   20 2   
     9    3   21 1   
    10    4    5 ar  
    11    4   23 ar  
    12    4   29 1   
    13    5    6 ar  
    14    5   30 1   
    15    6    7 ar  
    16    6   31 1   
    17    7    8 ar  
    18    7   32 1   
    19    8   23 ar  
    20    8   33 1   
    21    9   24 1   
    22    9   25 2   
    23    9   26 1   
    24   10   24 1   
    25   10   27 1   
    26   10   34 1   
    27   10   35 1   
    28   11   12 ar  
    29   11   14 ar  
    30   11   45 1   
    31   12   13 ar  
    32   12   47 1   
    33   13   27 ar  
    34   13   36 1   
    35   14   28 ar  
    36   14   37 1   
    37   16   17 1   
    38   18   38 1   
    39   19   39 1   
    40   21   22 1   
    41   21   40 1   
    42   21   41 1   
    43   22   23 1   
    44   22   26 1   
    45   22   42 1   
    46   26   43 1   
    47   26   46 1   
    48   27   28 ar  
    49   28   44 1   
@<TRIPOS>SUBSTRUCTURE
     1 IN8         1 TEMP              0 ****  ****    0 ROOT
