@<TRIPOS>MOLECULE
IN8
   47    49     1     0     0
SMALL
bcc


@<TRIPOS>ATOM
      1 C1          0.0850   -0.0220   -0.0210 cc        1 IN8      0.343300
      2 C2          1.9650    0.2290    1.4280 cc        1 IN8      0.395700
      3 C3         -2.0060    0.7080   -0.9880 c         1 IN8      0.660100
      4 C7         -6.3480   -1.1090   -2.0080 ca        1 IN8     -0.104000
      5 C8         -7.3020   -1.5470   -2.9270 ca        1 IN8     -0.116000
      6 C9         -7.4610   -0.8820   -4.1430 ca        1 IN8     -0.081000
      7 C10        -6.6620    0.2240   -4.4450 ca        1 IN8     -0.116000
      8 C11        -5.7040    0.6620   -3.5340 ca        1 IN8     -0.104000
      9 C12        -5.9500    1.7490    0.2250 c         1 IN8      0.629100
     10 C13        -7.7540    3.0350    1.1440 c3        1 IN8      0.210700
     11 C14        -6.0770    4.9860    4.5590 ca        1 IN8     -0.088000
     12 C15        -6.5060    5.7400    3.4660 ca        1 IN8     -0.129500
     13 C16        -7.0390    5.1050    2.3460 ca        1 IN8     -0.095000
     14 C19        -6.1790    3.5940    4.5320 ca        1 IN8     -0.129500
     15 S1          1.6920    0.5840   -0.2090 ss        1 IN8     -0.012800
     16 N1         -0.1590   -0.4480    1.2620 nd        1 IN8     -0.282000
     17 N2          0.8540   -0.3110    2.0390 nd        1 IN8     -0.332000
     18 N3         -0.8490   -0.0470   -1.0690 ns        1 IN8     -0.478400
     19 S2          3.4200    0.5080    2.1790 sh        1 IN8     -0.204100
     20 O1         -2.1230    1.6680   -0.1950 o         1 IN8     -0.611100
     21 C4         -3.1160    0.4200   -1.9880 c3        1 IN8     -0.186400
     22 C5         -4.5010    0.4360   -1.3300 c3        1 IN8      0.213800
     23 C6         -5.5440   -0.0050   -2.3120 ca        1 IN8     -0.187300
     24 O2         -6.7560    2.8190    0.0910 os        1 IN8     -0.411900
     25 O3         -6.0840    0.8390    1.0310 o         1 IN8     -0.435000
     26 N4         -4.8450    1.8050   -0.7760 ny        1 IN8     -0.652800
     27 C17        -7.1440    3.7090    2.3160 ca        1 IN8     -0.181300
     28 C18        -6.7110    2.9550    3.4140 ca        1 IN8     -0.095000
     29 H7         -6.2310   -1.6370   -1.0470 ha        1 IN8      0.140500
     30 H8         -7.9300   -2.4210   -2.6880 ha        1 IN8      0.160500
     31 H9         -8.2150   -1.2300   -4.8680 ha        1 IN8      0.161000
     32 H10        -6.7870    0.7470   -5.4060 ha        1 IN8      0.160500
     33 H11        -5.0700    1.5250   -3.7890 ha        1 IN8      0.140500
     34 H131       -8.4840    3.6950    0.5970 h1        1 IN8      0.097700
     35 H132       -8.2150    2.0480    1.4090 h1        1 IN8      0.097700
     36 H16        -7.3850    5.7020    1.4880 ha        1 IN8      0.142000
     37 H19        -5.8440    2.9990    5.3960 ha        1 IN8      0.150500
     38 HN3        -0.8790   -0.9030   -1.5860 hn        1 IN8      0.333500
     39 HS2         3.1820    0.0430    3.4020 hs        1 IN8      0.229800
     40 H41        -3.0060   -0.5930   -2.4650 hc        1 IN8      0.108200
     41 H42        -3.0430    1.1830   -2.8100 hc        1 IN8      0.108200
     42 H5         -4.4870   -0.2620   -0.4320 hx        1 IN8      0.134700
     43 HN4        -4.0080    2.1990   -0.2950 hn        1 IN8      0.486300
     44 H18        -6.7930    1.8560    3.3910 ha        1 IN8      0.142000
     45 H14        -5.6610    5.4890    5.4460 ha        1 IN8      0.151000
     46 H421       -5.1180    2.4310   -1.5430 hn        1 IN8      0.486300
     47 H15        -6.4300    6.8380    3.4900 ha        1 IN8      0.150500
@<TRIPOS>BOND
     1    1   15 1   
     2    1   16 2   
     3    1   18 1   
     4    2   15 1   
     5    2   17 2   
     6    2   19 1   
     7    3   18 1   
     8    3   20 2   
     9    3   21 1   
    10    4    5 ar  
    11    4   23 ar  
    12    4   29 1   
    13    5    6 ar  
    14    5   30 1   
    15    6    7 ar  
    16    6   31 1   
    17    7    8 ar  
    18    7   32 1   
    19    8   23 ar  
    20    8   33 1   
    21    9   24 1   
    22    9   25 2   
    23    9   26 1   
    24   10   24 1   
    25   10   27 1   
    26   10   34 1   
    27   10   35 1   
    28   11   12 ar  
    29   11   14 ar  
    30   11   45 1   
    31   12   13 ar  
    32   12   47 1   
    33   13   27 ar  
    34   13   36 1   
    35   14   28 ar  
    36   14   37 1   
    37   16   17 1   
    38   18   38 1   
    39   19   39 1   
    40   21   22 1   
    41   21   40 1   
    42   21   41 1   
    43   22   23 1   
    44   22   26 1   
    45   22   42 1   
    46   26   43 1   
    47   26   46 1   
    48   27   28 ar  
    49   28   44 1   
@<TRIPOS>SUBSTRUCTURE
     1 IN8         1 TEMP              0 ****  ****    0 ROOT
