@<TRIPOS>MOLECULE
IN8
   46    48     1     0     0
SMALL
bcc


@<TRIPOS>ATOM
      1 C1         -0.0080   -0.1780    3.0370 cc        1 IN8      0.432300
      2 C2          0.9300    0.7060    5.0450 cc        1 IN8      0.337700
      3 C3         -2.0300   -0.0450    1.6990 c         1 IN8      0.661100
      4 C7         -3.9060    1.0720   -2.4740 ca        1 IN8     -0.114500
      5 C8         -4.8360    0.8800   -3.4970 ca        1 IN8     -0.126500
      6 C9         -5.1030   -0.4050   -3.9690 ca        1 IN8     -0.116000
      7 C10        -4.4410   -1.5010   -3.4160 ca        1 IN8     -0.126500
      8 C11        -3.5140   -1.3140   -2.3930 ca        1 IN8     -0.114500
      9 C12         0.0340    0.6810   -1.5500 c         1 IN8      0.723100
     10 C13         2.1880    1.0140   -2.4960 c3        1 IN8      0.196700
     11 C14         5.1950   -1.1580   -4.6410 ca        1 IN8     -0.121000
     12 C15         3.8590   -1.2550   -5.0310 ca        1 IN8     -0.132500
     13 C16         2.8740   -0.5600   -4.3300 ca        1 IN8     -0.108500
     14 C19         5.5450   -0.3690   -3.5450 ca        1 IN8     -0.132500
     15 S1         -0.5680    0.9130    4.2610 ss        1 IN8      0.005200
     16 N1          1.2710   -0.6290    3.2890 nd        1 IN8     -0.354000
     17 N2          1.7660   -0.1430    4.3780 nd        1 IN8     -0.318000
     18 N3         -0.7640   -0.5660    1.9370 n         1 IN8     -0.507400
     19 S2          1.2920    1.4840    6.4810 sh        1 IN8     -0.279100
     20 O1         -2.5420    0.7520    2.5100 o         1 IN8     -0.589100
     21 C4         -2.7670   -0.5080    0.4620 c3        1 IN8     -0.145400
     22 C5         -2.2430    0.1930   -0.8070 c3        1 IN8      0.136000
     23 C6         -3.2440   -0.0260   -1.9170 ca        1 IN8     -0.133300
     24 O2          1.0690    0.1290   -2.2710 os        1 IN8     -0.438900
     25 O3          0.0580    1.8930   -1.2830 o         1 IN8     -0.569000
     26 N4         -0.9050   -0.2680   -1.1480 n         1 IN8     -0.519900
     27 C17         3.2230    0.2320   -3.2320 ca        1 IN8     -0.099300
     28 C18         4.5620    0.3210   -2.8360 ca        1 IN8     -0.108500
     29 H7         -3.6950    2.0890   -2.1090 ha        1 IN8      0.136500
     30 H8         -5.3560    1.7470   -3.9310 ha        1 IN8      0.138500
     31 H9         -5.8350   -0.5540   -4.7760 ha        1 IN8      0.138000
     32 H10        -4.6500   -2.5150   -3.7880 ha        1 IN8      0.138500
     33 H11        -2.9990   -2.1830   -1.9560 ha        1 IN8      0.136500
     34 H131        1.8290    1.8860   -3.1060 h1        1 IN8      0.066200
     35 H132        2.5600    1.3820   -1.5040 h1        1 IN8      0.066200
     36 H15         3.5810   -1.8790   -5.8930 ha        1 IN8      0.134000
     37 H16         1.8180   -0.6370   -4.6280 ha        1 IN8      0.138000
     38 H19         6.5970   -0.2950   -3.2340 ha        1 IN8      0.134000
     39 HN3        -0.3270   -1.1450    1.2530 hn        1 IN8      0.352500
     40 HS2         2.5240    1.0500    6.7070 hs        1 IN8      0.216800
     41 H41        -2.7090   -1.6230    0.3600 hc        1 IN8      0.088200
     42 H42        -3.8470   -0.2250    0.5910 hc        1 IN8      0.088200
     43 H5         -2.1780    1.3050   -0.5830 h1        1 IN8      0.109700
     44 HN4        -0.8640   -1.1370   -1.6390 hn        1 IN8      0.310500
     45 H18         4.8410    0.9350   -1.9660 ha        1 IN8      0.138000
     46 H14         5.9720   -1.7030   -5.1970 ha        1 IN8      0.133000
@<TRIPOS>BOND
     1    1   15 1   
     2    1   16 2   
     3    1   18 1   
     4    2   15 1   
     5    2   17 2   
     6    2   19 1   
     7    3   18 1   
     8    3   20 2   
     9    3   21 1   
    10    4    5 ar  
    11    4   23 ar  
    12    4   29 1   
    13    5    6 ar  
    14    5   30 1   
    15    6    7 ar  
    16    6   31 1   
    17    7    8 ar  
    18    7   32 1   
    19    8   23 ar  
    20    8   33 1   
    21    9   24 1   
    22    9   25 2   
    23    9   26 1   
    24   10   24 1   
    25   10   27 1   
    26   10   34 1   
    27   10   35 1   
    28   11   12 ar  
    29   11   14 ar  
    30   11   46 1   
    31   12   13 ar  
    32   12   36 1   
    33   13   27 ar  
    34   13   37 1   
    35   14   28 ar  
    36   14   38 1   
    37   16   17 1   
    38   18   39 1   
    39   19   40 1   
    40   21   22 1   
    41   21   41 1   
    42   21   42 1   
    43   22   23 1   
    44   22   26 1   
    45   22   43 1   
    46   26   44 1   
    47   27   28 ar  
    48   28   45 1   
@<TRIPOS>SUBSTRUCTURE
     1 IN8         1 TEMP              0 ****  ****    0 ROOT
