@<TRIPOS>MOLECULE
IN8
   48    50     1     0     0
SMALL
bcc


@<TRIPOS>ATOM
      1 C1         -0.1200    0.0760   -0.5510 cc        1 IN8      0.169300
      2 C2          0.6310   -1.7080    0.8490 cc        1 IN8      0.381700
      3 C3         -1.7640    1.7540   -1.2380 c         1 IN8      0.565100
      4 C7         -5.4980   -1.2190   -1.5090 ca        1 IN8     -0.104500
      5 C8         -6.3950   -1.9830   -2.2570 ca        1 IN8     -0.107500
      6 C9         -6.8920   -1.4980   -3.4660 ca        1 IN8     -0.063000
      7 C10        -6.4910   -0.2430   -3.9360 ca        1 IN8     -0.107500
      8 C11        -5.5930    0.5220   -3.1990 ca        1 IN8     -0.104500
      9 C12        -5.5350    1.9160    0.5900 c         1 IN8      0.637100
     10 C13        -7.5590    2.5340    1.7360 c3        1 IN8      0.219700
     11 C14        -6.5610    5.9050    4.1610 ca        1 IN8     -0.077000
     12 C15        -7.3850    6.0670    3.0460 ca        1 IN8     -0.130000
     13 C16        -7.6940    4.9730    2.2400 ca        1 IN8     -0.091500
     14 C19        -6.0400    4.6460    4.4680 ca        1 IN8     -0.130000
     15 S1          1.3890   -0.3830    0.1220 ss        1 IN8      0.125200
     16 N1         -1.1400   -0.7970   -0.1910 nd        1 IN8     -0.249000
     17 N2         -0.7470   -1.7400    0.5490 nd        1 IN8     -0.314000
     18 N3         -0.3560    1.2180   -1.4030 n4        1 IN8     -0.577500
     19 S2          1.3850   -2.8170    1.7800 sh        1 IN8      0.004900
     20 O1         -1.8840    2.7190   -0.4950 o         1 IN8     -0.430100
     21 C4         -2.8600    1.0920   -2.0210 c3        1 IN8     -0.175400
     22 C5         -4.1200    0.8410   -1.1760 c3        1 IN8      0.215800
     23 C6         -5.0930    0.0350   -1.9820 ca        1 IN8     -0.207300
     24 O2         -6.7460    2.4690    0.5000 os        1 IN8     -0.400900
     25 O3         -5.0400    1.3050    1.5260 o         1 IN8     -0.433000
     26 N4         -4.7740    2.1230   -0.7010 n4        1 IN8     -0.665800
     27 C17        -7.1750    3.7080    2.5470 ca        1 IN8     -0.196300
     28 C18        -6.3440    3.5490    3.6650 ca        1 IN8     -0.091500
     29 H7         -5.1120   -1.6110   -0.5540 ha        1 IN8      0.138500
     30 H8         -6.7100   -2.9740   -1.8860 ha        1 IN8      0.172000
     31 H9         -7.6040   -2.1030   -4.0550 ha        1 IN8      0.176000
     32 H10        -6.8860    0.1390   -4.8920 ha        1 IN8      0.172000
     33 H11        -5.2780    1.5040   -3.5850 ha        1 IN8      0.138500
     34 H131       -7.4410    1.5640    2.2840 h1        1 IN8      0.105700
     35 H132       -8.5840    2.6330    1.2780 h1        1 IN8      0.105700
     36 H16        -8.3590    5.0990    1.3720 ha        1 IN8      0.141500
     37 H19        -5.4000    4.5170    5.3560 ha        1 IN8      0.157000
     38 HN3         0.3180    1.9590   -1.1490 hn        1 IN8      0.475800
     39 HS2         0.3860   -3.6460    2.0950 hs        1 IN8      0.239800
     40 H41        -3.0850    1.7440   -2.9140 hc        1 IN8      0.141200
     41 H42        -2.5510    0.0810   -2.4170 hc        1 IN8      0.141200
     42 H5         -3.8190    0.2680   -0.2390 hx        1 IN8      0.150700
     43 HN4        -4.0680    2.8480   -0.5200 hn        1 IN8      0.473800
     44 H18        -5.9440    2.5540    3.9160 ha        1 IN8      0.141500
     45 H14        -6.3290    6.7690    4.8050 ha        1 IN8      0.160000
     46 H32        -0.2090    0.9400   -2.3850 hn        1 IN8      0.475800
     47 H421       -5.4340    2.4610   -1.4170 hn        1 IN8      0.473800
     48 H15        -7.8040    7.0590    2.8100 ha        1 IN8      0.157000
@<TRIPOS>BOND
     1    1   15 1   
     2    1   16 2   
     3    1   18 1   
     4    2   15 1   
     5    2   17 2   
     6    2   19 1   
     7    3   18 1   
     8    3   20 2   
     9    3   21 1   
    10    4    5 ar  
    11    4   23 ar  
    12    4   29 1   
    13    5    6 ar  
    14    5   30 1   
    15    6    7 ar  
    16    6   31 1   
    17    7    8 ar  
    18    7   32 1   
    19    8   23 ar  
    20    8   33 1   
    21    9   24 1   
    22    9   25 2   
    23    9   26 1   
    24   10   24 1   
    25   10   27 1   
    26   10   34 1   
    27   10   35 1   
    28   11   12 ar  
    29   11   14 ar  
    30   11   45 1   
    31   12   13 ar  
    32   12   48 1   
    33   13   27 ar  
    34   13   36 1   
    35   14   28 ar  
    36   14   37 1   
    37   16   17 1   
    38   18   38 1   
    39   18   46 1   
    40   19   39 1   
    41   21   22 1   
    42   21   40 1   
    43   21   41 1   
    44   22   23 1   
    45   22   26 1   
    46   22   42 1   
    47   26   43 1   
    48   26   47 1   
    49   27   28 ar  
    50   28   44 1   
@<TRIPOS>SUBSTRUCTURE
     1 IN8         1 TEMP              0 ****  ****    0 ROOT
