@<TRIPOS>MOLECULE
IN8
   46    38     1     0     0
SMALL
bcc


@<TRIPOS>ATOM
      1 C1          3.8450   -4.1100   -0.3830 c1        1 IN8     -0.396500
      2 C2          5.0580   -6.1890    0.2240 c1        1 IN8     -0.396500
      3 C3          2.5490   -1.9660   -0.6010 c1        1 IN8      0.303000
      4 C7         -1.2650   -1.7780   -2.2680 c1        1 IN8     -0.120875
      5 C8         -2.2370   -1.9020   -3.2950 c1        1 IN8     -0.120875
      6 C9         -2.3470   -0.9290   -4.2600 c1        1 IN8     -0.120875
      7 C10        -1.5070    0.1770   -4.2300 c1        1 IN8     -0.120875
      8 C11        -0.5380    0.3020   -3.2060 c1        1 IN8     -0.125000
      9 C12        -0.6330    0.7900    0.7890 c1        1 IN8      0.386000
     10 C13        -1.8590    2.0500    2.3310 c3        1 IN8      0.039000
     11 C14        -2.5730    6.1100    3.6160 c1        1 IN8     -0.120875
     12 C15        -3.4070    5.4830    2.5380 c1        1 IN8     -0.120875
     13 C16        -3.1610    4.2110    2.1510 c1        1 IN8     -0.120875
     14 C19        -1.5820    5.4080    4.1960 c1        1 IN8     -0.120875
     15 S1          4.7180   -5.2960   -0.9350 ss        1 IN8      0.635000
     16 N1          3.6860   -4.3010    1.0060 n2        1 IN8     -0.074000
     17 N2          4.4520   -5.6210    1.4160 n2        1 IN8     -0.074000
     18 N3          3.2310   -2.9900   -1.2160 n1        1 IN8     -0.287000
     19 S2          5.7120   -7.7790    0.4080 s         1 IN8      0.222000
     20 O1          2.4350   -1.9530    0.5950 o         1 IN8     -0.345000
     21 C4          1.9320   -0.8590   -1.4390 c3        1 IN8     -0.182000
     22 C5          0.4620   -0.6480   -1.0160 c3        1 IN8      0.062000
     23 C6         -0.4250   -0.6740   -2.2370 c1        1 IN8     -0.143000
     24 O2         -1.0340    2.0470    1.1750 o         1 IN8     -0.279000
     25 O3         -1.0940   -0.2670    1.4160 o         1 IN8     -0.389000
     26 N4          0.3320    0.6250   -0.3530 n3        1 IN8     -0.329000
     27 C17        -2.1280    3.4830    2.7570 c1        1 IN8     -0.091000
     28 C18        -1.3280    4.0870    3.7930 c1        1 IN8     -0.117000
     29 H7         -1.1860   -2.4900   -1.5690 ha        1 IN8      0.139375
     30 H8         -2.8240   -2.6750   -3.3150 ha        1 IN8      0.139375
     31 H9         -3.0130   -1.0150   -4.9600 ha        1 IN8      0.139375
     32 H10        -1.5830    0.8610   -4.9100 ha        1 IN8      0.139375
     33 H11         0.0670    1.1010   -3.1850 ha        1 IN8      0.131000
     34 H131       -1.3780    1.5380    3.1070 h1        1 IN8      0.105000
     35 H132       -2.7380    1.5910    2.1170 h1        1 IN8      0.105000
     36 H14        -2.7620    7.0960    3.9200 ha        1 IN8      0.139375
     37 H15        -4.1910    6.0370    2.0780 ha        1 IN8      0.139375
     38 H16        -3.6710    3.8240    1.4910 ha        1 IN8      0.139375
     39 H19        -1.0500    5.8110    4.8860 ha        1 IN8      0.139375
     40 HN3         3.3190   -3.0030   -2.1930 hn        1 IN8      0.267000
     41 HS2         4.9530   -8.5540    0.0320 hs        1 IN8      0.045000
     42 H41         2.4690    0.0240   -1.2930 hc        1 IN8      0.133000
     43 H42         1.9650   -1.1040   -2.3730 hc        1 IN8      0.133000
     44 H5          0.1980   -1.3510   -0.4160 h1        1 IN8      0.145000
     45 HN4         0.7210    1.2380   -0.6180 hn        1 IN8      0.232000
     46 H18        -0.5870    3.5590    4.2270 ha        1 IN8      0.135000
@<TRIPOS>BOND
     1    1   15 1   
     2    1   16 1   
     3    2   15 1   
     4    2   17 1   
     5    3   20 1   
     6    3   21 1   
     7    4    5 1   
     8    4   29 1   
     9    5   30 1   
    10    6    7 1   
    11    6   31 1   
    12    7   32 1   
    13    8   23 1   
    14    8   33 1   
    15    9   25 1   
    16    9   26 1   
    17   10   24 1   
    18   10   27 1   
    19   10   34 1   
    20   10   35 1   
    21   11   14 1   
    22   11   36 1   
    23   12   13 1   
    24   12   37 1   
    25   13   38 1   
    26   14   39 1   
    27   16   17 1   
    28   18   40 1   
    29   19   41 1   
    30   21   22 1   
    31   21   42 1   
    32   21   43 1   
    33   22   23 1   
    34   22   26 1   
    35   22   44 1   
    36   26   45 1   
    37   27   28 1   
    38   28   46 1   
@<TRIPOS>SUBSTRUCTURE
     1 IN8         1 TEMP              0 ****  ****    0 ROOT
