@<TRIPOS>MOLECULE
IN9
   39    39     1     0     0
SMALL
bcc


@<TRIPOS>ATOM
      1 C1         71.8390  162.3700   20.7900 cc        1 IN9      0.241300
      2 C2         74.0970  162.5110   21.5520 cc        1 IN9      0.371700
      3 C3         69.5010  162.6240   21.1350 c         1 IN9      0.627100
      4 C7         66.6380  160.1440   20.2870 c3        1 IN9     -0.054100
      5 C8         66.8040  159.2600   17.9410 ca        1 IN9      0.114400
      6 C9         66.4990  160.3180   18.8180 ca        1 IN9     -0.183300
      7 C10        65.9690  161.5110   18.2850 ca        1 IN9      0.114400
      8 C11        65.7220  161.6530   16.8990 ca        1 IN9      0.096400
      9 C12        66.0220  160.5770   16.0220 ca        1 IN9      0.132900
     10 C13        66.5700  159.3800   16.5440 ca        1 IN9      0.096400
     11 C14      -397.6950 -883.2210 -119.2400 c2        1 IN9      0.432100
     12 S1         73.0830  163.5420   20.6650 ss        1 IN9      0.032200
     13 N1         72.2430  161.2580   21.5050 nd        1 IN9     -0.277000
     14 N2         73.4460  161.3300   21.9130 nd        1 IN9     -0.284000
     15 N3         70.5560  162.5250   20.2260 ns        1 IN9     -0.406400
     16 S2         75.6820  162.7200   22.0050 sh        1 IN9     -0.054100
     17 O1         69.4890  163.1700   22.2360 o         1 IN9     -0.438100
     18 N4         68.1180  162.1260   20.6860 ny        1 IN9     -0.671800
     19 C5         67.9830  160.6410   20.8350 c3        1 IN9     -0.013500
     20 C6         68.1420  160.1790   22.2970 c         1 IN9      0.552900
     21 O2         67.8340  159.0360   22.5990 o         1 IN9     -0.415100
     22 N5       -398.0740 -884.4050 -119.5930 nv        1 IN9     -0.290100
     23 F10        65.6890  162.5480   19.1140 f         1 IN9     -0.112400
     24 F11        65.2110  162.8010   16.4150 f         1 IN9     -0.075400
     25 F12        65.7900  160.6990   14.7040 f         1 IN9     -0.067900
     26 F13        66.8660  158.3560   15.7230 f         1 IN9     -0.075400
     27 H71        66.5730  159.0450   20.5490 hc        1 IN9      0.120200
     28 H72        65.7870  160.6570   20.8140 hc        1 IN9      0.120200
     29 H141     -398.9400 -884.5730 -120.0850 hn        1 IN9      0.342700
     30 H142     -398.3190 -882.3250 -119.4690 h4        1 IN9      0.085800
     31 H143     -396.7340 -883.0620 -118.6970 h4        1 IN9      0.085800
     32 HN3        70.4100  161.9520   19.4120 hn        1 IN9      0.329500
     33 HS2        75.8590  163.9410   21.5240 hs        1 IN9      0.169800
     34 HN4        67.4140  162.5910   21.2800 hn        1 IN9      0.468800
     35 H5         68.8210  160.1610   20.2410 hx        1 IN9      0.126700
     36 HN5        68.5650  160.9200   23.0080 h4        1 IN9      0.058200
     37 H42        67.9220  162.3830   19.7120 hn        1 IN9      0.468800
     38 H52      -397.5260 -885.2310 -119.3970 hn        1 IN9      0.342700
     39 F8         67.3230  158.1100   18.4190 f         1 IN9     -0.112400
@<TRIPOS>BOND
     1    1   12 1   
     2    1   13 2   
     3    1   15 1   
     4    2   12 1   
     5    2   14 2   
     6    2   16 1   
     7    3   15 1   
     8    3   17 2   
     9    3   18 1   
    10    4    6 1   
    11    4   19 1   
    12    4   27 1   
    13    4   28 1   
    14    5    6 ar  
    15    5   10 ar  
    16    5   39 1   
    17    6    7 ar  
    18    7    8 ar  
    19    7   23 1   
    20    8    9 ar  
    21    8   24 1   
    22    9   10 ar  
    23    9   25 1   
    24   10   26 1   
    25   11   22 2   
    26   11   30 1   
    27   11   31 1   
    28   13   14 1   
    29   15   32 1   
    30   16   33 1   
    31   18   19 1   
    32   18   34 1   
    33   18   37 1   
    34   19   20 1   
    35   19   35 1   
    36   20   21 2   
    37   20   36 1   
    38   22   29 1   
    39   22   38 1   
@<TRIPOS>SUBSTRUCTURE
     1 IN9         1 TEMP              0 ****  ****    0 ROOT
