@<TRIPOS>MOLECULE
IN9
   37    38     1     0     0
SMALL
bcc


@<TRIPOS>ATOM
      1 C1         -0.0040   -0.4840   -3.1260 cc        1 IN9      0.391300
      2 C2         -0.2800    0.4960   -5.2840 cc        1 IN9      0.368700
      3 C3          0.8220   -0.1990   -0.8680 c         1 IN9      0.759100
      4 C7          1.4280   -0.5850    2.7900 c3        1 IN9     -0.047100
      5 C8         -0.9760   -1.3240    2.8020 ca        1 IN9      0.126900
      6 C9         -0.0080   -0.3420    3.0890 ca        1 IN9     -0.115300
      7 C10        -0.4200    0.8640    3.6880 ca        1 IN9      0.126900
      8 C11        -1.7850    1.0930    4.0040 ca        1 IN9      0.075400
      9 C12        -2.7500    0.0990    3.7140 ca        1 IN9      0.106900
     10 C13        -2.3450   -1.1150    3.1100 ca        1 IN9      0.075400
     11 C14         5.3430    0.2620   -0.1100 c3        1 IN9      0.075300
     12 S1         -0.7610    0.9500   -3.7240 ss        1 IN9      0.005200
     13 N1          0.5740   -1.2170   -4.1380 nd        1 IN9     -0.320000
     14 N2          0.4150   -0.6890   -5.3000 nd        1 IN9     -0.327000
     15 N3         -0.0620   -0.8610   -1.7760 n         1 IN9     -0.482400
     16 S2         -0.6260    1.4150   -6.6340 sh        1 IN9     -0.255100
     17 O1          1.2620    0.9510   -1.1130 o         1 IN9     -0.633100
     18 N4          1.1190   -0.8250    0.3400 n         1 IN9     -0.574900
     19 C5          1.8190   -0.1130    1.3790 c3        1 IN9      0.051700
     20 C6          3.3600   -0.2730    1.2410 c         1 IN9      0.639100
     21 O2          4.0120   -0.8940    2.1040 o         1 IN9     -0.615100
     22 N5          3.9370    0.3100    0.1440 n         1 IN9     -0.559900
     23 F10         0.4820    1.8270    3.9770 f         1 IN9     -0.111900
     24 F11        -2.1620    2.2540    4.5780 f         1 IN9     -0.098400
     25 F12        -4.0480    0.3080    4.0100 f         1 IN9     -0.094900
     26 F13        -3.2560   -2.0690    2.8290 f         1 IN9     -0.098400
     27 H71         1.6710   -1.6760    2.9090 hc        1 IN9      0.098200
     28 H72         2.0750   -0.0240    3.5190 hc        1 IN9      0.098200
     29 H141        5.5320   -0.1990   -1.1170 h1        1 IN9      0.047033
     30 H142        5.7710    1.3010   -0.1050 h1        1 IN9      0.047033
     31 H143        5.8610   -0.3500    0.6770 h1        1 IN9      0.047033
     32 HN3        -0.1640   -1.8510   -1.6460 hn        1 IN9      0.314500
     33 HS2         0.0140    0.7380   -7.5810 hs        1 IN9      0.222800
     34 HN4         0.8070   -1.7460    0.5410 hn        1 IN9      0.331500
     35 H5          1.5780    0.9920    1.2880 h1        1 IN9      0.097700
     36 HN5         3.3650    0.8100   -0.5010 hn        1 IN9      0.339500
     37 F8         -0.6120   -2.4910    2.2230 f         1 IN9     -0.111900
@<TRIPOS>BOND
     1    1   12 1   
     2    1   13 2   
     3    1   15 1   
     4    2   12 1   
     5    2   14 2   
     6    2   16 1   
     7    3   15 1   
     8    3   17 2   
     9    3   18 1   
    10    4    6 1   
    11    4   19 1   
    12    4   27 1   
    13    4   28 1   
    14    5    6 ar  
    15    5   10 ar  
    16    5   37 1   
    17    6    7 ar  
    18    7    8 ar  
    19    7   23 1   
    20    8    9 ar  
    21    8   24 1   
    22    9   10 ar  
    23    9   25 1   
    24   10   26 1   
    25   11   22 1   
    26   11   29 1   
    27   11   30 1   
    28   11   31 1   
    29   13   14 1   
    30   15   32 1   
    31   16   33 1   
    32   18   19 1   
    33   18   34 1   
    34   19   20 1   
    35   19   35 1   
    36   20   21 2   
    37   20   22 1   
    38   22   36 1   
@<TRIPOS>SUBSTRUCTURE
     1 IN9         1 TEMP              0 ****  ****    0 ROOT
