@<TRIPOS>MOLECULE
IN9
   40    37     1     0     0
SMALL
bcc


@<TRIPOS>ATOM
      1 C1        744.4490  124.6140  511.4890 ce        1 IN9      0.639200
      2 C2        743.0530  126.0500  513.9670 c1        1 IN9      0.113300
      3 C3        744.2150  126.9460  510.8510 c2        1 IN9      0.637100
      4 C7       -234.9400  370.1230 -123.9340 c3        1 IN9     -0.126400
      5 C8       -236.8220  370.1590 -125.6020 ca        1 IN9      0.125900
      6 C9       -236.3700  370.3320 -124.2760 ca        1 IN9     -0.206300
      7 C10      -237.3090  370.6080 -123.2650 ca        1 IN9      0.125900
      8 C11      -238.6960  370.7000 -123.5640 ca        1 IN9      0.097900
      9 C12      -239.1420  370.5110 -124.8960 ca        1 IN9      0.146900
     10 C13      -238.1970  370.2420 -125.9230 ca        1 IN9      0.097900
     11 C14      -512.2250-1507.8010 -459.4060 c2        1 IN9      0.432100
     12 S1        745.3110  123.1420  511.4030 sh        1 IN9     -0.053000
     13 N1        743.2070  124.3980  512.2520 nf        1 IN9     -0.191700
     14 N2        742.7290  124.9650  513.1920 nf        1 IN9     -0.138400
     15 N3        744.8120  125.6790  510.8430 ne        1 IN9     -0.509300
     16 S2        743.0990  127.0820  514.8450 s         1 IN9      0.823100
     17 O1        743.6050  127.4000  511.8350 o         1 IN9     -0.672300
     18 N4       -234.2840  372.1100 -125.2640 nh        1 IN9     -0.284100
     19 C5       -234.0090  371.2160 -124.3510 ce        1 IN9      0.308300
     20 C6       -232.6480  371.2050 -123.6410 c         1 IN9      0.447600
     21 O2       -231.9260  372.1870 -123.6870 o         1 IN9     -0.392100
     22 N5       -512.4040-1507.9120 -460.6810 nh        1 IN9     -0.290100
     23 F10      -236.9020  370.7850 -121.9900 f         1 IN9     -0.106400
     24 F11      -239.5780  370.9630 -122.5840 f         1 IN9     -0.069400
     25 F12      -240.4500  370.5880 -125.1890 f         1 IN9     -0.060900
     26 F13      -238.6080  370.0700 -127.1930 f         1 IN9     -0.069400
     27 H71      -234.5690  369.1710 -124.4280 hc        1 IN9      0.143200
     28 H72      -234.8290  369.9780 -122.8170 hc        1 IN9      0.143200
     29 H141     -513.1420-1507.4260 -461.1700 hn        1 IN9      0.342700
     30 H142     -512.8890-1507.1530 -458.7860 h4        1 IN9      0.085800
     31 H143     -511.4010-1508.3480 -458.8900 h4        1 IN9      0.085800
     32 HN3      -137.0400  -50.8870 -160.2470 ha        1 IN9      0.000000
     33 HS2       746.3430  123.5190  510.6440 hs        1 IN9      0.244800
     34 HN4       744.4080  127.5210  509.9140 h5        1 IN9      0.108200
     35 H5       -233.6160  372.8290 -125.5060 hn        1 IN9      0.344200
     36 HN5      -232.4290  370.2540 -123.1120 h4        1 IN9      0.097200
     37 H32      -136.3710  -50.9510 -160.1660 ha        1 IN9      0.000000
     38 H42      -235.1640  372.1170 -125.7560 hn        1 IN9      0.344200
     39 H52      -511.8150-1508.4920 -461.2630 hn        1 IN9      0.342700
     40 F8       -235.9240  369.9120 -126.5850 f         1 IN9     -0.106400
@<TRIPOS>BOND
     1    1   12 1   
     2    1   13 2   
     3    1   15 1   
     4    2   14 2   
     5    2   16 2   
     6    3   15 2   
     7    3   17 1   
     8    3   34 1   
     9    4    6 1   
    10    4   19 1   
    11    4   27 1   
    12    4   28 1   
    13    5    6 ar  
    14    5   10 ar  
    15    5   40 1   
    16    6    7 ar  
    17    7    8 ar  
    18    7   23 1   
    19    8    9 ar  
    20    8   24 1   
    21    9   10 ar  
    22    9   25 1   
    23   10   26 1   
    24   11   22 2   
    25   11   30 1   
    26   11   31 1   
    27   12   33 1   
    28   13   14 1   
    29   18   19 2   
    30   18   35 1   
    31   18   38 1   
    32   19   20 1   
    33   20   21 2   
    34   20   36 1   
    35   22   29 1   
    36   22   39 1   
    37   32   37 1   
@<TRIPOS>SUBSTRUCTURE
     1 IN9         1 TEMP              0 ****  ****    0 ROOT
