@<TRIPOS>MOLECULE
IN9
   39    37     1     0     0
SMALL
bcc


@<TRIPOS>ATOM
      1 C1          0.6210    0.6340    0.3860 c2        1 IN9     -0.257000
      2 C2          0.6800    0.7980    3.3790 c1        1 IN9     -0.267000
      3 C3         -0.8910    0.0570   -1.4370 c2        1 IN9      0.340000
      4 C7         -5.1440    1.1360   -2.4680 c3        1 IN9     -0.156000
      5 C8         -3.7820    2.9190   -3.6240 ca        1 IN9      0.081000
      6 C9         -4.6630    2.5380   -2.5940 ca        1 IN9     -0.155000
      7 C10        -5.1480    3.5230   -1.7120 ca        1 IN9      0.081000
      8 C11        -4.7700    4.8860   -1.8620 ca        1 IN9      0.063000
      9 C12        -3.8920    5.2620   -2.9090 ca        1 IN9      0.108000
     10 C13        -3.3920    4.2690   -3.7930 ca        1 IN9      0.063000
     11 C14        -6.0010   -6.1680   -2.2400 c2        1 IN9      0.113000
     12 S1          2.3030    0.5360    0.7350 sh        1 IN9      0.153000
     13 N1         -0.3710    0.8290    1.2530 n2        1 IN9      0.048000
     14 N2         -0.2950    0.8640    2.5280 n2        1 IN9     -0.155000
     15 N3          0.3050    0.6000   -1.0140 n         1 IN9     -0.242000
     16 S2          1.5200    0.7810    4.5140 s         1 IN9      0.615000
     17 O1         -1.5240   -0.8730   -0.9140 o         1 IN9     -0.300000
     18 N4         -1.5020    0.5260   -2.7340 n4        1 IN9     -0.230000
     19 C5         -4.1470    0.1260   -2.2860 c1        1 IN9     -0.069000
     20 C6         -4.3540   -1.1640   -1.6840 c2        1 IN9      0.187000
     21 O2         -4.7350   -2.1970   -2.2520 o         1 IN9     -0.346000
     22 N5         -5.7120   -4.9560   -2.5820 n3        1 IN9     -0.136000
     23 F10        -5.9870    3.1860   -0.7100 f         1 IN9     -0.080500
     24 F11        -5.2470    5.8120   -1.0120 f         1 IN9     -0.036000
     25 F12        -3.5310    6.5450   -3.0640 f         1 IN9     -0.024000
     26 F13        -2.5470    4.6070   -4.7860 f         1 IN9     -0.036000
     27 H71        -5.6390    0.8280   -3.4620 hc        1 IN9      0.199000
     28 H72        -5.9800    1.0850   -1.7030 hc        1 IN9      0.199000
     29 H141       -5.2020   -4.3190   -1.9810 hn        1 IN9      0.294000
     30 H142       -6.5650   -6.8440   -2.9260 h4        1 IN9      0.215500
     31 H143       -5.6960   -6.5760   -1.2480 h4        1 IN9      0.215500
     32 HN3         0.7150    1.3580   -1.5300 hn        1 IN9      0.254000
     33 HS2         2.5910   -0.6360    0.1770 hs        1 IN9      0.055000
     34 HN4        -1.2940    1.4960   -2.9470 hn        1 IN9      0.269000
     35 H5         -2.6430    0.3940   -2.6270 hn        1 IN9      0.269000
     36 HN5        -4.0030   -1.1700   -0.6130 h4        1 IN9      0.187000
     37 H42        -1.1750   -0.0570   -3.5010 hn        1 IN9      0.269000
     38 H52        -5.9780   -4.5660   -3.4730 hn        1 IN9      0.294000
     39 F8         -3.2940    1.9850   -4.4780 f         1 IN9     -0.080500
@<TRIPOS>BOND
     1    1   12 1   
     2    1   13 1   
     3    1   15 1   
     4    2   14 1   
     5    2   16 1   
     6    3   15 1   
     7    3   17 1   
     8    3   18 1   
     9    4    6 1   
    10    4   19 1   
    11    4   27 1   
    12    4   28 1   
    13    5    6 1   
    14    5   10 1   
    15    5   39 1   
    16    6    7 1   
    17    7    8 1   
    18    7   23 1   
    19    8    9 1   
    20    8   24 1   
    21    9   10 1   
    22    9   25 1   
    23   10   26 1   
    24   11   22 1   
    25   11   30 1   
    26   11   31 1   
    27   12   33 1   
    28   13   14 1   
    29   15   32 1   
    30   18   34 1   
    31   18   35 1   
    32   18   37 1   
    33   19   20 1   
    34   20   21 1   
    35   20   36 1   
    36   22   29 1   
    37   22   38 1   
@<TRIPOS>SUBSTRUCTURE
     1 IN9         1 TEMP              0 ****  ****    0 ROOT
