@<TRIPOS>MOLECULE
INA
   82    83     1     0     0
SMALL
bcc


@<TRIPOS>ATOM
      1 C1          2.5510    0.9900    9.7740 ca        1 INA     -0.121500
      2 C2          3.3990    0.9930    8.6660 ca        1 INA     -0.133500
      3 C3          2.9060    1.3370    7.4080 ca        1 INA     -0.108000
      4 C4          1.5610    1.6860    7.2540 ca        1 INA     -0.112300
      5 C5          0.7120    1.6800    8.3670 ca        1 INA     -0.108000
      6 C6          1.2070    1.3310    9.6220 ca        1 INA     -0.133500
      7 C7          1.0420    2.0980    5.9170 c3        1 INA      0.194200
      8 O8         -0.1620    1.3850    5.5870 os        1 INA     -0.434400
      9 C9         -0.0130    0.2210    4.8650 c         1 INA      0.733600
     10 O10         1.0820   -0.0550    4.3470 o         1 INA     -0.583000
     11 C11        -1.3030   -1.5860    3.8560 c3        1 INA      0.038700
     12 C12        -1.7220   -2.9390    4.4570 c3        1 INA     -0.081400
     13 C13        -0.7270   -3.4830    5.4710 c3        1 INA     -0.065700
     14 C14        -1.2250   -4.8180    5.9890 c3        1 INA     -0.096350
     15 C15         0.6600   -3.6280    4.8830 c3        1 INA     -0.096350
     16 C16        -2.3820   -1.2260    2.8040 c         1 INA      0.592600
     17 O17        -3.3740   -0.5300    3.0750 o         1 INA     -0.574100
     18 N18        -2.1500   -1.7060    1.5000 n         1 INA     -0.418500
     19 N19        -3.0890   -1.6770    0.5150 n         1 INA     -0.335500
     20 N20        -1.1700   -0.5430    4.8430 n         1 INA     -0.511400
     21 C21        -2.9900   -0.6730   -0.5220 c         1 INA      0.665100
     22 O22        -4.0180   -0.4380   -1.1900 o         1 INA     -0.593100
     23 C23         5.7920   -1.3360   -8.6280 ca        1 INA     -0.121500
     24 C24         4.4340   -1.5960   -8.8070 ca        1 INA     -0.133500
     25 C25         3.4800   -0.8140   -8.1560 ca        1 INA     -0.108000
     26 C26         3.8830    0.2300   -7.3180 ca        1 INA     -0.112300
     27 C27         5.2480    0.4840   -7.1330 ca        1 INA     -0.108000
     28 C28         6.1970   -0.2950   -7.7920 ca        1 INA     -0.133500
     29 C29         2.8880    1.1080   -6.6400 c3        1 INA      0.194200
     30 O30         1.7520    0.2870   -6.2920 os        1 INA     -0.434400
     31 C31         0.7340    0.9590   -5.6490 c         1 INA      0.733600
     32 O32         0.8800    2.1620   -5.3760 o         1 INA     -0.583000
     33 C33        -1.3830    0.5920   -4.4960 c3        1 INA      0.038700
     34 C34        -2.8210    0.3040   -4.9650 c3        1 INA     -0.081400
     35 C35        -3.2620    1.2100   -6.1040 c3        1 INA     -0.065700
     36 C36        -4.4930    0.6240   -6.7690 c3        1 INA     -0.096350
     37 C37        -3.5560    2.6140   -5.6150 c3        1 INA     -0.096350
     38 C38        -1.2220   -0.1380   -3.1400 c         1 INA      0.592600
     39 O39        -0.7480   -1.2830   -3.0550 o         1 INA     -0.574100
     40 N40        -1.5650    0.6120   -1.9840 n         1 INA     -0.418500
     41 N41        -1.7550    0.0330   -0.7680 n         1 INA     -0.335500
     42 N42        -0.3900    0.1680   -5.4560 n         1 INA     -0.511400
     43 H1          2.9420    0.7180   10.7650 ha        1 INA      0.132000
     44 H2          4.4580    0.7210    8.7830 ha        1 INA      0.133250
     45 H3          3.5750    1.3270    6.5330 ha        1 INA      0.139250
     46 H5         -0.3480    1.9460    8.2390 ha        1 INA      0.139250
     47 H6          0.5360    1.3260   10.4940 ha        1 INA      0.133250
     48 H71         1.8120    1.9610    5.1130 h1        1 INA      0.072450
     49 H72         0.6900    3.1670    5.9430 h1        1 INA      0.072450
     50 H11        -0.2980   -1.7160    3.3440 h1        1 INA      0.113700
     51 H121       -1.8220   -3.6680    3.6100 hc        1 INA      0.057200
     52 H122       -2.7270   -2.8390    4.9460 hc        1 INA      0.057200
     53 H13        -0.6710   -2.7670    6.3400 hc        1 INA      0.064700
     54 H141       -0.5360   -5.2030    6.7790 hc        1 INA      0.038283
     55 H142       -2.2460   -4.7130    6.4290 hc        1 INA      0.038283
     56 H143       -1.2690   -5.5690    5.1640 hc        1 INA      0.038283
     57 H151        0.6290   -4.2100    3.9300 hc        1 INA      0.038283
     58 H152        1.1100   -2.6250    4.6800 hc        1 INA      0.038283
     59 H153        1.3250   -4.1680    5.6010 hc        1 INA      0.038283
     60 HN8        -1.5740   -2.5270    1.4190 hn        1 INA      0.327000
     61 HN9        -4.0360   -1.6600    0.8890 hn        1 INA      0.312500
     62 HN0        -2.0120   -0.1190    5.1690 hn        1 INA      0.335000
     63 H24         4.1120   -2.4180   -9.4630 ha        1 INA      0.133250
     64 H25         2.4070   -1.0180   -8.2900 ha        1 INA      0.139250
     65 H27         5.5700    1.3000   -6.4690 ha        1 INA      0.139250
     66 H28         7.2680   -0.0900   -7.6470 ha        1 INA      0.133250
     67 H291        2.5380    1.9270   -7.3260 h1        1 INA      0.072450
     68 H292        3.3000    1.5630   -5.7000 h1        1 INA      0.072450
     69 H33        -1.2610    1.7100   -4.3440 h1        1 INA      0.113700
     70 H341       -2.9020   -0.7690   -5.2870 hc        1 INA      0.057200
     71 H342       -3.5100    0.4440   -4.0900 hc        1 INA      0.057200
     72 H35        -2.4380    1.2640   -6.8700 hc        1 INA      0.064700
     73 H361       -4.8350    1.2900   -7.5980 hc        1 INA      0.038283
     74 H362       -4.2660   -0.3830   -7.1940 hc        1 INA      0.038283
     75 H363       -5.3250    0.5200   -6.0320 hc        1 INA      0.038283
     76 H371       -4.3540    2.6010   -4.8350 hc        1 INA      0.038283
     77 H372       -2.6400    3.0840   -5.1820 hc        1 INA      0.038283
     78 H373       -3.9050    3.2490   -6.4650 hc        1 INA      0.038283
     79 HN4        -2.2590    1.3270   -2.1480 hn        1 INA      0.327000
     80 HN1        -0.9300   -0.4970   -0.5140 hn        1 INA      0.312500
     81 HN2        -0.2660   -0.8180   -5.5530 hn        1 INA      0.335000
     82 H23         6.5440   -1.9510   -9.1440 ha        1 INA      0.132000
@<TRIPOS>BOND
     1    1    2 ar  
     2    1    6 ar  
     3    1   43 1   
     4    2    3 ar  
     5    2   44 1   
     6    3    4 ar  
     7    3   45 1   
     8    4    5 ar  
     9    4    7 1   
    10    5    6 ar  
    11    5   46 1   
    12    6   47 1   
    13    7    8 1   
    14    7   48 1   
    15    7   49 1   
    16    8    9 1   
    17    9   10 2   
    18    9   20 1   
    19   11   12 1   
    20   11   16 1   
    21   11   20 1   
    22   11   50 1   
    23   12   13 1   
    24   12   51 1   
    25   12   52 1   
    26   13   14 1   
    27   13   15 1   
    28   13   53 1   
    29   14   54 1   
    30   14   55 1   
    31   14   56 1   
    32   15   57 1   
    33   15   58 1   
    34   15   59 1   
    35   16   17 2   
    36   16   18 1   
    37   18   19 1   
    38   18   60 1   
    39   19   21 1   
    40   19   61 1   
    41   20   62 1   
    42   21   22 2   
    43   21   41 1   
    44   23   24 ar  
    45   23   28 ar  
    46   23   82 1   
    47   24   25 ar  
    48   24   63 1   
    49   25   26 ar  
    50   25   64 1   
    51   26   27 ar  
    52   26   29 1   
    53   27   28 ar  
    54   27   65 1   
    55   28   66 1   
    56   29   30 1   
    57   29   67 1   
    58   29   68 1   
    59   30   31 1   
    60   31   32 2   
    61   31   42 1   
    62   33   34 1   
    63   33   38 1   
    64   33   42 1   
    65   33   69 1   
    66   34   35 1   
    67   34   70 1   
    68   34   71 1   
    69   35   36 1   
    70   35   37 1   
    71   35   72 1   
    72   36   73 1   
    73   36   74 1   
    74   36   75 1   
    75   37   76 1   
    76   37   77 1   
    77   37   78 1   
    78   38   39 2   
    79   38   40 1   
    80   40   41 1   
    81   40   79 1   
    82   41   80 1   
    83   42   81 1   
@<TRIPOS>SUBSTRUCTURE
     1 INA         1 TEMP              0 ****  ****    0 ROOT
