@<TRIPOS>MOLECULE
INA
   88    89     1     0     0
SMALL
bcc


@<TRIPOS>ATOM
      1 C1          0.0000    0.0000    0.0000 ca        1 INA     -0.085500
      2 C2          1.3830    0.0000    0.0000 ca        1 INA      0.106500
      3 C3          2.0730    0.0000    1.1970 ca        1 INA      0.146500
      4 C4          1.3840    0.0000    2.3930 ca        1 INA     -0.252800
      5 C5          0.0020   -0.0050    2.3950 ca        1 INA      0.146500
      6 C6         -0.6900   -0.0010    1.1980 ca        1 INA      0.106500
      7 C7          2.1390   -0.0000    3.6980 c3        1 INA      0.330200
      8 O8          2.3820    1.3690    4.1170 os        1 INA     -0.391400
      9 C9          3.0430    1.6150    5.2630 c         1 INA      0.472100
     10 O10         3.4380    0.6920    5.9470 o         1 INA     -0.452500
     11 C11         4.0590    3.1540    6.8560 c3        1 INA     -0.133000
     12 C12         5.3490    3.8770    6.4680 c3        1 INA     -0.037400
     13 C13         6.2100    2.9560    5.6010 c3        1 INA     -0.055700
     14 C14         7.4320    3.7250    5.0970 c3        1 INA      0.005150
     15 C15         6.6700    1.7570    6.4320 c3        1 INA      0.005150
     16 C16         3.2620    4.0190    7.7970 c         1 INA      0.364100
     17 O17         2.3880    4.7410    7.3640 o         1 INA     -0.404600
     18 N18         3.5190    3.9900    9.1200 ny        1 INA      0.102400
     19 N19         2.7090    4.7110   10.0070 ny        1 INA     -0.290600
     20 N20         3.2680    2.8850    5.6520 ny        1 INA      0.183700
     21 C21         2.9810    4.7040   11.3260 c         1 INA      0.168100
     22 O22         2.3200    5.3830   12.0870 o         1 INA     -0.342100
     23 C23         8.5570   -4.4680   17.6170 ca        1 INA     -0.085500
     24 C24         8.7370   -3.4120   18.4900 ca        1 INA      0.106500
     25 C25         7.8930   -2.3190   18.4360 ca        1 INA      0.146500
     26 C26         6.8700   -2.2810   17.5090 ca        1 INA     -0.252800
     27 C27         6.6860   -3.3400   16.6380 ca        1 INA      0.146500
     28 C28         7.5320   -4.4320   16.6900 ca        1 INA      0.106500
     29 C29         5.9490   -1.0900   17.4490 c3        1 INA      0.330200
     30 O30         6.4900   -0.1050   16.5300 os        1 INA     -0.391400
     31 C31         5.8330    1.0500   16.3170 c         1 INA      0.472100
     32 O32         4.7860    1.2670   16.8930 o         1 INA     -0.452500
     33 C33         5.5590    3.1610   15.1330 c3        1 INA     -0.133000
     34 C34         6.3570    4.4090   15.5180 c3        1 INA     -0.037400
     35 C35         6.5830    4.4240   17.0320 c3        1 INA     -0.055700
     36 C36         7.4730    5.6110   17.4030 c3        1 INA      0.005150
     37 C37         5.2370    4.5510   17.7460 c3        1 INA      0.005150
     38 C38         5.2750    3.1830   13.6540 c         1 INA      0.364100
     39 O39         6.0050    2.5930   12.8880 o         1 INA     -0.404600
     40 N40         4.2080    3.8590   13.1830 ny        1 INA      0.102400
     41 N41         3.9870    3.9430   11.8020 ny        1 INA     -0.290600
     42 N42         6.3350    1.9630   15.4640 ny        1 INA      0.183700
     43 H1         -0.5420    0.0020   -0.9380 ha        1 INA      0.186500
     44 H2          1.9240    0.0000   -0.9380 ha        1 INA      0.169250
     45 H3          3.1570    0.0020    1.1960 ha        1 INA      0.137250
     46 H5         -0.5390   -0.0050    3.3340 ha        1 INA      0.137250
     47 H6         -1.7730    0.0020    1.1990 ha        1 INA      0.169250
     48 H71         1.5540   -0.5110    4.4530 h1        1 INA      0.052450
     49 H72         3.0850   -0.5110    3.5670 h1        1 INA      0.052450
     50 H11         4.3020    2.2180    7.3450 hx        1 INA      0.141700
     51 H121        5.8970    4.1450    7.3640 hc        1 INA      0.060700
     52 H122        5.1070    4.7740    5.9110 hc        1 INA      0.060700
     53 H13         5.6290    2.6080    4.7550 hc        1 INA      0.006200
     54 H141        8.0450    4.0210    5.9390 hc        1 INA      0.032617
     55 H142        8.0100    3.0920    4.4350 hc        1 INA      0.032617
     56 H143        7.1070    4.6080    4.5590 hc        1 INA      0.032617
     57 H151        7.5210    1.2900    5.9520 hc        1 INA      0.032617
     58 H152        6.9520    2.0920    7.4230 hc        1 INA      0.032617
     59 H153        5.8610    1.0400    6.5090 hc        1 INA      0.032617
     60 HN8         4.4540    4.3250    9.2430 hn        1 INA      0.304050
     61 HN9         1.7770    4.3620    9.9000 hn        1 INA      0.332800
     62 HN0         2.3750    3.3170    5.7830 hn        1 INA      0.289300
     63 H25         8.0340   -1.4910   19.1200 ha        1 INA      0.137250
     64 H27         5.8840   -3.3110   15.9120 ha        1 INA      0.137250
     65 H28         7.3890   -5.2610   16.0070 ha        1 INA      0.169250
     66 H291        5.8610   -0.6520   18.4370 h1        1 INA      0.052450
     67 H292        4.9720   -1.4050   17.1060 h1        1 INA      0.052450
     68 H33         4.6240    3.1480   15.6800 hx        1 INA      0.141700
     69 H341        7.3140    4.3970   15.0100 hc        1 INA      0.060700
     70 H342        5.8050    5.2940   15.2260 hc        1 INA      0.060700
     71 H35         7.0660    3.5020   17.3330 hc        1 INA      0.006200
     72 H361        7.6910    5.5810   18.4640 hc        1 INA      0.032617
     73 H362        8.3990    5.5580   16.8420 hc        1 INA      0.032617
     74 H363        6.9600    6.5350   17.1660 hc        1 INA      0.032617
     75 H371        4.8220    3.5640   17.9130 hc        1 INA      0.032617
     76 H372        4.5560    5.1300   17.1340 hc        1 INA      0.032617
     77 H373        5.3790    5.0490   18.6980 hc        1 INA      0.032617
     78 HN4         4.2850    4.7980   13.5230 hn        1 INA      0.304050
     79 HN1         4.8320    4.2890   11.3920 hn        1 INA      0.332800
     80 HN2         6.5280    1.4890   14.6040 hn        1 INA      0.289300
     81 H23         9.2190   -5.3250   17.6590 ha        1 INA      0.186500
     82 H182        3.4790    3.0310    9.4040 hn        1 INA      0.304050
     83 H192        2.7320    5.6670    9.7100 hn        1 INA      0.332800
     84 H202        3.7200    3.3510    4.8910 hn        1 INA      0.289300
     85 H402        3.3950    3.4360   13.5840 hn        1 INA      0.304050
     86 H412        3.8250    3.0110   11.4780 hn        1 INA      0.332800
     87 H422        7.2100    2.2710   15.8410 hn        1 INA      0.289300
     88 H24         9.5400   -3.4410   19.2170 ha        1 INA      0.169250
@<TRIPOS>BOND
     1    1    2 ar  
     2    1    6 ar  
     3    1   43 1   
     4    2    3 ar  
     5    2   44 1   
     6    3    4 ar  
     7    3   45 1   
     8    4    5 ar  
     9    4    7 1   
    10    5    6 ar  
    11    5   46 1   
    12    6   47 1   
    13    7    8 1   
    14    7   48 1   
    15    7   49 1   
    16    8    9 1   
    17    9   10 2   
    18    9   20 1   
    19   11   12 1   
    20   11   16 1   
    21   11   20 1   
    22   11   50 1   
    23   12   13 1   
    24   12   51 1   
    25   12   52 1   
    26   13   14 1   
    27   13   15 1   
    28   13   53 1   
    29   14   54 1   
    30   14   55 1   
    31   14   56 1   
    32   15   57 1   
    33   15   58 1   
    34   15   59 1   
    35   16   17 2   
    36   16   18 1   
    37   18   19 1   
    38   18   60 1   
    39   18   82 1   
    40   19   21 1   
    41   19   61 1   
    42   19   83 1   
    43   20   62 1   
    44   20   84 1   
    45   21   22 2   
    46   21   41 1   
    47   23   24 ar  
    48   23   28 ar  
    49   23   81 1   
    50   24   25 ar  
    51   24   88 1   
    52   25   26 ar  
    53   25   63 1   
    54   26   27 ar  
    55   26   29 1   
    56   27   28 ar  
    57   27   64 1   
    58   28   65 1   
    59   29   30 1   
    60   29   66 1   
    61   29   67 1   
    62   30   31 1   
    63   31   32 2   
    64   31   42 1   
    65   33   34 1   
    66   33   38 1   
    67   33   42 1   
    68   33   68 1   
    69   34   35 1   
    70   34   69 1   
    71   34   70 1   
    72   35   36 1   
    73   35   37 1   
    74   35   71 1   
    75   36   72 1   
    76   36   73 1   
    77   36   74 1   
    78   37   75 1   
    79   37   76 1   
    80   37   77 1   
    81   38   39 2   
    82   38   40 1   
    83   40   41 1   
    84   40   78 1   
    85   40   85 1   
    86   41   79 1   
    87   41   86 1   
    88   42   80 1   
    89   42   87 1   
@<TRIPOS>SUBSTRUCTURE
     1 INA         1 TEMP              0 ****  ****    0 ROOT
