@<TRIPOS>MOLECULE
INA
   82    77     1     0     0
SMALL
bcc


@<TRIPOS>ATOM
      1 C1          2.6600    5.7600    3.2560 c1        1 INA     -0.067000
      2 C2          3.3750    5.2630    4.3420 c1        1 INA     -0.067000
      3 C3          3.7730    3.9290    4.3620 c1        1 INA     -0.067000
      4 C4          3.4570    3.0930    3.2980 c1        1 INA     -0.096600
      5 C5          2.7410    3.5900    2.2100 c1        1 INA     -0.045500
      6 C6          2.3430    4.9230    2.1900 c1        1 INA     -0.067000
      7 C7          3.9100    1.6290    3.3120 c3        1 INA      0.162500
      8 O8          5.1590    1.5120    2.6440 os        1 INA     -0.436900
      9 C9          5.0520    1.0730    1.2940 c         1 INA      0.751600
     10 O10         4.4880    0.0280    1.0390 o         1 INA     -0.606500
     11 C11         5.6300    1.3570   -1.1030 c3        1 INA      0.065200
     12 C12         5.8630   -0.1450   -1.1500 c3        1 INA     -0.101900
     13 C13         7.1450   -0.4420   -1.9600 c3        1 INA     -0.062700
     14 C14         8.0990   -1.2980   -1.1140 c3        1 INA     -0.091850
     15 C15         6.7740   -1.2050   -3.2470 c3        1 INA     -0.091850
     16 C16         4.2550    1.6750   -1.6590 c         1 INA      0.587600
     17 O17         4.1280    1.9720   -2.8310 o         1 INA     -0.576600
     18 N18         3.1190    1.7000   -0.7870 n         1 INA     -0.403000
     19 N19         1.8560    2.0650   -1.2860 n         1 INA     -0.326500
     20 N20         5.7130    1.8090    0.2450 n         1 INA     -0.542400
     21 C21         0.6960    1.3060   -0.9250 c         1 INA      0.627100
     22 O22         0.7340    0.0920   -0.9450 o         1 INA     -0.596100
     23 C23       -10.1670   -2.6480   -3.1010 c1        1 INA     -0.067000
     24 C24       -10.2480   -1.6080   -2.1780 c1        1 INA     -0.067000
     25 C25        -9.0940   -0.9210   -1.7970 c1        1 INA     -0.067000
     26 C26        -7.8630   -1.2750   -2.3400 c1        1 INA     -0.096600
     27 C27        -7.7830   -2.3160   -3.2650 c1        1 INA     -0.045500
     28 C28        -8.9350   -3.0020   -3.6440 c1        1 INA     -0.067000
     29 C29        -6.5940   -0.4730   -1.9680 c3        1 INA      0.162500
     30 O30        -6.0450   -0.9880   -0.7630 os        1 INA     -0.436900
     31 C31        -4.6280   -0.9410   -0.7110 c         1 INA      0.751600
     32 O32        -3.9680   -1.4410   -1.6090 o         1 INA     -0.606500
     33 C33        -2.7050   -0.8210    0.8380 c3        1 INA      0.065200
     34 C34        -2.6500   -2.3300    0.6540 c3        1 INA     -0.101900
     35 C35        -3.0120   -3.0200    1.9710 c3        1 INA     -0.062700
     36 C36        -4.4420   -3.5740    1.8840 c3        1 INA     -0.091850
     37 C37        -2.0340   -4.1710    2.2300 c3        1 INA     -0.091850
     38 C38        -1.6120   -0.1660    0.0000 c         1 INA      0.587600
     39 O39        -0.6570   -0.8230   -0.3750 o         1 INA     -0.576600
     40 N40        -1.6910    1.2430   -0.3170 n         1 INA     -0.403000
     41 N41        -0.5140    1.9820   -0.5430 n         1 INA     -0.326500
     42 N42        -3.9670   -0.3430    0.4230 n         1 INA     -0.542400
     43 H1          2.3790    6.7000    3.2420 ha        1 INA      0.075250
     44 H2          3.5980    5.8520    5.0930 ha        1 INA      0.075250
     45 H3          4.2760    3.5800    5.1270 ha        1 INA      0.075250
     46 H5          2.5190    3.0020    1.4610 ha        1 INA      0.098500
     47 H6          1.8400    5.2730    1.4250 ha        1 INA      0.075250
     48 H71         4.0070    1.3240    4.2460 h1        1 INA      0.075700
     49 H72         3.2370    1.0720    2.8530 h1        1 INA      0.075700
     50 H11         6.3170    1.8140   -1.6440 h1        1 INA      0.095700
     51 H121        5.0960   -0.5820   -1.5780 hc        1 INA      0.077950
     52 H122        5.9670   -0.4880   -0.2370 hc        1 INA      0.077950
     53 H13         7.5820    0.3960   -2.1940 hc        1 INA      0.045200
     54 H141        8.3890   -0.7850   -0.3270 hc        1 INA      0.037367
     55 H142        7.6350   -2.1110   -0.8210 hc        1 INA      0.037367
     56 H143        8.8830   -1.5450   -1.6530 hc        1 INA      0.037367
     57 H151        7.1210   -1.9470   -2.7110 hc        1 INA      0.037367
     58 H152        7.3310   -1.6530   -3.9270 hc        1 INA      0.037367
     59 H153        7.2180   -0.4200   -3.6410 hc        1 INA      0.037367
     60 HN8         3.2160    1.4860    0.0930 hn        1 INA      0.353500
     61 HN9         1.7760    2.7880   -1.8420 hn        1 INA      0.305000
     62 HN0         6.2270    2.5450    0.4540 hn        1 INA      0.338500
     63 H23       -10.9790   -3.1310   -3.3680 ha        1 INA      0.075250
     64 H24       -11.1160   -1.3580   -1.7950 ha        1 INA      0.075250
     65 H25        -9.1510   -0.1900   -1.1490 ha        1 INA      0.075250
     66 H27        -6.9170   -2.5660   -3.6470 ha        1 INA      0.098500
     67 H28        -8.8780   -3.7380   -4.2970 ha        1 INA      0.075250
     68 H291       -5.9310   -0.5530   -2.6930 h1        1 INA      0.075700
     69 H292       -6.8300    0.4750   -1.8420 h1        1 INA      0.075700
     70 H33        -2.5670   -0.6010    1.7880 h1        1 INA      0.095700
     71 H341       -3.2840   -2.5970   -0.0360 hc        1 INA      0.077950
     72 H342       -1.7490   -2.5930    0.3870 hc        1 INA      0.077950
     73 H35        -2.9560   -2.3720    2.7070 hc        1 INA      0.045200
     74 H361       -4.6330   -2.6730    2.2170 hc        1 INA      0.037367
     75 H362       -5.1010   -3.7910    2.5810 hc        1 INA      0.037367
     76 H363       -3.9940   -4.3430    2.3000 hc        1 INA      0.037367
     77 H371       -2.1170   -4.8400    1.5130 hc        1 INA      0.037367
     78 H372       -2.2420   -4.5890    3.0920 hc        1 INA      0.037367
     79 H373       -1.1180   -3.8230    2.2490 hc        1 INA      0.037367
     80 HN4        -2.5130    1.6630   -0.3530 hn        1 INA      0.353500
     81 HN1        -0.5370    2.9040   -0.5130 hn        1 INA      0.305000
     82 HN2        -4.3600    0.3640    0.8660 hn        1 INA      0.338500
@<TRIPOS>BOND
     1    1    6 3   
     2    1   43 1   
     3    2    3 3   
     4    2   44 1   
     5    3   45 1   
     6    4    5 3   
     7    4    7 1   
     8    5   46 1   
     9    6   47 1   
    10    7    8 1   
    11    7   48 1   
    12    7   49 1   
    13    8    9 1   
    14    9   10 2   
    15    9   20 1   
    16   11   12 1   
    17   11   16 1   
    18   11   20 1   
    19   11   50 1   
    20   12   13 1   
    21   12   51 1   
    22   12   52 1   
    23   13   14 1   
    24   13   15 1   
    25   13   53 1   
    26   14   54 1   
    27   14   55 1   
    28   14   56 1   
    29   15   57 1   
    30   15   58 1   
    31   15   59 1   
    32   16   17 2   
    33   16   18 1   
    34   18   19 1   
    35   18   60 1   
    36   19   21 1   
    37   19   61 1   
    38   20   62 1   
    39   21   22 2   
    40   21   41 1   
    41   23   28 3   
    42   23   63 1   
    43   24   25 3   
    44   24   64 1   
    45   25   65 1   
    46   26   27 3   
    47   26   29 1   
    48   27   66 1   
    49   28   67 1   
    50   29   30 1   
    51   29   68 1   
    52   29   69 1   
    53   30   31 1   
    54   31   32 2   
    55   31   42 1   
    56   33   34 1   
    57   33   38 1   
    58   33   42 1   
    59   33   70 1   
    60   34   35 1   
    61   34   71 1   
    62   34   72 1   
    63   35   36 1   
    64   35   37 1   
    65   35   73 1   
    66   36   74 1   
    67   36   75 1   
    68   36   76 1   
    69   37   77 1   
    70   37   78 1   
    71   37   79 1   
    72   38   39 2   
    73   38   40 1   
    74   40   41 1   
    75   40   80 1   
    76   41   81 1   
    77   42   82 1   
@<TRIPOS>SUBSTRUCTURE
     1 INA         1 TEMP              0 ****  ****    0 ROOT
