@<TRIPOS>MOLECULE
INA
   82    83     1     0     0
SMALL
bcc


@<TRIPOS>ATOM
      1 C1         -0.5310    1.9590    0.4890 ca        1 INA     -0.122000
      2 C2          0.7890    1.5500    0.6760 ca        1 INA     -0.131250
      3 C3          1.2940    1.3830    1.9650 ca        1 INA     -0.110250
      4 C4          0.4790    1.6310    3.0740 ca        1 INA     -0.099300
      5 C5         -0.8430    2.0500    2.8850 ca        1 INA     -0.110250
      6 C6         -1.3450    2.2080    1.5940 ca        1 INA     -0.131250
      7 C7          0.9850    1.4210    4.4600 c3        1 INA      0.197700
      8 O8          2.3370    1.9330    4.5020 os        1 INA     -0.433900
      9 C9          2.9260    1.8910    5.7450 c         1 INA      0.738600
     10 O10         2.3100    1.3830    6.7010 o         1 INA     -0.597500
     11 C11         5.0190    2.3350    6.9330 c3        1 INA      0.049200
     12 C12         6.5160    2.4210    6.6060 c3        1 INA     -0.084900
     13 C13         7.0250    1.2310    5.8080 c3        1 INA     -0.066700
     14 C14         8.3890    1.5590    5.2290 c3        1 INA     -0.096100
     15 C15         7.1120   -0.0170    6.6630 c3        1 INA     -0.096100
     16 C16         4.6960    3.4500    7.9630 c         1 INA      0.599600
     17 O17         5.4280    4.4390    8.1220 o         1 INA     -0.575600
     18 N18         3.5530    3.2300    8.7500 n         1 INA     -0.423000
     19 N19         3.0110    4.1900    9.5500 n         1 INA     -0.332500
     20 N20         4.1730    2.4710    5.7730 n         1 INA     -0.533400
     21 C21         3.1530    4.0430   10.9830 c         1 INA      0.660100
     22 O22         3.1080    5.0770   11.6830 o         1 INA     -0.599100
     23 C23        10.5590   -3.0570   17.4630 ca        1 INA     -0.122000
     24 C24         9.7610   -2.9270   18.6010 ca        1 INA     -0.131250
     25 C25         8.5530   -2.2350   18.5340 ca        1 INA     -0.110250
     26 C26         8.1330   -1.6760   17.3210 ca        1 INA     -0.099300
     27 C27         8.9330   -1.8070   16.1820 ca        1 INA     -0.110250
     28 C28        10.1450   -2.4940   16.2560 ca        1 INA     -0.131250
     29 C29         6.8140   -0.9820   17.2660 c3        1 INA      0.197700
     30 O30         6.9300    0.0950   16.3110 os        1 INA     -0.433900
     31 C31         5.8070    0.8880   16.2030 c         1 INA      0.738600
     32 O32         4.7850    0.5840   16.8420 o         1 INA     -0.597500
     33 C33         4.8700    2.7320   14.9120 c3        1 INA      0.049200
     34 C34         4.9730    4.2480   15.1580 c3        1 INA     -0.084900
     35 C35         5.0480    4.6150   16.6320 c3        1 INA     -0.066700
     36 C36         5.1330    6.1240   16.7640 c3        1 INA     -0.096100
     37 C37         3.8640    4.0840   17.4120 c3        1 INA     -0.096100
     38 C38         4.7000    2.5550   13.3840 c         1 INA      0.599600
     39 O39         5.6570    2.3070   12.6320 o         1 INA     -0.575600
     40 N40         3.3640    2.5920   12.9000 n         1 INA     -0.423000
     41 N41         3.0710    2.7280   11.5790 n         1 INA     -0.332500
     42 N42         6.0120    2.0010   15.4060 n         1 INA     -0.533400
     43 H1         -0.9290    2.0860   -0.5280 ha        1 INA      0.133000
     44 H2          1.4340    1.3560   -0.1940 ha        1 INA      0.133750
     45 H3          2.3370    1.0650    2.1180 ha        1 INA      0.138250
     46 H5         -1.4860    2.2540    3.7540 ha        1 INA      0.138250
     47 H6         -2.3860    2.5320    1.4490 ha        1 INA      0.133750
     48 H71         0.3690    1.9670    5.2230 h1        1 INA      0.065950
     49 H72         1.0180    0.3290    4.7200 h1        1 INA      0.065950
     50 H11         4.8080    1.3340    7.4230 h1        1 INA      0.103700
     51 H121        7.0680    2.4840    7.5820 hc        1 INA      0.066950
     52 H122        6.7260    3.3740    6.0520 hc        1 INA      0.066950
     53 H13         6.3220    1.0270    4.9520 hc        1 INA      0.053200
     54 H141        8.7790    0.6890    4.6480 hc        1 INA      0.038950
     55 H142        8.3240    2.4410    4.5480 hc        1 INA      0.038950
     56 H143        9.1130    1.7940    6.0450 hc        1 INA      0.038950
     57 H151        6.1040   -0.3120    7.0410 hc        1 INA      0.038950
     58 H152        7.5220   -0.8650    6.0620 hc        1 INA      0.038950
     59 H153        7.7830    0.1520    7.5390 hc        1 INA      0.038950
     60 HN8         2.8390    2.6220    8.3710 hn        1 INA      0.342500
     61 HN9         3.3210    5.1240    9.2910 hn        1 INA      0.313000
     62 HN0         4.5590    2.8400    4.9360 hn        1 INA      0.340500
     63 H24        10.0870   -3.3680   19.5540 ha        1 INA      0.133750
     64 H25         7.9300   -2.1280   19.4340 ha        1 INA      0.138250
     65 H27         8.6050   -1.3570   15.2330 ha        1 INA      0.138250
     66 H28        10.7730   -2.5920   15.3580 ha        1 INA      0.133750
     67 H291        6.5250   -0.5520   18.2620 h1        1 INA      0.065950
     68 H292        6.0050   -1.6780   16.9140 h1        1 INA      0.065950
     69 H33         3.9450    2.3420   15.4430 h1        1 INA      0.103700
     70 H341        5.8770    4.6540   14.6320 hc        1 INA      0.066950
     71 H342        4.0680    4.7300   14.7010 hc        1 INA      0.066950
     72 H35         5.9880    4.1710   17.0670 hc        1 INA      0.053200
     73 H361        5.2470    6.4090   17.8370 hc        1 INA      0.038950
     74 H362        4.2080    6.6060   16.3660 hc        1 INA      0.038950
     75 H363        6.0110    6.5180   16.1970 hc        1 INA      0.038950
     76 H371        3.8700    4.5010   18.4480 hc        1 INA      0.038950
     77 H372        3.9090    2.9680   17.4850 hc        1 INA      0.038950
     78 H373        2.9040    4.3750   16.9210 hc        1 INA      0.038950
     79 HN4         2.7400    3.1520   13.4620 hn        1 INA      0.342500
     80 HN1         3.5580    2.0180   11.0470 hn        1 INA      0.313000
     81 HN2         6.8380    2.0250   14.8480 hn        1 INA      0.340500
     82 H23        11.5130   -3.6000   17.5190 ha        1 INA      0.133000
@<TRIPOS>BOND
     1    1    2 ar  
     2    1    6 ar  
     3    1   43 1   
     4    2    3 ar  
     5    2   44 1   
     6    3    4 ar  
     7    3   45 1   
     8    4    5 ar  
     9    4    7 1   
    10    5    6 ar  
    11    5   46 1   
    12    6   47 1   
    13    7    8 1   
    14    7   48 1   
    15    7   49 1   
    16    8    9 1   
    17    9   10 2   
    18    9   20 1   
    19   11   12 1   
    20   11   16 1   
    21   11   20 1   
    22   11   50 1   
    23   12   13 1   
    24   12   51 1   
    25   12   52 1   
    26   13   14 1   
    27   13   15 1   
    28   13   53 1   
    29   14   54 1   
    30   14   55 1   
    31   14   56 1   
    32   15   57 1   
    33   15   58 1   
    34   15   59 1   
    35   16   17 2   
    36   16   18 1   
    37   18   19 1   
    38   18   60 1   
    39   19   21 1   
    40   19   61 1   
    41   20   62 1   
    42   21   22 2   
    43   21   41 1   
    44   23   24 ar  
    45   23   28 ar  
    46   23   82 1   
    47   24   25 ar  
    48   24   63 1   
    49   25   26 ar  
    50   25   64 1   
    51   26   27 ar  
    52   26   29 1   
    53   27   28 ar  
    54   27   65 1   
    55   28   66 1   
    56   29   30 1   
    57   29   67 1   
    58   29   68 1   
    59   30   31 1   
    60   31   32 2   
    61   31   42 1   
    62   33   34 1   
    63   33   38 1   
    64   33   42 1   
    65   33   69 1   
    66   34   35 1   
    67   34   70 1   
    68   34   71 1   
    69   35   36 1   
    70   35   37 1   
    71   35   72 1   
    72   36   73 1   
    73   36   74 1   
    74   36   75 1   
    75   37   76 1   
    76   37   77 1   
    77   37   78 1   
    78   38   39 2   
    79   38   40 1   
    80   40   41 1   
    81   40   79 1   
    82   41   80 1   
    83   42   81 1   
@<TRIPOS>SUBSTRUCTURE
     1 INA         1 TEMP              0 ****  ****    0 ROOT
