@<TRIPOS>MOLECULE
INB
   88    87     1     0     0
SMALL
bcc


@<TRIPOS>ATOM
      1 C1'         2.0980    0.8720    3.9740 c3        1 INB      0.113400
      2 C2'         1.4460    1.4790    5.2190 c3        1 INB      0.076700
      3 C3'        -0.0260    1.6170    4.9930 c3        1 INB      0.191400
      4 O1'         2.0120   -0.5550    4.0370 os        1 INB     -0.422600
      5 O3'        -0.6300    2.2600    6.1190 os        1 INB     -0.581200
      6 N2'         2.0170    2.7770    5.4780 n         1 INB     -0.556900
      7 C'          3.0030    2.9430    6.5470 c         1 INB      0.651100
      8 O'          3.1090    2.0960    7.4120 o         1 INB     -0.670100
      9 CM'         3.7890    4.2720    6.6690 c3        1 INB     -0.170100
     10 P          -2.2300    2.2660    6.2230 p5        1 INB      1.437800
     11 O1P        -2.7010    0.9320    6.7180 o         1 INB     -0.834000
     12 O2P        -2.8210    2.5360    4.8590 o         1 INB     -0.834000
     13 O3P        -2.6980    3.4060    7.2390 os        1 INB     -0.563200
     14 C1B        -4.1060    3.5080    7.5530 c3        1 INB      0.193400
     15 C2B        -4.3220    4.6260    8.5620 c3        1 INB     -0.014300
     16 S          -6.0800    4.7430    8.9770 ss        1 INB     -0.375200
     17 CMB        -6.3410    6.1450   10.0540 c3        1 INB     -0.043000
     18 C1          2.8490   -1.2200    3.1060 c3        1 INB      0.135400
     19 C2          2.2610   -2.6270    2.7890 c3        1 INB     -0.085400
     20 C3          3.0250   -3.2470    1.5930 c3        1 INB     -0.077400
     21 C4          2.1840   -4.4280    0.9920 c3        1 INB     -0.078400
     22 C5          2.7930   -4.8580   -0.3840 c3        1 INB     -0.078400
     23 C6          1.7280   -5.5750   -1.2130 c3        1 INB     -0.079400
     24 C7          2.1080   -5.5050   -2.7000 c3        1 INB     -0.079400
     25 C8          0.8170   -5.5260   -3.5750 c3        1 INB     -0.078400
     26 C9          1.1360   -4.9460   -4.9610 c3        1 INB     -0.077400
     27 C10        -0.1500   -4.2710   -5.5580 c3        1 INB     -0.079400
     28 C11         0.2500   -3.3390   -6.7260 c3        1 INB     -0.078400
     29 C12        -0.8670   -2.3490   -6.9860 c3        1 INB     -0.079400
     30 C13        -0.2990   -1.1090   -7.7460 c3        1 INB     -0.078400
     31 C14        -1.3560   -0.0120   -7.7800 c3        1 INB     -0.079400
     32 C15        -0.6580    1.3850   -7.9530 c3        1 INB     -0.078400
     33 C16        -1.7190    2.4840   -8.0530 c3        1 INB     -0.079400
     34 C17        -1.0870    3.8310   -7.7030 c3        1 INB     -0.080400
     35 C18        -2.1030    4.9310   -7.8950 c3        1 INB     -0.092100
     36 H1'1        1.6340    1.1910    3.1740 h1        1 INB      0.037700
     37 H1'2        3.0160    1.1340    3.9360 h1        1 INB      0.037700
     38 H2'         1.6060    0.8890    5.9930 h1        1 INB      0.068700
     39 H3'1       -0.1840    2.1580    4.1840 h1        1 INB      0.036700
     40 H3'2       -0.4180    0.7390    4.8750 h1        1 INB      0.036700
     41 HN2'        1.7700    3.4980    4.9650 hn        1 INB      0.374500
     42 HM'1        4.0640    4.4030    7.5960 hc        1 INB      0.058700
     43 HM'2        4.5840    4.2370    6.0940 hc        1 INB      0.058700
     44 HM'3        3.2150    5.0190    6.3890 hc        1 INB      0.058700
     45 H1A1       -4.6160    3.7070    6.7260 h1        1 INB      0.038700
     46 H1A2       -4.4170    2.6620    7.9320 h1        1 INB      0.038700
     47 H2'1       -3.8100    4.4370    9.3690 h1        1 INB      0.068200
     48 H2'2       -4.0220    5.4750    8.1760 h1        1 INB      0.068200
     49 HMA1       -7.2270    6.0740   10.4790 h1        1 INB      0.076033
     50 HMA2       -6.2950    6.9760    9.5270 h1        1 INB      0.076033
     51 HMA3       -5.6470    6.1590   10.7440 h1        1 INB      0.076033
     52 H11         3.7450   -1.3190    3.4860 h1        1 INB      0.020700
     53 H12         2.9020   -0.6850    2.2660 h1        1 INB      0.020700
     54 H21         1.3240   -2.5420    2.5640 hc        1 INB      0.054700
     55 H22         2.3590   -3.2110    3.5800 hc        1 INB      0.054700
     56 H31         3.1660   -2.5630    0.9070 hc        1 INB      0.036700
     57 H32         3.8870   -3.5840    1.8980 hc        1 INB      0.036700
     58 H41         2.2030   -5.1980    1.6170 hc        1 INB      0.041200
     59 H42         1.2540   -4.1340    0.8610 hc        1 INB      0.041200
     60 H51         3.5440   -5.4590   -0.2320 hc        1 INB      0.037700
     61 H52         3.1010   -4.0680   -0.8660 hc        1 INB      0.037700
     62 H61         1.6740   -6.5110   -0.9340 hc        1 INB      0.039700
     63 H62         0.8730   -5.1490   -1.0770 hc        1 INB      0.039700
     64 H71         2.6060   -4.6710   -2.8730 hc        1 INB      0.038700
     65 H72         2.6710   -6.2750   -2.9310 hc        1 INB      0.038700
     66 H81         0.1230   -4.9890   -3.1480 hc        1 INB      0.039200
     67 H82         0.5020   -6.4490   -3.6700 hc        1 INB      0.039200
     68 H91         1.8520   -4.2730   -4.8770 hc        1 INB      0.037200
     69 H92         1.4340   -5.6690   -5.5580 hc        1 INB      0.037200
     70 H101       -0.7610   -4.9660   -5.8890 hc        1 INB      0.041200
     71 H102       -0.6050   -3.7390   -4.8510 hc        1 INB      0.041200
     72 H111        1.0640   -2.8570   -6.4930 hc        1 INB      0.037700
     73 H112        0.4060   -3.8690   -7.5220 hc        1 INB      0.037700
     74 H121       -1.2520   -2.0610   -6.1320 hc        1 INB      0.040200
     75 H122       -1.5620   -2.7760   -7.5310 hc        1 INB      0.040200
     76 H131        0.5000   -0.7790   -7.2840 hc        1 INB      0.038200
     77 H132       -0.0660   -1.3630   -8.6580 hc        1 INB      0.038200
     78 H141       -1.8630   -0.0220   -6.9420 hc        1 INB      0.040200
     79 H142       -1.9690   -0.1700   -8.5360 hc        1 INB      0.040200
     80 H151       -0.1060    1.3800   -8.7850 hc        1 INB      0.038200
     81 H152       -0.0760    1.5600   -7.1730 hc        1 INB      0.038200
     82 H161       -2.0670    2.5170   -8.9610 hc        1 INB      0.039700
     83 H162       -2.4510    2.2910   -7.4270 hc        1 INB      0.039700
     84 H171       -0.7900    3.8190   -6.7690 hc        1 INB      0.037700
     85 H172       -0.3220    3.9900   -8.2860 hc        1 INB      0.037700
     86 H181       -1.7690    5.7520   -7.5050 hc        1 INB      0.031700
     87 H182       -2.2610    5.0660   -8.8530 hc        1 INB      0.031700
     88 H183       -2.9520    4.6770   -7.4520 hc        1 INB      0.031700
@<TRIPOS>BOND
     1    1    2 1   
     2    1    4 1   
     3    1   36 1   
     4    1   37 1   
     5    2    3 1   
     6    2    6 1   
     7    2   38 1   
     8    3    5 1   
     9    3   39 1   
    10    3   40 1   
    11    4   18 1   
    12    5   10 1   
    13    6    7 1   
    14    6   41 1   
    15    7    8 2   
    16    7    9 1   
    17    9   42 1   
    18    9   43 1   
    19    9   44 1   
    20   10   11 1   
    21   10   12 1   
    22   10   13 1   
    23   13   14 1   
    24   14   15 1   
    25   14   45 1   
    26   14   46 1   
    27   15   16 1   
    28   15   47 1   
    29   15   48 1   
    30   16   17 1   
    31   17   49 1   
    32   17   50 1   
    33   17   51 1   
    34   18   19 1   
    35   18   52 1   
    36   18   53 1   
    37   19   20 1   
    38   19   54 1   
    39   19   55 1   
    40   20   21 1   
    41   20   56 1   
    42   20   57 1   
    43   21   22 1   
    44   21   58 1   
    45   21   59 1   
    46   22   23 1   
    47   22   60 1   
    48   22   61 1   
    49   23   24 1   
    50   23   62 1   
    51   23   63 1   
    52   24   25 1   
    53   24   64 1   
    54   24   65 1   
    55   25   26 1   
    56   25   66 1   
    57   25   67 1   
    58   26   27 1   
    59   26   68 1   
    60   26   69 1   
    61   27   28 1   
    62   27   70 1   
    63   27   71 1   
    64   28   29 1   
    65   28   72 1   
    66   28   73 1   
    67   29   30 1   
    68   29   74 1   
    69   29   75 1   
    70   30   31 1   
    71   30   76 1   
    72   30   77 1   
    73   31   32 1   
    74   31   78 1   
    75   31   79 1   
    76   32   33 1   
    77   32   80 1   
    78   32   81 1   
    79   33   34 1   
    80   33   82 1   
    81   33   83 1   
    82   34   35 1   
    83   34   84 1   
    84   34   85 1   
    85   35   86 1   
    86   35   87 1   
    87   35   88 1   
@<TRIPOS>SUBSTRUCTURE
     1 INB         1 TEMP              0 ****  ****    0 ROOT
