@<TRIPOS>MOLECULE
INB
   88    87     1     0     0
SMALL
bcc


@<TRIPOS>ATOM
      1 C1'        -0.1890   -1.4770    1.7840 c3        1 INB      0.124400
      2 C2'         0.9230   -0.4390    1.5780 c3        1 INB      0.024700
      3 C3'         2.0330   -0.6870    2.6450 c3        1 INB      0.170400
      4 O1'        -0.7920   -1.8640    0.5550 os        1 INB     -0.438600
      5 O3'         3.1850    0.0160    2.3110 os        1 INB     -0.589200
      6 N2'         0.5300    0.9540    1.5010 n         1 INB     -0.531900
      7 C'         -0.4950    1.5490    2.2240 c         1 INB      0.654100
      8 O'         -1.5160    0.9390    2.6190 o         1 INB     -0.665100
      9 CM'        -0.3830    3.0450    2.4290 c3        1 INB     -0.190100
     10 P           3.5820    1.2950    3.2960 p5        1 INB      1.432800
     11 O1P         2.7300    2.3900    2.7750 o         1 INB     -0.830000
     12 O2P         3.6340    0.8300    4.6880 o         1 INB     -0.830000
     13 O3P         5.1050    1.5070    2.7190 os        1 INB     -0.559200
     14 C1B         5.2270    2.0020    1.4190 c3        1 INB      0.192400
     15 C2B         5.8270    0.9410    0.5080 c3        1 INB     -0.029300
     16 S           6.0350    1.4980   -1.1590 ss        1 INB     -0.350200
     17 CMB         4.3940    1.5240   -1.7840 c3        1 INB     -0.030000
     18 C1         -1.6560   -0.8770   -0.0060 c3        1 INB      0.121400
     19 C2         -2.6140   -1.6100   -0.9300 c3        1 INB     -0.085400
     20 C3         -3.5330   -0.6290   -1.6230 c3        1 INB     -0.078400
     21 C4         -4.5010   -1.3410   -2.5440 c3        1 INB     -0.077400
     22 C5         -5.4210   -0.3600   -3.2390 c3        1 INB     -0.079400
     23 C6         -6.3900   -1.0720   -4.1590 c3        1 INB     -0.078400
     24 C7         -7.3100   -0.0910   -4.8540 c3        1 INB     -0.079400
     25 C8         -8.2780   -0.8020   -5.7740 c3        1 INB     -0.078400
     26 C9         -9.1980    0.1790   -6.4690 c3        1 INB     -0.079400
     27 C10       -10.1670   -0.5310   -7.3890 c3        1 INB     -0.078400
     28 C11       -11.0870    0.4500   -8.0840 c3        1 INB     -0.079400
     29 C12       -12.0550   -0.2610   -9.0040 c3        1 INB     -0.078400
     30 C13       -12.9750    0.7200   -9.6980 c3        1 INB     -0.079400
     31 C14       -13.9440    0.0090  -10.6190 c3        1 INB     -0.078400
     32 C15       -14.8630    0.9910  -11.3130 c3        1 INB     -0.079400
     33 C16       -15.8320    0.2800  -12.2340 c3        1 INB     -0.079400
     34 C17       -16.7530    1.2610  -12.9290 c3        1 INB     -0.080400
     35 C18       -17.7190    0.5580  -13.8460 c3        1 INB     -0.092100
     36 H1'1       -0.9640   -1.1350    2.5170 h1        1 INB      0.064700
     37 H1'2        0.2720   -2.4390    2.1450 h1        1 INB      0.064700
     38 H2'         1.3960   -0.6580    0.5690 h1        1 INB      0.066700
     39 H3'1        2.2810   -1.7860    2.6350 h1        1 INB      0.032700
     40 H3'2        1.6760   -0.3990    3.6710 h1        1 INB      0.032700
     41 HN2'        1.3600    1.5400    1.4570 hn        1 INB      0.341500
     42 HM'1        0.6220    3.3000    2.8600 hc        1 INB      0.071367
     43 HM'2       -1.1900    3.3780    3.1230 hc        1 INB      0.071367
     44 HM'3       -0.4980    3.5710    1.4510 hc        1 INB      0.071367
     45 H1A1        5.9170    2.8920    1.4520 h1        1 INB      0.037700
     46 H1A2        4.2200    2.3290    1.0330 h1        1 INB      0.037700
     47 H2'1        5.1980    0.0180    0.5360 h1        1 INB      0.081200
     48 H2'2        6.8530    0.6760    0.8610 h1        1 INB      0.081200
     49 HMA1        3.9050    0.5290   -1.6900 h1        1 INB      0.059700
     50 HMA2        3.7650    2.2750   -1.2550 h1        1 INB      0.059700
     51 HMA3        4.4700    1.8000   -2.8590 h1        1 INB      0.059700
     52 H11        -1.0300   -0.1440   -0.5810 h1        1 INB      0.048700
     53 H12        -2.2110   -0.3300    0.8030 h1        1 INB      0.048700
     54 H21        -2.0280   -2.1930   -1.6880 hc        1 INB      0.043200
     55 H22        -3.2130   -2.3480   -0.3360 hc        1 INB      0.043200
     56 H31        -2.9240    0.1060   -2.2120 hc        1 INB      0.041700
     57 H32        -4.1050   -0.0440   -0.8550 hc        1 INB      0.041700
     58 H41        -3.9280   -1.9270   -3.3100 hc        1 INB      0.037200
     59 H42        -5.1100   -2.0760   -1.9540 hc        1 INB      0.037200
     60 H51        -4.8120    0.3740   -3.8280 hc        1 INB      0.039700
     61 H52        -5.9930    0.2260   -2.4710 hc        1 INB      0.039700
     62 H61        -5.8180   -1.6580   -4.9260 hc        1 INB      0.037700
     63 H62        -6.9990   -1.8060   -3.5690 hc        1 INB      0.037700
     64 H71        -6.7000    0.6430   -5.4440 hc        1 INB      0.039700
     65 H72        -7.8810    0.4960   -4.0870 hc        1 INB      0.039700
     66 H81        -7.7070   -1.3880   -6.5410 hc        1 INB      0.038700
     67 H82        -8.8880   -1.5360   -5.1840 hc        1 INB      0.038700
     68 H91        -9.7700    0.7660   -5.7020 hc        1 INB      0.039700
     69 H92        -8.5880    0.9130   -7.0590 hc        1 INB      0.039700
     70 H101      -10.7770   -1.2660   -6.7990 hc        1 INB      0.038700
     71 H102       -9.5950   -1.1180   -8.1560 hc        1 INB      0.038700
     72 H111      -10.4770    1.1840   -8.6740 hc        1 INB      0.039700
     73 H112      -11.6580    1.0370   -7.3170 hc        1 INB      0.039700
     74 H121      -12.6650   -0.9950   -8.4140 hc        1 INB      0.038700
     75 H122      -11.4840   -0.8480   -9.7710 hc        1 INB      0.038700
     76 H131      -13.5460    1.3070   -8.9320 hc        1 INB      0.039700
     77 H132      -12.3650    1.4540  -10.2880 hc        1 INB      0.039700
     78 H141      -13.3720   -0.5770  -11.3860 hc        1 INB      0.038700
     79 H142      -14.5530   -0.7250  -10.0290 hc        1 INB      0.038700
     80 H151      -14.2540    1.7250  -11.9030 hc        1 INB      0.039700
     81 H152      -15.4350    1.5780  -10.5460 hc        1 INB      0.039700
     82 H161      -15.2610   -0.3060  -13.0010 hc        1 INB      0.038700
     83 H162      -16.4420   -0.4540  -11.6440 hc        1 INB      0.038700
     84 H171      -16.1410    1.9950  -13.5170 hc        1 INB      0.038700
     85 H172      -17.3220    1.8480  -12.1600 hc        1 INB      0.038700
     86 H181      -18.3870    1.2980  -14.3480 hc        1 INB      0.031367
     87 H182      -18.3550   -0.1600  -13.2740 hc        1 INB      0.031367
     88 H183      -17.1710   -0.0130  -14.6340 hc        1 INB      0.031367
@<TRIPOS>BOND
     1    1    2 1   
     2    1    4 1   
     3    1   36 1   
     4    1   37 1   
     5    2    3 1   
     6    2    6 1   
     7    2   38 1   
     8    3    5 1   
     9    3   39 1   
    10    3   40 1   
    11    4   18 1   
    12    5   10 1   
    13    6    7 1   
    14    6   41 1   
    15    7    8 2   
    16    7    9 1   
    17    9   42 1   
    18    9   43 1   
    19    9   44 1   
    20   10   11 1   
    21   10   12 1   
    22   10   13 1   
    23   13   14 1   
    24   14   15 1   
    25   14   45 1   
    26   14   46 1   
    27   15   16 1   
    28   15   47 1   
    29   15   48 1   
    30   16   17 1   
    31   17   49 1   
    32   17   50 1   
    33   17   51 1   
    34   18   19 1   
    35   18   52 1   
    36   18   53 1   
    37   19   20 1   
    38   19   54 1   
    39   19   55 1   
    40   20   21 1   
    41   20   56 1   
    42   20   57 1   
    43   21   22 1   
    44   21   58 1   
    45   21   59 1   
    46   22   23 1   
    47   22   60 1   
    48   22   61 1   
    49   23   24 1   
    50   23   62 1   
    51   23   63 1   
    52   24   25 1   
    53   24   64 1   
    54   24   65 1   
    55   25   26 1   
    56   25   66 1   
    57   25   67 1   
    58   26   27 1   
    59   26   68 1   
    60   26   69 1   
    61   27   28 1   
    62   27   70 1   
    63   27   71 1   
    64   28   29 1   
    65   28   72 1   
    66   28   73 1   
    67   29   30 1   
    68   29   74 1   
    69   29   75 1   
    70   30   31 1   
    71   30   76 1   
    72   30   77 1   
    73   31   32 1   
    74   31   78 1   
    75   31   79 1   
    76   32   33 1   
    77   32   80 1   
    78   32   81 1   
    79   33   34 1   
    80   33   82 1   
    81   33   83 1   
    82   34   35 1   
    83   34   84 1   
    84   34   85 1   
    85   35   86 1   
    86   35   87 1   
    87   35   88 1   
@<TRIPOS>SUBSTRUCTURE
     1 INB         1 TEMP              0 ****  ****    0 ROOT
