@<TRIPOS>MOLECULE
INB
   88    87     1     0     0
SMALL
bcc


@<TRIPOS>ATOM
      1 C1'         2.4000    0.5540   -4.5120 c3        1 INB      0.124400
      2 C2'         1.1050    0.4130   -5.3230 c3        1 INB      0.024700
      3 C3'         1.4610    0.4950   -6.8390 c3        1 INB      0.170400
      4 O1'         2.3690   -0.2180   -3.3180 os        1 INB     -0.438600
      5 O3'         0.3840    0.0700   -7.6080 os        1 INB     -0.589200
      6 N2'        -0.0040    1.2770   -4.9670 n         1 INB     -0.531900
      7 C'          0.1000    2.5920   -4.5320 c         1 INB      0.654100
      8 O'          1.0860    3.0450   -3.9060 o         1 INB     -0.665100
      9 CM'        -1.1190    3.4620   -4.7530 c3        1 INB     -0.190100
     10 P          -0.3920    1.2360   -8.5020 p5        1 INB      1.432800
     11 O1P        -1.3080    1.8550   -7.5140 o         1 INB     -0.830000
     12 O2P         0.5960    1.9460   -9.3260 o         1 INB     -0.830000
     13 O3P        -1.2640    0.2050   -9.4370 os        1 INB     -0.559200
     14 C1B        -2.2870   -0.5080   -8.8090 c3        1 INB      0.192400
     15 C2B        -1.9520   -1.9920   -8.7820 c3        1 INB     -0.029300
     16 S          -3.2130   -2.9720   -8.0190 ss        1 INB     -0.350200
     17 CMB        -3.0340   -2.6020   -6.3120 c3        1 INB     -0.030000
     18 C1          1.5330    0.3210   -2.2970 c3        1 INB      0.121400
     19 C2          2.0310   -0.2470   -0.9780 c3        1 INB     -0.085400
     20 C3          1.1590    0.2250    0.1640 c3        1 INB     -0.078400
     21 C4          1.6430   -0.3250    1.4880 c3        1 INB     -0.077400
     22 C5          0.7700    0.1460    2.6320 c3        1 INB     -0.079400
     23 C6          1.2550   -0.4040    3.9560 c3        1 INB     -0.078400
     24 C7          0.3820    0.0670    5.1000 c3        1 INB     -0.079400
     25 C8          0.8660   -0.4820    6.4240 c3        1 INB     -0.078400
     26 C9         -0.0070   -0.0110    7.5670 c3        1 INB     -0.079400
     27 C10         0.4770   -0.5600    8.8920 c3        1 INB     -0.078400
     28 C11        -0.3960   -0.0890   10.0350 c3        1 INB     -0.079400
     29 C12         0.0880   -0.6380   11.3600 c3        1 INB     -0.078400
     30 C13        -0.7850   -0.1670   12.5030 c3        1 INB     -0.079400
     31 C14        -0.3010   -0.7160   13.8270 c3        1 INB     -0.078400
     32 C15        -1.1750   -0.2450   14.9700 c3        1 INB     -0.079400
     33 C16        -0.6910   -0.7950   16.2950 c3        1 INB     -0.079400
     34 C17        -1.5640   -0.3240   17.4390 c3        1 INB     -0.080400
     35 C18        -1.0850   -0.8690   18.7600 c3        1 INB     -0.092100
     36 H1'1        2.6510    1.6230   -4.2870 h1        1 INB      0.064700
     37 H1'2        3.2450    0.0820   -5.0880 h1        1 INB      0.064700
     38 H2'         0.7160   -0.6380   -5.1430 h1        1 INB      0.066700
     39 H3'1        1.7650    1.5390   -7.1250 h1        1 INB      0.032700
     40 H3'2        2.3220   -0.2060   -7.0290 h1        1 INB      0.032700
     41 HN2'       -0.7610    1.1500   -5.6320 hn        1 INB      0.341500
     42 HM'1       -0.8690    4.5140   -4.4810 hc        1 INB      0.071367
     43 HM'2       -1.4380    3.4110   -5.8280 hc        1 INB      0.071367
     44 HM'3       -1.9600    3.1070   -4.1110 hc        1 INB      0.071367
     45 H1A1       -2.4440   -0.1200   -7.7630 h1        1 INB      0.037700
     46 H1A2       -3.2310   -0.3540   -9.4060 h1        1 INB      0.037700
     47 H2'1       -1.8680   -2.3800   -9.8260 h1        1 INB      0.081200
     48 H2'2       -0.9720   -2.1500   -8.2710 h1        1 INB      0.081200
     49 HMA1       -3.7590   -3.2500   -5.7710 h1        1 INB      0.059367
     50 HMA2       -2.0030   -2.8200   -5.9530 h1        1 INB      0.059367
     51 HMA3       -3.2620   -1.5340   -6.0960 h1        1 INB      0.059367
     52 H11         0.4760   -0.0020   -2.4950 h1        1 INB      0.048700
     53 H12         1.5780    1.4430   -2.2980 h1        1 INB      0.048700
     54 H21         3.0920    0.0750   -0.8120 hc        1 INB      0.043200
     55 H22         2.0290   -1.3660   -1.0300 hc        1 INB      0.043200
     56 H31         0.0990   -0.0990   -0.0130 hc        1 INB      0.041700
     57 H32         1.1590    1.3470    0.1990 hc        1 INB      0.041700
     58 H41         2.7020   -0.0000    1.6650 hc        1 INB      0.037200
     59 H42         1.6430   -1.4460    1.4520 hc        1 INB      0.037200
     60 H51        -0.2890   -0.1790    2.4540 hc        1 INB      0.039700
     61 H52         0.7700    1.2670    2.6670 hc        1 INB      0.039700
     62 H61         2.3140   -0.0790    4.1330 hc        1 INB      0.037700
     63 H62         1.2550   -1.5250    3.9210 hc        1 INB      0.037700
     64 H71        -0.6770   -0.2570    4.9220 hc        1 INB      0.039700
     65 H72         0.3820    1.1890    5.1350 hc        1 INB      0.039700
     66 H81         1.9250   -0.1570    6.6010 hc        1 INB      0.038700
     67 H82         0.8670   -1.6030    6.3890 hc        1 INB      0.038700
     68 H91        -1.0660   -0.3350    7.3900 hc        1 INB      0.039700
     69 H92        -0.0070    1.1110    7.6030 hc        1 INB      0.039700
     70 H101        1.5360   -0.2350    9.0690 hc        1 INB      0.038700
     71 H102        0.4770   -1.6810    8.8570 hc        1 INB      0.038700
     72 H111       -1.4550   -0.4130    9.8580 hc        1 INB      0.039700
     73 H112       -0.3960    1.0330   10.0700 hc        1 INB      0.039700
     74 H121        1.1470   -0.3130   11.5370 hc        1 INB      0.038700
     75 H122        0.0880   -1.7600   11.3240 hc        1 INB      0.038700
     76 H131       -1.8440   -0.4920   12.3250 hc        1 INB      0.039700
     77 H132       -0.7850    0.9550   12.5380 hc        1 INB      0.039700
     78 H141        0.7580   -0.3920   14.0050 hc        1 INB      0.038700
     79 H142       -0.3010   -1.8380   13.7920 hc        1 INB      0.038700
     80 H151       -2.2340   -0.5700   14.7930 hc        1 INB      0.039700
     81 H152       -1.1750    0.8760   15.0060 hc        1 INB      0.039700
     82 H161        0.3680   -0.4700   16.4730 hc        1 INB      0.038700
     83 H162       -0.6910   -1.9160   16.2600 hc        1 INB      0.038700
     84 H171       -2.6230   -0.6480   17.2590 hc        1 INB      0.038700
     85 H172       -1.5640    0.7980   17.4720 hc        1 INB      0.038700
     86 H181       -1.7420   -0.5100   19.5890 hc        1 INB      0.031367
     87 H182       -1.1020   -1.9860   18.7550 hc        1 INB      0.031367
     88 H183       -0.0400   -0.5350   18.9690 hc        1 INB      0.031367
@<TRIPOS>BOND
     1    1    2 1   
     2    1    4 1   
     3    1   36 1   
     4    1   37 1   
     5    2    3 1   
     6    2    6 1   
     7    2   38 1   
     8    3    5 1   
     9    3   39 1   
    10    3   40 1   
    11    4   18 1   
    12    5   10 1   
    13    6    7 1   
    14    6   41 1   
    15    7    8 2   
    16    7    9 1   
    17    9   42 1   
    18    9   43 1   
    19    9   44 1   
    20   10   11 1   
    21   10   12 1   
    22   10   13 1   
    23   13   14 1   
    24   14   15 1   
    25   14   45 1   
    26   14   46 1   
    27   15   16 1   
    28   15   47 1   
    29   15   48 1   
    30   16   17 1   
    31   17   49 1   
    32   17   50 1   
    33   17   51 1   
    34   18   19 1   
    35   18   52 1   
    36   18   53 1   
    37   19   20 1   
    38   19   54 1   
    39   19   55 1   
    40   20   21 1   
    41   20   56 1   
    42   20   57 1   
    43   21   22 1   
    44   21   58 1   
    45   21   59 1   
    46   22   23 1   
    47   22   60 1   
    48   22   61 1   
    49   23   24 1   
    50   23   62 1   
    51   23   63 1   
    52   24   25 1   
    53   24   64 1   
    54   24   65 1   
    55   25   26 1   
    56   25   66 1   
    57   25   67 1   
    58   26   27 1   
    59   26   68 1   
    60   26   69 1   
    61   27   28 1   
    62   27   70 1   
    63   27   71 1   
    64   28   29 1   
    65   28   72 1   
    66   28   73 1   
    67   29   30 1   
    68   29   74 1   
    69   29   75 1   
    70   30   31 1   
    71   30   76 1   
    72   30   77 1   
    73   31   32 1   
    74   31   78 1   
    75   31   79 1   
    76   32   33 1   
    77   32   80 1   
    78   32   81 1   
    79   33   34 1   
    80   33   82 1   
    81   33   83 1   
    82   34   35 1   
    83   34   84 1   
    84   34   85 1   
    85   35   86 1   
    86   35   87 1   
    87   35   88 1   
@<TRIPOS>SUBSTRUCTURE
     1 INB         1 TEMP              0 ****  ****    0 ROOT
