@<TRIPOS>MOLECULE
INC
   32    31     1     0     0
SMALL
bcc


@<TRIPOS>ATOM
      1 CA1        -0.1700   -0.0250   -0.0240 c3        1 INC     -0.182100
      2 C1          1.3080    0.1170    0.0560 c         1 INC      0.562100
      3 O1          2.0200    0.3710    1.0060 o         1 INC     -0.380100
      4 N2          2.0360   -0.1110   -1.3070 n4        1 INC     -0.390700
      5 OH2         1.5170    0.7100   -2.2500 oh        1 INC     -0.379300
      6 CA2         3.5560   -0.0390   -1.2770 c3        1 INC      0.066500
      7 CB2         4.1840   -1.1500   -0.4410 c3        1 INC     -0.107400
      8 CG2         3.8170   -2.5580   -0.8850 c3        1 INC     -0.075700
      9 CD1         4.0530   -2.7760   -2.3650 c3        1 INC     -0.103600
     10 CD2         4.6310   -3.5510   -0.0740 c3        1 INC     -0.103600
     11 C2          4.0170    1.3420   -0.8290 c         1 INC      0.629100
     12 O2          3.3160    2.3600   -0.8580 o         1 INC     -0.550000
     13 O3          5.3040    1.3860   -0.4380 os        1 INC     -0.390900
     14 C3          5.8190    2.6760   -0.0480 c3        1 INC      0.122700
     15 HA11       -0.5890    0.5420   -0.8950 hc        1 INC      0.121700
     16 HA12       -0.4470   -1.1070   -0.1240 hc        1 INC      0.121700
     17 HA13       -0.6150    0.3760    0.9260 hc        1 INC      0.121700
     18 HO2         1.7580    1.6460   -2.0280 ho        1 INC      0.496000
     19 HA2         3.8880   -0.1520   -2.3600 hx        1 INC      0.146700
     20 HB21        5.3000   -1.0100   -0.5310 hc        1 INC      0.105200
     21 HB22        3.9260   -1.0130    0.6440 hc        1 INC      0.105200
     22 HG2         2.7290   -2.7490   -0.6590 hc        1 INC      0.024700
     23 HD11        3.9330   -3.8600   -2.6140 hc        1 INC      0.052867
     24 HD12        5.0880   -2.4680   -2.6500 hc        1 INC      0.052867
     25 HD13        3.3240   -2.1990   -2.9830 hc        1 INC      0.052867
     26 HD21        5.7190   -3.4450   -0.3020 hc        1 INC      0.052867
     27 HD22        4.4760   -3.3850    1.0190 hc        1 INC      0.052867
     28 HD23        4.3180   -4.5940   -0.3240 hc        1 INC      0.052867
     29 H31         5.7470    3.3820   -0.9100 h1        1 INC      0.078367
     30 H32         5.2410    3.0580    0.8270 h1        1 INC      0.078367
     31 H33         6.8810    2.4450    0.2180 h1        1 INC      0.078367
     32 H21         1.7950   -1.0740   -1.6300 hn        1 INC      0.488800
@<TRIPOS>BOND
     1    1    2 1   
     2    1   15 1   
     3    1   16 1   
     4    1   17 1   
     5    2    3 2   
     6    2    4 1   
     7    4    5 1   
     8    4    6 1   
     9    4   32 1   
    10    5   18 1   
    11    6    7 1   
    12    6   11 1   
    13    6   19 1   
    14    7    8 1   
    15    7   20 1   
    16    7   21 1   
    17    8    9 1   
    18    8   10 1   
    19    8   22 1   
    20    9   23 1   
    21    9   24 1   
    22    9   25 1   
    23   10   26 1   
    24   10   27 1   
    25   10   28 1   
    26   11   12 2   
    27   11   13 1   
    28   13   14 1   
    29   14   29 1   
    30   14   30 1   
    31   14   31 1   
@<TRIPOS>SUBSTRUCTURE
     1 INC         1 TEMP              0 ****  ****    0 ROOT
