@<TRIPOS>MOLECULE
INC
   32    31     1     0     0
SMALL
bcc


@<TRIPOS>ATOM
      1 CA1         0.2750    0.7790    0.1900 c3        1 INC     -0.193100
      2 C1          1.1710   -0.3890   -0.0020 c         1 INC      0.569100
      3 O1          1.3950   -1.3330    0.7320 o         1 INC     -0.395100
      4 N2          1.9160   -0.4700   -1.3690 nx        1 INC     -0.391700
      5 OH2         1.3190    0.2870   -2.3130 oh        1 INC     -0.373300
      6 CA2         3.4150   -0.2010   -1.2970 c3        1 INC      0.062500
      7 CB2         4.1560   -1.2080   -0.4210 c3        1 INC     -0.102400
      8 CG2         3.9970   -2.6570   -0.8590 c3        1 INC     -0.078700
      9 CD1         4.2830   -2.8540   -2.3320 c3        1 INC     -0.103100
     10 CD2         4.9290   -3.5200   -0.0260 c3        1 INC     -0.103100
     11 C2          3.6970    1.2290   -0.8630 c         1 INC      0.623100
     12 O2          2.8570    2.1350   -0.7980 o         1 INC     -0.564000
     13 O3          4.9940    1.4620   -0.5920 os        1 INC     -0.388900
     14 C3          5.3540    2.8140   -0.2390 c3        1 INC      0.121700
     15 HA11        0.8560    1.7400    0.1560 hc        1 INC      0.127700
     16 HA12       -0.5180    0.8000   -0.6020 hc        1 INC      0.127700
     17 HA13       -0.2160    0.6850    1.1960 hc        1 INC      0.127700
     18 HO2         1.4150    1.2420   -2.0680 ho        1 INC      0.488000
     19 HA2         3.7930   -0.2910   -2.3680 hx        1 INC      0.150700
     20 HB21        5.2450   -0.9190   -0.4720 hc        1 INC      0.100700
     21 HB22        3.8320   -1.1070    0.6490 hc        1 INC      0.100700
     22 HG2         2.9410   -2.9900   -0.6400 hc        1 INC      0.044700
     23 HD11        4.3250   -3.9460   -2.5690 hc        1 INC      0.052200
     24 HD12        5.2670   -2.4030   -2.6100 hc        1 INC      0.052200
     25 HD13        3.4870   -2.3970   -2.9680 hc        1 INC      0.052200
     26 HD21        5.9950   -3.2680   -0.2400 hc        1 INC      0.052200
     27 HD22        4.7350   -3.3680    1.0630 hc        1 INC      0.052200
     28 HD23        4.7650   -4.5990   -0.2680 hc        1 INC      0.052200
     29 H31         5.0930    3.5010   -1.0790 h1        1 INC      0.079367
     30 H32         4.8220    3.1090    0.6960 h1        1 INC      0.079367
     31 H33         6.4610    2.7380   -0.0870 h1        1 INC      0.079367
     32 H21         1.8260   -1.4560   -1.7150 hn        1 INC      0.496800
@<TRIPOS>BOND
     1    1    2 1   
     2    1   15 1   
     3    1   16 1   
     4    1   17 1   
     5    2    3 2   
     6    2    4 1   
     7    4    5 1   
     8    4    6 1   
     9    4   32 1   
    10    5   18 1   
    11    6    7 1   
    12    6   11 1   
    13    6   19 1   
    14    7    8 1   
    15    7   20 1   
    16    7   21 1   
    17    8    9 1   
    18    8   10 1   
    19    8   22 1   
    20    9   23 1   
    21    9   24 1   
    22    9   25 1   
    23   10   26 1   
    24   10   27 1   
    25   10   28 1   
    26   11   12 2   
    27   11   13 1   
    28   13   14 1   
    29   14   29 1   
    30   14   30 1   
    31   14   31 1   
@<TRIPOS>SUBSTRUCTURE
     1 INC         1 TEMP              0 ****  ****    0 ROOT
