@<TRIPOS>MOLECULE
INC
   31    30     1     0     0
SMALL
bcc


@<TRIPOS>ATOM
      1 CA1        -3.3020   -0.4680   -1.3260 c3        1 INC     -0.169100
      2 C1         -2.0470   -0.6220   -0.5110 c         1 INC      0.646100
      3 O1         -1.6890   -1.7100   -0.0390 o         1 INC     -0.550100
      4 N2         -1.3260    0.5790   -0.1950 n         1 INC     -0.297300
      5 OH2        -1.4810    1.5420   -1.1070 oh        1 INC     -0.431100
      6 CA2         0.0770    0.4890    0.2520 c3        1 INC      0.041700
      7 CB2         0.9900   -0.4670   -0.5260 c3        1 INC     -0.103400
      8 CG2         1.3040    0.0400   -1.9270 c3        1 INC     -0.070700
      9 CD1         2.3820    1.1040   -1.8990 c3        1 INC     -0.090100
     10 CD2         1.7380   -1.1160   -2.8060 c3        1 INC     -0.090100
     11 C2          0.1270    0.1490    1.7360 c         1 INC      0.631100
     12 O2         -0.7770   -0.0740    2.5390 o         1 INC     -0.511000
     13 O3          1.4160    0.1590    2.2070 os        1 INC     -0.447900
     14 C3          1.5900   -0.1410    3.5920 c3        1 INC      0.127700
     15 HA11       -3.0610   -0.0150   -2.3190 hc        1 INC      0.072367
     16 HA12       -3.7650   -1.4740   -1.4760 hc        1 INC      0.072367
     17 HA13       -4.0250    0.1940   -0.7920 hc        1 INC      0.072367
     18 HO2        -2.0180    2.2290   -0.6630 ho        1 INC      0.422000
     19 HA2         0.5070    1.5360    0.1580 h1        1 INC      0.098700
     20 HB21        1.9470   -0.5780    0.0520 hc        1 INC      0.077700
     21 HB22        0.5140   -1.4820   -0.5840 hc        1 INC      0.077700
     22 HG2         0.3720    0.4930   -2.3710 hc        1 INC      0.056700
     23 HD11        2.5820    1.4760   -2.9330 hc        1 INC      0.035367
     24 HD12        2.0680    1.9700   -1.2680 hc        1 INC      0.035367
     25 HD13        3.3330    0.6910   -1.4820 hc        1 INC      0.035367
     26 HD21        2.6390   -1.6160   -2.3770 hc        1 INC      0.035367
     27 HD22        0.9210   -1.8710   -2.8910 hc        1 INC      0.035367
     28 HD23        1.9900   -0.7470   -3.8290 hc        1 INC      0.035367
     29 H31         2.6980   -0.0940    3.7340 h1        1 INC      0.051700
     30 H32         1.0640    0.6210    4.2150 h1        1 INC      0.051700
     31 H33         1.1910   -1.1600    3.8150 h1        1 INC      0.051700
@<TRIPOS>BOND
     1    1    2 1   
     2    1   15 1   
     3    1   16 1   
     4    1   17 1   
     5    2    3 2   
     6    2    4 1   
     7    4    5 1   
     8    4    6 1   
     9    5   18 1   
    10    6    7 1   
    11    6   11 1   
    12    6   19 1   
    13    7    8 1   
    14    7   20 1   
    15    7   21 1   
    16    8    9 1   
    17    8   10 1   
    18    8   22 1   
    19    9   23 1   
    20    9   24 1   
    21    9   25 1   
    22   10   26 1   
    23   10   27 1   
    24   10   28 1   
    25   11   12 2   
    26   11   13 1   
    27   13   14 1   
    28   14   29 1   
    29   14   30 1   
    30   14   31 1   
@<TRIPOS>SUBSTRUCTURE
     1 INC         1 TEMP              0 ****  ****    0 ROOT
