@<TRIPOS>MOLECULE
INC
   31    30     1     0     0
SMALL
bcc


@<TRIPOS>ATOM
      1 CA1        -3.7820    1.1210   -0.7850 c3        1 INC     -0.165100
      2 C1         -2.2750    1.0420   -0.8940 c         1 INC      0.647100
      3 O1         -1.7090    1.5330   -1.8510 o         1 INC     -0.559100
      4 N2         -1.5240    0.3820    0.1120 n         1 INC     -0.286300
      5 OH2        -2.1640   -0.1960    1.1740 oh        1 INC     -0.433100
      6 CA2        -0.1100    0.3090    0.0110 c3        1 INC      0.022700
      7 CB2         0.3490   -1.0910    0.3550 c3        1 INC     -0.076400
      8 CG2         1.2870   -1.5940   -0.7220 c3        1 INC     -0.066700
      9 CD1         2.6700   -1.7850   -0.1380 c3        1 INC     -0.093100
     10 CD2         0.7790   -2.9140   -1.2570 c3        1 INC     -0.093100
     11 C2          0.5160    1.2950    0.9710 c         1 INC      0.615100
     12 O2          0.4560    1.0980    2.1690 o         1 INC     -0.533000
     13 O3          1.1430    2.4530    0.4810 os        1 INC     -0.435900
     14 C3          1.5960    3.3280    1.4890 c3        1 INC      0.126700
     15 HA11       -4.0250    1.6050    0.0320 hc        1 INC      0.073700
     16 HA12       -4.1410    1.5950   -1.5640 hc        1 INC      0.073700
     17 HA13       -4.1550    0.2160   -0.7520 hc        1 INC      0.073700
     18 HO2        -2.8060   -0.7350    0.8760 ho        1 INC      0.423000
     19 HA2         0.1620    0.5260   -0.9020 h1        1 INC      0.123700
     20 HB21       -0.4270   -1.6840    0.4140 hc        1 INC      0.065700
     21 HB22        0.8160   -1.0790    1.2140 hc        1 INC      0.065700
     22 HG2         1.3280   -0.9430   -1.4480 hc        1 INC      0.048700
     23 HD11        3.0040   -0.9270    0.1980 hc        1 INC      0.037200
     24 HD12        2.6270   -2.4300    0.5990 hc        1 INC      0.037200
     25 HD13        3.2740   -2.1220   -0.8320 hc        1 INC      0.037200
     26 HD21        0.7110   -3.5600   -0.5230 hc        1 INC      0.037200
     27 HD22       -0.1050   -2.7850   -1.6610 hc        1 INC      0.037200
     28 HD23        1.4010   -3.2540   -1.9340 hc        1 INC      0.037200
     29 H31         2.2400    2.8600    2.0630 h1        1 INC      0.052367
     30 H32         0.8330    3.6280    2.0290 h1        1 INC      0.052367
     31 H33         2.0310    4.1060    1.0760 h1        1 INC      0.052367
@<TRIPOS>BOND
     1    1    2 1   
     2    1   15 1   
     3    1   16 1   
     4    1   17 1   
     5    2    3 2   
     6    2    4 1   
     7    4    5 1   
     8    4    6 1   
     9    5   18 1   
    10    6    7 1   
    11    6   11 1   
    12    6   19 1   
    13    7    8 1   
    14    7   20 1   
    15    7   21 1   
    16    8    9 1   
    17    8   10 1   
    18    8   22 1   
    19    9   23 1   
    20    9   24 1   
    21    9   25 1   
    22   10   26 1   
    23   10   27 1   
    24   10   28 1   
    25   11   12 2   
    26   11   13 1   
    27   13   14 1   
    28   14   29 1   
    29   14   30 1   
    30   14   31 1   
@<TRIPOS>SUBSTRUCTURE
     1 INC         1 TEMP              0 ****  ****    0 ROOT
