@<TRIPOS>MOLECULE
INC
   32    31     1     0     0
SMALL
bcc


@<TRIPOS>ATOM
      1 CA1        -0.1670   -0.0530    0.0130 c3        1 INC     -0.182100
      2 C1          1.3110    0.0910    0.0850 c         1 INC      0.562100
      3 O1          2.0290    0.3250    1.0350 o         1 INC     -0.380100
      4 N2          2.0300   -0.1050   -1.2880 n4        1 INC     -0.390700
      5 OH2         1.5000    0.7320   -2.2090 oh        1 INC     -0.379300
      6 CA2         3.5500   -0.0270   -1.2670 c3        1 INC      0.066500
      7 CB2         4.1890   -1.1530   -0.4600 c3        1 INC     -0.107400
      8 CG2         3.8250   -2.5530   -0.9310 c3        1 INC     -0.075700
      9 CD1         4.0510   -2.7390   -2.4170 c3        1 INC     -0.103600
     10 CD2         4.6490   -3.5590   -0.1480 c3        1 INC     -0.103600
     11 C2          4.0080    1.3460   -0.7940 c         1 INC      0.629100
     12 O2          3.3010    2.3600   -0.7960 o         1 INC     -0.550000
     13 O3          5.2970    1.3870   -0.4110 os        1 INC     -0.390900
     14 C3          5.8090    2.6710    0.0020 c3        1 INC      0.122700
     15 HA11       -0.6070    0.3260    0.9740 hc        1 INC      0.121700
     16 HA12       -0.5940    0.5320   -0.8430 hc        1 INC      0.121700
     17 HA13       -0.4420   -1.1330   -0.1100 hc        1 INC      0.121700
     18 HO2         1.7380    1.6640   -1.9700 ho        1 INC      0.496000
     19 HA2         3.8740   -0.1160   -2.3550 hx        1 INC      0.146700
     20 HB21        5.3030   -1.0060   -0.5550 hc        1 INC      0.105200
     21 HB22        3.9380   -1.0410    0.6290 hc        1 INC      0.105200
     22 HG2         2.7400   -2.7540   -0.7020 hc        1 INC      0.024700
     23 HD11        3.9340   -3.8180   -2.6880 hc        1 INC      0.052867
     24 HD12        3.3150   -2.1520   -3.0170 hc        1 INC      0.052867
     25 HD13        5.0820   -2.4200   -2.7030 hc        1 INC      0.052867
     26 HD21        4.3390   -4.5980   -0.4170 hc        1 INC      0.052867
     27 HD22        4.5020   -3.4170    0.9500 hc        1 INC      0.052867
     28 HD23        5.7350   -3.4430   -0.3810 hc        1 INC      0.052867
     29 H31         5.2360    3.0320    0.8890 h1        1 INC      0.078367
     30 H32         5.7280    3.3950   -0.8430 h1        1 INC      0.078367
     31 H33         6.8740    2.4390    0.2550 h1        1 INC      0.078367
     32 H21         1.7900   -1.0630   -1.6290 hn        1 INC      0.488800
@<TRIPOS>BOND
     1    1    2 1   
     2    1   15 1   
     3    1   16 1   
     4    1   17 1   
     5    2    3 2   
     6    2    4 1   
     7    4    5 1   
     8    4    6 1   
     9    4   32 1   
    10    5   18 1   
    11    6    7 1   
    12    6   11 1   
    13    6   19 1   
    14    7    8 1   
    15    7   20 1   
    16    7   21 1   
    17    8    9 1   
    18    8   10 1   
    19    8   22 1   
    20    9   23 1   
    21    9   24 1   
    22    9   25 1   
    23   10   26 1   
    24   10   27 1   
    25   10   28 1   
    26   11   12 2   
    27   11   13 1   
    28   13   14 1   
    29   14   29 1   
    30   14   30 1   
    31   14   31 1   
@<TRIPOS>SUBSTRUCTURE
     1 INC         1 TEMP              0 ****  ****    0 ROOT
