@<TRIPOS>MOLECULE
IND
   16    11     1     0     0
SMALL
bcc


@<TRIPOS>ATOM
      1 N1          0.0630   -0.0000   -1.9820 n2        1 IND     -0.330600
      2 C2          1.4300   -0.0000   -1.9820 cg        1 IND     -0.026200
      3 C3          1.8580   -0.0000   -0.6690 ch        1 IND     -0.199000
      4 C4          0.5940   -0.0000    1.5380 c1        1 IND     -0.024500
      5 C5         -0.6740   -0.0000    2.1010 c1        1 IND     -0.078500
      6 C6         -1.7960    0.0000    1.2830 c1        1 IND     -0.078500
      7 C7         -1.6500    0.0000   -0.0960 c1        1 IND     -0.088500
      8 C8         -0.3650   -0.0000   -0.6670 cg        1 IND      0.053800
      9 C9          0.7430   -0.0000    0.1400 ch        1 IND     -0.084000
     10 HN1        -0.4720   -0.0000   -2.7200 DU        1 IND      0.189000
     11 H2          2.0040   -0.0000   -2.7720 DU        1 IND      0.189000
     12 H3          2.7860   -0.0000   -0.3680 DU        1 IND      0.189000
     13 H4          1.3830   -0.0000    2.1130 ha        1 IND      0.075500
     14 H5         -0.7770   -0.0000    3.0710 ha        1 IND      0.070500
     15 H6         -2.6880    0.0000    1.6800 ha        1 IND      0.070500
     16 H7         -2.4390    0.0000   -0.6700 ha        1 IND      0.072500
@<TRIPOS>BOND
     1    1    2 1   
     2    1    8 1   
     3    2    3 3   
     4    3    9 1   
     5    4    9 3   
     6    4   13 1   
     7    5    6 3   
     8    5   14 1   
     9    6   15 1   
    10    7    8 3   
    11    7   16 1   
@<TRIPOS>SUBSTRUCTURE
     1 IND         1 TEMP              0 ****  ****    0 ROOT
