@<TRIPOS>MOLECULE
IND
   16    17     1     0     0
SMALL
bcc


@<TRIPOS>ATOM
      1 N1         -1.0910    0.0000    1.5850 na        1 IND     -0.196400
      2 C2          0.0470   -0.0000    2.3970 cc        1 IND     -0.109100
      3 C3          1.1960   -0.0000    1.6110 cd        1 IND     -0.187200
      4 C4          1.4370   -0.0000   -0.9950 ca        1 IND     -0.082000
      5 C5          0.6920   -0.0000   -2.1650 ca        1 IND     -0.159000
      6 C6         -0.7150    0.0000   -2.1370 ca        1 IND     -0.113000
      7 C7         -1.4190    0.0000   -0.9430 ca        1 IND     -0.146000
      8 C8         -0.6790   -0.0000    0.2500 ca        1 IND     -0.047200
      9 C9          0.7680   -0.0000    0.2310 ca        1 IND     -0.095800
     10 HN1        -2.0250    0.0000    1.8950 hn        1 IND      0.297700
     11 H2         -0.0510   -0.0000    3.4840 h4        1 IND      0.163000
     12 H3          2.2240   -0.0000    1.9590 ha        1 IND      0.156000
     13 H4          2.5350   -0.0000   -1.0230 ha        1 IND      0.133000
     14 H5          1.2040   -0.0000   -3.1380 ha        1 IND      0.128000
     15 H6         -1.2660    0.0000   -3.0890 ha        1 IND      0.128000
     16 H7         -2.5160    0.0000   -0.9300 ha        1 IND      0.130000
@<TRIPOS>BOND
     1    1    2 1   
     2    1    8 1   
     3    1   10 1   
     4    2    3 2   
     5    2   11 1   
     6    3    9 1   
     7    3   12 1   
     8    4    5 ar  
     9    4    9 ar  
    10    4   13 1   
    11    5    6 ar  
    12    5   14 1   
    13    6    7 ar  
    14    6   15 1   
    15    7    8 ar  
    16    7   16 1   
    17    8    9 ar  
@<TRIPOS>SUBSTRUCTURE
     1 IND         1 TEMP              0 ****  ****    0 ROOT
