@<TRIPOS>MOLECULE
INE
   17    18     1     0     0
SMALL
bcc


@<TRIPOS>ATOM
      1 N1         -0.6140    1.6160   -0.0010 na        1 INE      0.013900
      2 N2          0.7160    1.7160   -0.0010 nc        1 INE     -0.456100
      3 C3          1.2430    0.4660   -0.0000 cd        1 INE      0.287900
      4 C4          0.0770   -1.9100    0.0010 ca        1 INE     -0.007000
      5 C5         -1.1860   -2.4950    0.0010 ca        1 INE     -0.177000
      6 C6         -2.3590   -1.7270    0.0010 ca        1 INE     -0.021000
      7 C7         -2.3040   -0.3290   -0.0000 ca        1 INE     -0.197200
      8 C8         -1.0340    0.2860   -0.0000 ca        1 INE     -0.004200
      9 C9          0.1670   -0.5220    0.0000 ca        1 INE     -0.203900
     10 N10        -3.5350    0.4850   -0.0000 no        1 INE      0.325200
     11 O11        -4.6010   -0.0670   -0.0000 o         1 INE     -0.215000
     12 O12        -3.4400    1.6870   -0.0010 o         1 INE     -0.215000
     13 BR          3.0470    0.1050   -0.0000 br        1 INE      0.022700
     14 H11        -1.2050    2.4230   -0.0010 hn        1 INE      0.361700
     15 H41         0.9870   -2.5300    0.0010 ha        1 INE      0.159000
     16 H51        -1.2760   -3.5920    0.0010 ha        1 INE      0.153000
     17 H61        -3.3420   -2.2320    0.0010 ha        1 INE      0.173000
@<TRIPOS>BOND
     1    1    2 1   
     2    1    8 1   
     3    1   14 1   
     4    2    3 2   
     5    3    9 1   
     6    3   13 1   
     7    4    5 ar  
     8    4    9 ar  
     9    4   15 1   
    10    5    6 ar  
    11    5   16 1   
    12    6    7 ar  
    13    6   17 1   
    14    7    8 ar  
    15    7   10 1   
    16    8    9 ar  
    17   10   11 1   
    18   10   12 1   
@<TRIPOS>SUBSTRUCTURE
     1 INE         1 TEMP              0 ****  ****    0 ROOT
