@<TRIPOS>MOLECULE
INE
   17    13     1     0     0
SMALL
bcc


@<TRIPOS>ATOM
      1 N1          0.5540    0.0450   -1.9700 ne        1 INE     -0.277100
      2 N2          1.9300    0.0190   -1.9720 n1        1 INE     -0.419100
      3 C3          2.3500   -0.0230   -0.6860 cg        1 INE      0.116800
      4 C4          1.0850   -0.0590    1.5290 c1        1 INE      0.050500
      5 C5         -0.1800   -0.0500    2.0940 c1        1 INE     -0.041500
      6 C6         -1.3000   -0.0070    1.2810 c1        1 INE     -0.041500
      7 C7         -1.1550    0.0270   -0.0950 c1        1 INE     -0.152000
      8 C8          0.1310    0.0180   -0.6690 c1        1 INE      0.261400
      9 C9          1.2320   -0.0240    0.1300 cg        1 INE     -0.120000
     10 N10        -2.3880    0.0100   -0.7980 no        1 INE      0.280000
     11 O11        -3.2970    1.0110   -0.6060 o         1 INE     -0.215000
     12 O12        -2.6400   -0.9050   -1.5680 o         1 INE     -0.215000
     13 BR          4.2580    0.0290   -0.8080 br        1 INE      0.148000
     14 H11         0.0180    0.0750   -2.7080 DU        1 INE      0.312000
     15 H41         1.8750   -0.0890    2.1030 ha        1 INE      0.101500
     16 H51        -0.2820   -0.0740    3.0640 ha        1 INE      0.105500
     17 H61        -2.1910   -0.0010    1.6790 ha        1 INE      0.105500
@<TRIPOS>BOND
     1    1    2 1   
     2    1    8 2   
     3    2    3 3   
     4    3    9 1   
     5    4    9 3   
     6    4   15 1   
     7    5    6 3   
     8    5   16 1   
     9    6   17 1   
    10    7    8 2   
    11    7   10 2   
    12   10   11 1   
    13   10   12 1   
@<TRIPOS>SUBSTRUCTURE
     1 INE         1 TEMP              0 ****  ****    0 ROOT
