@<TRIPOS>MOLECULE
INE
   17    18     1     0     0
SMALL
bcc


@<TRIPOS>ATOM
      1 N1          0.0300    0.0010   -0.0070 na        1 INE      0.013900
      2 N2          1.3630   -0.0000   -0.0520 nc        1 INE     -0.456100
      3 C3          1.8370    0.0000    1.2200 cd        1 INE      0.287900
      4 C4          0.5730    0.0020    3.5450 ca        1 INE     -0.007000
      5 C5         -0.7130    0.0030    4.0760 ca        1 INE     -0.177000
      6 C6         -1.8530    0.0030    3.2600 ca        1 INE     -0.021000
      7 C7         -1.7390    0.0030    1.8660 ca        1 INE     -0.197200
      8 C8         -0.4460    0.0020    1.3040 ca        1 INE     -0.004200
      9 C9          0.7210    0.0010    2.1620 ca        1 INE     -0.203900
     10 N10        -2.9350    0.0030    1.0010 no        1 INE      0.325200
     11 O11        -4.0240    0.0030    1.5080 o         1 INE     -0.215000
     12 O12        -2.7900    0.0020   -0.1960 o         1 INE     -0.215000
     13 BR          3.6250   -0.0010    1.6550 br        1 INE      0.022700
     14 H11        -0.5270    0.0010   -0.8380 hn        1 INE      0.361700
     15 H41         1.4570    0.0020    4.2020 ha        1 INE      0.159000
     16 H51        -0.8490    0.0040    5.1690 ha        1 INE      0.153000
     17 H61        -2.8560    0.0040    3.7240 ha        1 INE      0.173000
@<TRIPOS>BOND
     1    1    2 1   
     2    1    8 1   
     3    1   14 1   
     4    2    3 2   
     5    3    9 1   
     6    3   13 1   
     7    4    5 ar  
     8    4    9 ar  
     9    4   15 1   
    10    5    6 ar  
    11    5   16 1   
    12    6    7 ar  
    13    6   17 1   
    14    7    8 ar  
    15    7   10 1   
    16    8    9 ar  
    17   10   11 1   
    18   10   12 1   
@<TRIPOS>SUBSTRUCTURE
     1 INE         1 TEMP              0 ****  ****    0 ROOT
