@<TRIPOS>MOLECULE
INF
   29    29     1     0     0
SMALL
bcc


@<TRIPOS>ATOM
      1 N          -0.1250    0.0570   -0.0550 n         1 INF     -0.493900
      2 CA          1.3380    0.0050    0.0400 c3        1 INF     -0.009300
      3 C           1.7810   -0.0650    1.5050 c         1 INF      0.605100
      4 O           2.4320    0.8100    2.0610 o         1 INF     -0.419000
      5 CB          1.9240   -1.1790   -0.7460 c3        1 INF     -0.052100
      6 CG          1.4240   -1.2160   -2.1450 ca        1 INF     -0.136300
      7 CD1         2.0060   -0.4030   -3.1240 ca        1 INF     -0.136000
      8 CD2         0.3860   -2.0880   -2.4980 ca        1 INF     -0.136000
      9 CE1         1.5510   -0.4590   -4.4410 ca        1 INF     -0.117500
     10 CE2        -0.0650   -2.1430   -3.8160 ca        1 INF     -0.117500
     11 CZ          0.5150   -1.3270   -4.7880 ca        1 INF     -0.106000
     12 OXT         1.4500   -1.1290    2.2820 oh        1 INF     -0.544100
     13 C1         -0.7310    1.2800   -0.0640 c         1 INF      0.631100
     14 N2         -2.2910    1.2930   -0.2460 n4        1 INF     -0.451300
     15 O1         -0.2780    2.4060    0.1390 o         1 INF     -0.453100
     16 O2         -2.7430    2.5070   -0.6230 oh        1 INF     -0.352300
     17 H          -0.5590   -0.7290   -0.5010 hn        1 INF      0.352500
     18 HA          1.7700    0.9690   -0.3830 h1        1 INF      0.130700
     19 HB1         1.6910   -2.1470   -0.2250 hc        1 INF      0.089700
     20 HB2         3.0430   -1.0560   -0.7340 hc        1 INF      0.089700
     21 HD1         2.8390    0.2680   -2.8590 ha        1 INF      0.136500
     22 HD2        -0.0430   -2.7690   -1.7470 ha        1 INF      0.136500
     23 HE1         2.0220    0.1740   -5.2110 ha        1 INF      0.153500
     24 HE2        -0.8640   -2.8470   -4.0940 ha        1 INF      0.153500
     25 HZ          0.1660   -1.3800   -5.8320 ha        1 INF      0.156000
     26 H2N        -2.5960    0.6440   -0.9960 hn        1 INF      0.480800
     27 H2O        -2.1880    3.2160   -0.2020 ho        1 INF      0.499000
     28 H2          1.0340   -1.8250    1.7550 ho        1 INF      0.430000
     29 H22        -2.7420    1.0210    0.6470 hn        1 INF      0.480800
@<TRIPOS>BOND
     1    1    2 1   
     2    1   13 1   
     3    1   17 1   
     4    2    3 1   
     5    2    5 1   
     6    2   18 1   
     7    3    4 2   
     8    3   12 1   
     9    5    6 1   
    10    5   19 1   
    11    5   20 1   
    12    6    7 ar  
    13    6    8 ar  
    14    7    9 ar  
    15    7   21 1   
    16    8   10 ar  
    17    8   22 1   
    18    9   11 ar  
    19    9   23 1   
    20   10   11 ar  
    21   10   24 1   
    22   11   25 1   
    23   12   28 1   
    24   13   14 1   
    25   13   15 2   
    26   14   16 1   
    27   14   26 1   
    28   14   29 1   
    29   16   27 1   
@<TRIPOS>SUBSTRUCTURE
     1 INF         1 TEMP              0 ****  ****    0 ROOT
