@<TRIPOS>MOLECULE
INF
   29    29     1     0     0
SMALL
bcc


@<TRIPOS>ATOM
      1 N          -0.1210    0.0600   -0.0540 ns        1 INF     -0.493900
      2 CA          1.3420   -0.0130    0.0410 c3        1 INF     -0.008300
      3 C           1.7830   -0.0960    1.5060 c         1 INF      0.605100
      4 O           2.4460    0.7680    2.0670 o         1 INF     -0.419000
      5 CB          1.9110   -1.2020   -0.7490 c3        1 INF     -0.052100
      6 CG          1.4110   -1.2260   -2.1480 ca        1 INF     -0.136300
      7 CD1         2.0050   -0.4180   -3.1240 ca        1 INF     -0.136000
      8 CD2         0.3610   -2.0820   -2.5050 ca        1 INF     -0.136000
      9 CE1         1.5500   -0.4620   -4.4410 ca        1 INF     -0.117500
     10 CE2        -0.0900   -2.1260   -3.8230 ca        1 INF     -0.117500
     11 CZ          0.5020   -1.3140   -4.7920 ca        1 INF     -0.106000
     12 OXT         1.4360   -1.1570    2.2790 oh        1 INF     -0.544100
     13 C1         -0.7090    1.2910   -0.0570 c         1 INF      0.631100
     14 N2         -2.2690    1.3270   -0.2410 ny        1 INF     -0.451300
     15 O1         -0.2410    2.4100    0.1500 o         1 INF     -0.453100
     16 O2         -2.7030    2.5490   -0.6120 oh        1 INF     -0.352300
     17 H           1.0100   -1.8450    1.7490 ho        1 INF      0.430000
     18 HA          1.7870    0.9460   -0.3780 h1        1 INF      0.130700
     19 HB1         3.0320   -1.0950   -0.7360 hc        1 INF      0.089700
     20 HB2         1.6640   -2.1690   -0.2320 hc        1 INF      0.089700
     21 HD1         2.8470    0.2400   -2.8560 ha        1 INF      0.136500
     22 HD2        -0.0780   -2.7600   -1.7570 ha        1 INF      0.136500
     23 HE1         2.0300    0.1670   -5.2080 ha        1 INF      0.153500
     24 HE2        -0.8990   -2.8170   -4.1050 ha        1 INF      0.153500
     25 HZ          0.1530   -1.3580   -5.8360 ha        1 INF      0.156000
     26 H2N        -2.5830    0.6860   -0.9940 hn        1 INF      0.480800
     27 H2O        -2.1380    3.2480   -0.1880 ho        1 INF      0.499000
     28 H2         -0.5650   -0.7180   -0.5030 hn        1 INF      0.352500
     29 H22        -2.7240    1.0580    0.6510 hn        1 INF      0.480800
@<TRIPOS>BOND
     1    1    2 1   
     2    1   13 1   
     3    1   28 1   
     4    2    3 1   
     5    2    5 1   
     6    2   18 1   
     7    3    4 2   
     8    3   12 1   
     9    5    6 1   
    10    5   19 1   
    11    5   20 1   
    12    6    7 ar  
    13    6    8 ar  
    14    7    9 ar  
    15    7   21 1   
    16    8   10 ar  
    17    8   22 1   
    18    9   11 ar  
    19    9   23 1   
    20   10   11 ar  
    21   10   24 1   
    22   11   25 1   
    23   12   17 1   
    24   13   14 1   
    25   13   15 2   
    26   14   16 1   
    27   14   26 1   
    28   14   29 1   
    29   16   27 1   
@<TRIPOS>SUBSTRUCTURE
     1 INF         1 TEMP              0 ****  ****    0 ROOT
