@<TRIPOS>MOLECULE
INF
   29    29     1     0     0
SMALL
bcc


@<TRIPOS>ATOM
      1 N          -0.1210    0.0680   -0.0570 n         1 INF     -0.493900
      2 CA          1.3420   -0.0010    0.0380 c3        1 INF     -0.008300
      3 C           1.7840   -0.0720    1.5040 c         1 INF      0.605100
      4 O           2.4450    0.7980    2.0570 o         1 INF     -0.419000
      5 CB          1.9140   -1.1940   -0.7430 c3        1 INF     -0.052100
      6 CG          1.4130   -1.2300   -2.1420 ca        1 INF     -0.136300
      7 CD1         2.0040   -0.4270   -3.1240 ca        1 INF     -0.136000
      8 CD2         0.3660   -2.0920   -2.4920 ca        1 INF     -0.136000
      9 CE1         1.5480   -0.4820   -4.4410 ca        1 INF     -0.117500
     10 CE2        -0.0860   -2.1460   -3.8100 ca        1 INF     -0.117500
     11 CZ          0.5030   -1.3390   -4.7850 ca        1 INF     -0.106000
     12 OXT         1.4400   -1.1290    2.2850 oh        1 INF     -0.544100
     13 C1         -0.7130    1.2960   -0.0680 c         1 INF      0.631100
     14 N2         -2.2730    1.3270   -0.2510 n4        1 INF     -0.451300
     15 O1         -0.2480    2.4180    0.1330 o         1 INF     -0.453100
     16 O2         -2.7110    2.5450   -0.6280 oh        1 INF     -0.352300
     17 H           1.0160   -1.8210    1.7590 ho        1 INF      0.430000
     18 HA          1.7840    0.9570   -0.3870 h1        1 INF      0.130700
     19 HB1         1.6700   -2.1580   -0.2200 hc        1 INF      0.089700
     20 HB2         3.0350   -1.0830   -0.7320 hc        1 INF      0.089700
     21 HD1         2.8440    0.2360   -2.8610 ha        1 INF      0.136500
     22 HD2        -0.0700   -2.7660   -1.7390 ha        1 INF      0.136500
     23 HE1         2.0260    0.1430   -5.2130 ha        1 INF      0.153500
     24 HE2        -0.8930   -2.8420   -4.0860 ha        1 INF      0.153500
     25 HZ          0.1530   -1.3920   -5.8280 ha        1 INF      0.156000
     26 H2N        -2.5850    0.6800   -1.0010 hn        1 INF      0.480800
     27 H2O        -2.1480    3.2480   -0.2090 ho        1 INF      0.499000
     28 H2         -0.5630   -0.7150   -0.5010 hn        1 INF      0.352500
     29 H22        -2.7270    1.0600    0.6420 hn        1 INF      0.480800
@<TRIPOS>BOND
     1    1    2 1   
     2    1   13 1   
     3    1   28 1   
     4    2    3 1   
     5    2    5 1   
     6    2   18 1   
     7    3    4 2   
     8    3   12 1   
     9    5    6 1   
    10    5   19 1   
    11    5   20 1   
    12    6    7 ar  
    13    6    8 ar  
    14    7    9 ar  
    15    7   21 1   
    16    8   10 ar  
    17    8   22 1   
    18    9   11 ar  
    19    9   23 1   
    20   10   11 ar  
    21   10   24 1   
    22   11   25 1   
    23   12   17 1   
    24   13   14 1   
    25   13   15 2   
    26   14   16 1   
    27   14   26 1   
    28   14   29 1   
    29   16   27 1   
@<TRIPOS>SUBSTRUCTURE
     1 INF         1 TEMP              0 ****  ****    0 ROOT
