@<TRIPOS>MOLECULE
INF
   27    25     1     0     0
SMALL
bcc


@<TRIPOS>ATOM
      1 N          -0.3780   -0.0070    2.0120 n         1 INF     -0.307000
      2 CA          0.1240    0.3510    0.7350 c3        1 INF     -0.082000
      3 C           1.2610    1.3180    0.8940 c2        1 INF      0.329000
      4 O           1.1840    2.4910    0.3740 o         1 INF     -0.560500
      5 CB          0.6190   -0.9040    0.0150 c3        1 INF     -0.111000
      6 CG          0.3070   -0.8020   -1.4570 c2        1 INF     -0.050000
      7 CD1        -0.6710   -1.6430   -2.0320 c1        1 INF     -0.136000
      8 CD2         1.0410    0.0570   -2.2650 c2        1 INF     -0.120000
      9 CE1        -0.8950   -1.6100   -3.3930 c1        1 INF     -0.151000
     10 CE2         0.8110    0.0870   -3.6430 c1        1 INF     -0.141000
     11 CZ         -0.1530   -0.7420   -4.2050 c1        1 INF     -0.151000
     12 OXT         2.2630    0.9980    1.5740 o         1 INF     -0.560500
     13 C1         -0.8350    0.9900    2.8920 c2        1 INF      0.284000
     14 N2         -1.0320    0.6870    4.2550 n         1 INF     -0.163000
     15 O1         -1.1280    2.0510    2.4780 o         1 INF     -0.410000
     16 O2         -1.3920    1.6830    5.1310 oh        1 INF     -0.275000
     17 H          -0.4550   -0.8700    2.2360 hn        1 INF      0.239000
     18 HA         -0.5840    0.7670    0.2140 h1        1 INF      0.117000
     19 HB1         1.5890   -0.9890    0.1380 hc        1 INF      0.088500
     20 HB2         0.1820   -1.6710    0.3780 hc        1 INF      0.088500
     21 HD1        -1.1840   -2.2420   -1.4720 ha        1 INF      0.119000
     22 HD2         1.6870    0.6130   -1.8890 ha        1 INF      0.201000
     23 HE1        -1.5910   -2.2080   -3.8030 ha        1 INF      0.108500
     24 HE2         1.3430    0.7100   -4.2300 ha        1 INF      0.118000
     25 HZ         -0.3190   -0.7180   -5.2030 ha        1 INF      0.108500
     26 H2N        -1.0460   -0.1930    4.5310 hn        1 INF      0.179000
     27 H2O        -0.7460    1.7960    5.7360 ho        1 INF      0.238000
@<TRIPOS>BOND
     1    1    2 1   
     2    1   13 1   
     3    1   17 1   
     4    2    3 1   
     5    2    5 1   
     6    2   18 1   
     7    3    4 1   
     8    3   12 1   
     9    5    6 1   
    10    5   19 1   
    11    5   20 1   
    12    6    7 1   
    13    6    8 1   
    14    7   21 1   
    15    8   10 1   
    16    8   22 1   
    17    9   11 1   
    18    9   23 1   
    19   10   24 1   
    20   11   25 1   
    21   13   14 1   
    22   13   15 1   
    23   14   16 1   
    24   14   26 1   
    25   16   27 1   
@<TRIPOS>SUBSTRUCTURE
     1 INF         1 TEMP              0 ****  ****    0 ROOT
