@<TRIPOS>MOLECULE
INF
   27    27     1     0     0
SMALL
bcc


@<TRIPOS>ATOM
      1 N           0.2920   -0.7130   -1.0820 n         1 INF     -0.478900
      2 CA         -0.9240   -0.0310   -0.6640 c3        1 INF     -0.060300
      3 C          -2.0630   -0.1410   -1.7510 c         1 INF      0.905600
      4 O          -3.0860    0.5630   -1.5540 o         1 INF     -0.826300
      5 CB         -1.4960   -0.6060    0.6390 c3        1 INF     -0.037100
      6 CG         -0.6810   -0.2990    1.8440 ca        1 INF     -0.041300
      7 CD1        -0.5640    1.0220    2.3000 ca        1 INF     -0.125500
      8 CD2        -0.0440   -1.3210    2.5570 ca        1 INF     -0.125500
      9 CE1         0.1720    1.3100    3.4470 ca        1 INF     -0.137000
     10 CE2         0.6920   -1.0310    3.7050 ca        1 INF     -0.137000
     11 CZ          0.8000    0.2840    4.1540 ca        1 INF     -0.154000
     12 OXT        -1.8790   -0.9190   -2.7280 o         1 INF     -0.826300
     13 C1          1.4300    0.0270   -1.3680 c         1 INF      0.658100
     14 N2          2.5070   -0.6110   -2.1480 n         1 INF     -0.325400
     15 O1          1.6910    1.1460   -0.8600 o         1 INF     -0.651100
     16 O2          3.4060    0.2870   -2.5750 oh        1 INF     -0.467100
     17 H           0.0830   -1.4670   -1.7130 hn        1 INF      0.311500
     18 HA         -0.7040    1.0650   -0.5090 h1        1 INF      0.076700
     19 HB1        -2.5180   -0.1470    0.7550 hc        1 INF      0.063200
     20 HB2        -1.6320   -1.7140    0.5350 hc        1 INF      0.063200
     21 HD1        -1.0500    1.8310    1.7340 ha        1 INF      0.134000
     22 HD2        -0.1180   -2.3590    2.2010 ha        1 INF      0.134000
     23 HE1         0.2640    2.3490    3.7910 ha        1 INF      0.114000
     24 HE2         1.1920   -1.8410    4.2540 ha        1 INF      0.114000
     25 HZ          1.3820    0.5130    5.0570 ha        1 INF      0.111000
     26 H2N         2.1230   -1.0400   -2.9890 hn        1 INF      0.269500
     27 H2O         3.6950    0.7840   -1.7830 ho        1 INF      0.436000
@<TRIPOS>BOND
     1    1    2 1   
     2    1   13 1   
     3    1   17 1   
     4    2    3 1   
     5    2    5 1   
     6    2   18 1   
     7    3    4 1   
     8    3   12 1   
     9    5    6 1   
    10    5   19 1   
    11    5   20 1   
    12    6    7 ar  
    13    6    8 ar  
    14    7    9 ar  
    15    7   21 1   
    16    8   10 ar  
    17    8   22 1   
    18    9   11 ar  
    19    9   23 1   
    20   10   11 ar  
    21   10   24 1   
    22   11   25 1   
    23   13   14 1   
    24   13   15 2   
    25   14   16 1   
    26   14   26 1   
    27   16   27 1   
@<TRIPOS>SUBSTRUCTURE
     1 INF         1 TEMP              0 ****  ****    0 ROOT
