@<TRIPOS>MOLECULE
ING
   28    28     1     0     0
SMALL
bcc


@<TRIPOS>ATOM
      1 N          -0.0200   -0.1530   -0.0470 ns        1 ING     -0.503900
      2 CA          1.4290    0.0400    0.0340 c3        1 ING     -0.009300
      3 C           1.8790    0.1530    1.4950 c         1 ING      0.607100
      4 O           2.6420   -0.6370    2.0370 o         1 ING     -0.421000
      5 CG          1.3870    1.2690   -2.1470 ca        1 ING     -0.133300
      6 CB          1.8950    1.2780   -0.7500 c3        1 ING     -0.053100
      7 CD1         0.2690    2.0370   -2.4940 ca        1 ING     -0.136000
      8 CD2         2.0420    0.5190   -3.1310 ca        1 ING     -0.136000
      9 CE1        -0.1900    2.0520   -3.8110 ca        1 ING     -0.119500
     10 CE2         1.5790    0.5340   -4.4460 ca        1 ING     -0.119500
     11 CZ          0.4630    1.2980   -4.7870 ca        1 ING     -0.109000
     12 OXT         1.4330    1.1660    2.2830 oh        1 ING     -0.545100
     13 C1         -0.5030   -1.4350   -0.1040 c         1 ING      0.638100
     14 N1         -2.0220   -1.6080   -0.2910 nz        1 ING     -0.755400
     15 O1          0.0820   -2.5060    0.0530 o         1 ING     -0.443100
     16 H          -0.5340    0.5970   -0.4680 hn        1 ING      0.346500
     17 HA          1.9500   -0.8760   -0.3930 h1        1 ING      0.129700
     18 HB1         3.0210    1.2650   -0.7440 hc        1 ING      0.089200
     19 HB2         1.5700    2.2160   -0.2250 hc        1 ING      0.089200
     20 HD1        -0.2220    2.6710   -1.7400 ha        1 ING      0.137000
     21 HD2         2.9370   -0.0690   -2.8710 ha        1 ING      0.137000
     22 HE1        -1.0540    2.6770   -4.0840 ha        1 ING      0.152500
     23 HE2         2.1070   -0.0470   -5.2200 ha        1 ING      0.152500
     24 HZ          0.1080    1.3220   -5.8300 ha        1 ING      0.155000
     25 HN11       -2.3290   -1.2400   -1.1940 hn        1 ING      0.474133
     26 HN12       -2.2180   -2.6190   -0.2540 hn        1 ING      0.474133
     27 H2          0.9180    1.8010    1.7670 ho        1 ING      0.428000
     28 H13        -2.5380   -1.1420    0.4610 hn        1 ING      0.474133
@<TRIPOS>BOND
     1    1    2 1   
     2    1   13 1   
     3    1   16 1   
     4    2    3 1   
     5    2    6 1   
     6    2   17 1   
     7    3    4 2   
     8    3   12 1   
     9    5    6 1   
    10    5    7 ar  
    11    5    8 ar  
    12    6   18 1   
    13    6   19 1   
    14    7    9 ar  
    15    7   20 1   
    16    8   10 ar  
    17    8   21 1   
    18    9   11 ar  
    19    9   22 1   
    20   10   11 ar  
    21   10   23 1   
    22   11   24 1   
    23   12   27 1   
    24   13   14 1   
    25   13   15 2   
    26   14   25 1   
    27   14   26 1   
    28   14   28 1   
@<TRIPOS>SUBSTRUCTURE
     1 ING         1 TEMP              0 ****  ****    0 ROOT
