@<TRIPOS>MOLECULE
ING
   28    28     1     0     0
SMALL
bcc


@<TRIPOS>ATOM
      1 N          -0.0280   -0.1490   -0.0490 n         1 ING     -0.503900
      2 CA          1.4220    0.0380    0.0380 c3        1 ING     -0.009300
      3 C           1.8660    0.1520    1.5010 c         1 ING      0.607100
      4 O           2.6220   -0.6410    2.0470 o         1 ING     -0.421000
      5 CG          1.3950    1.2640   -2.1450 ca        1 ING     -0.133300
      6 CB          1.8950    1.2730   -0.7450 c3        1 ING     -0.053100
      7 CD1         0.2800    2.0360   -2.4980 ca        1 ING     -0.136000
      8 CD2         2.0510    0.5110   -3.1250 ca        1 ING     -0.136000
      9 CE1        -0.1720    2.0500   -3.8170 ca        1 ING     -0.119500
     10 CE2         1.5940    0.5250   -4.4420 ca        1 ING     -0.119500
     11 CZ          0.4820    1.2930   -4.7890 ca        1 ING     -0.109000
     12 OXT         1.4200    1.1670    2.2860 oh        1 ING     -0.545100
     13 C1         -0.5160   -1.4290   -0.1060 c         1 ING      0.638100
     14 N1         -2.0350   -1.5960   -0.2990 n4        1 ING     -0.755400
     15 O1          0.0640   -2.5020    0.0560 o         1 ING     -0.443100
     16 H           0.9090    1.8040    1.7670 ho        1 ING      0.428000
     17 HA          1.9400   -0.8810   -0.3850 h1        1 ING      0.129700
     18 HB1         3.0210    1.2560   -0.7340 hc        1 ING      0.089200
     19 HB2         1.5720    2.2140   -0.2240 hc        1 ING      0.089200
     20 HD1        -0.2120    2.6720   -1.7470 ha        1 ING      0.137000
     21 HD2         2.9420   -0.0800   -2.8590 ha        1 ING      0.137000
     22 HE1        -1.0330    2.6780   -4.0950 ha        1 ING      0.152500
     23 HE2         2.1230   -0.0590   -5.2120 ha        1 ING      0.152500
     24 HZ          0.1320    1.3160   -5.8340 ha        1 ING      0.155000
     25 HN11       -2.2350   -2.6070   -0.2610 hn        1 ING      0.474133
     26 HN12       -2.3360   -1.2280   -1.2050 hn        1 ING      0.474133
     27 H2         -0.5370    0.6020   -0.4730 hn        1 ING      0.346500
     28 H13        -2.5520   -1.1260    0.4490 hn        1 ING      0.474133
@<TRIPOS>BOND
     1    1    2 1   
     2    1   13 1   
     3    1   27 1   
     4    2    3 1   
     5    2    6 1   
     6    2   17 1   
     7    3    4 2   
     8    3   12 1   
     9    5    6 1   
    10    5    7 ar  
    11    5    8 ar  
    12    6   18 1   
    13    6   19 1   
    14    7    9 ar  
    15    7   20 1   
    16    8   10 ar  
    17    8   21 1   
    18    9   11 ar  
    19    9   22 1   
    20   10   11 ar  
    21   10   23 1   
    22   11   24 1   
    23   12   16 1   
    24   13   14 1   
    25   13   15 2   
    26   14   25 1   
    27   14   26 1   
    28   14   28 1   
@<TRIPOS>SUBSTRUCTURE
     1 ING         1 TEMP              0 ****  ****    0 ROOT
