@<TRIPOS>MOLECULE
ING
   26    26     1     0     0
SMALL
bcc


@<TRIPOS>ATOM
      1 N           0.8670    0.2860   -1.1590 n         1 ING     -0.490900
      2 CA         -0.5630    0.0470   -1.0120 c3        1 ING     -0.068300
      3 C          -1.3780    0.5160   -2.2800 c         1 ING      0.905600
      4 O          -2.5760    0.1380   -2.3410 o         1 ING     -0.827800
      5 CG         -0.6610    0.4660    1.5310 ca        1 ING     -0.040300
      6 CB         -1.1630    0.8080    0.1750 c3        1 ING     -0.034100
      7 CD1        -0.8190    1.4080    2.5610 ca        1 ING     -0.135000
      8 CD2        -0.0740   -0.7680    1.8350 ca        1 ING     -0.135000
      9 CE1        -0.4080    1.1210    3.8600 ca        1 ING     -0.140000
     10 CE2         0.3370   -1.0540    3.1370 ca        1 ING     -0.140000
     11 CZ          0.1710   -0.1140    4.1530 ca        1 ING     -0.161000
     12 OXT        -0.7900    1.2400   -3.1310 o         1 ING     -0.827800
     13 C1          1.7320   -0.8150   -1.2220 c         1 ING      0.727100
     14 N1          2.9950   -0.6700   -1.8330 n         1 ING     -0.656000
     15 O1          1.4710   -1.9320   -0.6990 o         1 ING     -0.681100
     16 H           1.0280    0.9990   -1.8520 hn        1 ING      0.307500
     17 HA         -0.7550   -1.0560   -0.8800 h1        1 ING      0.075700
     18 HB1        -1.0310    1.9110    0.0010 hc        1 ING      0.064200
     19 HB2        -2.2700    0.5970    0.1420 hc        1 ING      0.064200
     20 HD1        -1.2730    2.3830    2.3340 ha        1 ING      0.148000
     21 HD2         0.0850   -1.5130    1.0350 ha        1 ING      0.148000
     22 HE1        -0.5390    1.8680    4.6540 ha        1 ING      0.113500
     23 HE2         0.7980   -2.0270    3.3580 ha        1 ING      0.113500
     24 HZ          0.4950   -0.3430    5.1770 ha        1 ING      0.109000
     25 HN11        3.6620   -1.3510   -1.5590 hn        1 ING      0.281000
     26 HN12        3.3490    0.2420   -1.9830 hn        1 ING      0.281000
@<TRIPOS>BOND
     1    1    2 1   
     2    1   13 1   
     3    1   16 1   
     4    2    3 1   
     5    2    6 1   
     6    2   17 1   
     7    3    4 1   
     8    3   12 1   
     9    5    6 1   
    10    5    7 ar  
    11    5    8 ar  
    12    6   18 1   
    13    6   19 1   
    14    7    9 ar  
    15    7   20 1   
    16    8   10 ar  
    17    8   21 1   
    18    9   11 ar  
    19    9   22 1   
    20   10   11 ar  
    21   10   23 1   
    22   11   24 1   
    23   13   14 1   
    24   13   15 2   
    25   14   25 1   
    26   14   26 1   
@<TRIPOS>SUBSTRUCTURE
     1 ING         1 TEMP              0 ****  ****    0 ROOT
