@<TRIPOS>MOLECULE
ING
   28    28     1     0     0
SMALL
bcc


@<TRIPOS>ATOM
      1 N          -0.0410   -0.1410   -0.0520 n         1 ING     -0.503900
      2 CA          1.4120    0.0160    0.0390 c3        1 ING     -0.009300
      3 C           1.8560    0.1150    1.5020 c         1 ING      0.607100
      4 O           2.5950   -0.6960    2.0470 o         1 ING     -0.421000
      5 CG          1.4140    1.2500   -2.1400 ca        1 ING     -0.133300
      6 CB          1.9130    1.2440   -0.7400 c3        1 ING     -0.053100
      7 CD1         0.3170    2.0460   -2.4920 ca        1 ING     -0.136000
      8 CD2         2.0560    0.4860   -3.1210 ca        1 ING     -0.136000
      9 CE1        -0.1340    2.0750   -3.8110 ca        1 ING     -0.119500
     10 CE2         1.6020    0.5150   -4.4390 ca        1 ING     -0.119500
     11 CZ          0.5070    1.3080   -4.7860 ca        1 ING     -0.109000
     12 OXT         1.4300    1.1360    2.2910 oh        1 ING     -0.545100
     13 C1         -0.5540   -1.4110   -0.1150 c         1 ING      0.638100
     14 N1         -2.0770   -1.5460   -0.3120 n4        1 ING     -0.755400
     15 O1          0.0030   -2.4970    0.0420 o         1 ING     -0.443100
     16 H           0.9340    1.7850    1.7730 ho        1 ING      0.428000
     17 HA          1.9130   -0.9120   -0.3880 h1        1 ING      0.129700
     18 HB1         3.0380    1.2030   -0.7270 hc        1 ING      0.089200
     19 HB2         1.6080    2.1890   -0.2150 hc        1 ING      0.089200
     20 HD1        -0.1630    2.6900   -1.7400 ha        1 ING      0.137000
     21 HD2         2.9340   -0.1230   -2.8570 ha        1 ING      0.137000
     22 HE1        -0.9810    2.7210   -4.0890 ha        1 ING      0.152500
     23 HE2         2.1200   -0.0770   -5.2110 ha        1 ING      0.152500
     24 HZ          0.1590    1.3420   -5.8300 ha        1 ING      0.155000
     25 HN11       -2.2970   -2.5530   -0.2790 hn        1 ING      0.474133
     26 HN12       -2.3690   -1.1670   -1.2150 hn        1 ING      0.474133
     27 H2         -0.5340    0.6220   -0.4730 hn        1 ING      0.346500
     28 H13        -2.5850   -1.0700    0.4390 hn        1 ING      0.474133
@<TRIPOS>BOND
     1    1    2 1   
     2    1   13 1   
     3    1   27 1   
     4    2    3 1   
     5    2    6 1   
     6    2   17 1   
     7    3    4 2   
     8    3   12 1   
     9    5    6 1   
    10    5    7 ar  
    11    5    8 ar  
    12    6   18 1   
    13    6   19 1   
    14    7    9 ar  
    15    7   20 1   
    16    8   10 ar  
    17    8   21 1   
    18    9   11 ar  
    19    9   22 1   
    20   10   11 ar  
    21   10   23 1   
    22   11   24 1   
    23   12   16 1   
    24   13   14 1   
    25   13   15 2   
    26   14   25 1   
    27   14   26 1   
    28   14   28 1   
@<TRIPOS>SUBSTRUCTURE
     1 ING         1 TEMP              0 ****  ****    0 ROOT
