@<TRIPOS>MOLECULE
INH
   69    70     1     0     0
SMALL
bcc


@<TRIPOS>ATOM
      1 C1         -1.4340    4.0040    0.9880 c3        1 INH     -0.110100
      2 C2         -0.5570    2.7870    0.7040 c3        1 INH      0.096500
      3 C3          0.9240    3.2170    0.7750 c         1 INH      0.917600
      4 O4          1.3240    4.3080    0.2750 o         1 INH     -0.873300
      5 O5          1.7500    2.4430    1.3730 o         1 INH     -0.873300
      6 N6         -0.8120    2.1510   -0.5790 n3        1 INH     -0.847200
      7 C7         -1.3500    0.8040   -0.5360 c3        1 INH      0.130500
      8 C8         -2.5260    0.5650   -1.4930 c3        1 INH     -0.087400
      9 C9         -3.8020    1.2320   -1.0160 c3        1 INH     -0.041100
     10 C10        -4.4170    0.5360    0.1480 ca        1 INH     -0.083300
     11 C11        -4.4590    1.1490    1.4050 ca        1 INH     -0.128500
     12 C12        -5.0530    0.4990    2.4870 ca        1 INH     -0.127000
     13 C13        -5.6090   -0.7690    2.3220 ca        1 INH     -0.131000
     14 C14        -5.5700   -1.3860    1.0710 ca        1 INH     -0.127000
     15 C15        -4.9790   -0.7370   -0.0110 ca        1 INH     -0.128500
     16 C16        -0.2240   -0.2040   -0.8870 c         1 INH      0.659100
     17 O17        -0.3840   -1.1000   -1.7440 o         1 INH     -0.650100
     18 N18         0.9500   -0.1160   -0.1680 n         1 INH     -0.553900
     19 C19         2.1600   -0.7410   -0.6440 c3        1 INH      0.038700
     20 C20         3.4090    0.1110   -0.3710 c3        1 INH     -0.080400
     21 C21         3.4060    1.3800   -1.1930 c3        1 INH     -0.121400
     22 C22         4.4970    2.3610   -0.7530 c3        1 INH      0.013300
     23 N23         4.0550    3.4690    0.0640 nh        1 INH     -0.365100
     24 C24         3.8920    3.3910    1.4470 cz        1 INH      0.542300
     25 N25         4.4900    2.3810    2.1940 nh        1 INH     -0.463700
     26 N26         3.4280    4.5300    2.1160 nh        1 INH     -0.463700
     27 C27         2.3730   -2.1340    0.0170 c         1 INH      0.656100
     28 O28         3.3540   -2.3360    0.7560 o         1 INH     -0.615100
     29 N29         1.4270   -3.0860   -0.3060 n         1 INH     -0.458100
     30 C30         1.3600   -4.4120    0.1490 ca        1 INH      0.071600
     31 C31         2.3230   -4.9900    1.0030 ca        1 INH     -0.171000
     32 C32         2.1920   -6.3160    1.4070 ca        1 INH     -0.107000
     33 C33         1.1190   -7.0930    0.9810 ca        1 INH     -0.161000
     34 C34         0.1610   -6.5320    0.1370 ca        1 INH     -0.107000
     35 C35         0.2690   -5.2110   -0.2790 ca        1 INH     -0.171000
     36 H36        -2.5170    3.7430    0.9160 hc        1 INH      0.041700
     37 H37        -1.2210    4.3740    2.0190 hc        1 INH      0.041700
     38 H38        -1.2020    4.8250    0.2670 hc        1 INH      0.041700
     39 H39        -0.7080    2.0410    1.5420 h1        1 INH      0.054700
     40 H40        -1.3280    2.7450   -1.1950 hn        1 INH      0.386800
     41 H41        -1.7030    0.5240    0.5050 h1        1 INH      0.069700
     42 H42        -2.2660    0.9390   -2.5180 hc        1 INH      0.068700
     43 H43        -2.6890   -0.5430   -1.5790 hc        1 INH      0.068700
     44 H44        -3.6020    2.3060   -0.7580 hc        1 INH      0.050200
     45 H45        -4.5400    1.2300   -1.8650 hc        1 INH      0.050200
     46 H46        -4.0220    2.1510    1.5410 ha        1 INH      0.132000
     47 H47        -5.0810    0.9890    3.4710 ha        1 INH      0.131500
     48 H48        -6.0760   -1.2810    3.1750 ha        1 INH      0.131000
     49 H49        -6.0080   -2.3860    0.9380 ha        1 INH      0.131500
     50 H50        -4.9490   -1.2250   -0.9960 ha        1 INH      0.132000
     51 H51         1.0730    0.6410    0.4800 hn        1 INH      0.359500
     52 H52         2.0770   -0.9130   -1.7620 h1        1 INH      0.082700
     53 H53         3.4380    0.3450    0.7250 hc        1 INH      0.060700
     54 H54         4.3130   -0.5070   -0.6100 hc        1 INH      0.060700
     55 H55         3.5830    1.1210   -2.2700 hc        1 INH      0.075200
     56 H56         2.4000    1.8810   -1.1310 hc        1 INH      0.075200
     57 H57         5.3410    1.8080   -0.2540 h1        1 INH      0.064700
     58 H58         4.9280    2.8490   -1.6780 h1        1 INH      0.064700
     59 H59         3.3410    4.0360   -0.3830 hn        1 INH      0.330700
     60 H60         4.6900    1.5230    1.7280 hn        1 INH      0.292700
     61 H61         4.1880    2.2810    3.1390 hn        1 INH      0.292700
     62 H62         3.1260    4.3840    3.0550 hn        1 INH      0.292700
     63 H63         2.7960    5.1040    1.5780 hn        1 INH      0.292700
     64 H64         0.6760   -2.7950   -0.9050 hn        1 INH      0.348500
     65 H65         3.1840   -4.4010    1.3590 ha        1 INH      0.152000
     66 H66         2.9530   -6.7500    2.0740 ha        1 INH      0.129500
     67 H67         1.0260   -8.1390    1.3060 ha        1 INH      0.130000
     68 H68        -0.6920   -7.1380   -0.2050 ha        1 INH      0.129500
     69 H69        -0.5010   -4.7920   -0.9450 ha        1 INH      0.152000
@<TRIPOS>BOND
     1    1    2 1   
     2    1   36 1   
     3    1   37 1   
     4    1   38 1   
     5    2    3 1   
     6    2    6 1   
     7    2   39 1   
     8    3    4 1   
     9    3    5 1   
    10    6    7 1   
    11    6   40 1   
    12    7    8 1   
    13    7   16 1   
    14    7   41 1   
    15    8    9 1   
    16    8   42 1   
    17    8   43 1   
    18    9   10 1   
    19    9   44 1   
    20    9   45 1   
    21   10   11 ar  
    22   10   15 ar  
    23   11   12 ar  
    24   11   46 1   
    25   12   13 ar  
    26   12   47 1   
    27   13   14 ar  
    28   13   48 1   
    29   14   15 ar  
    30   14   49 1   
    31   15   50 1   
    32   16   17 2   
    33   16   18 1   
    34   18   19 1   
    35   18   51 1   
    36   19   20 1   
    37   19   27 1   
    38   19   52 1   
    39   20   21 1   
    40   20   53 1   
    41   20   54 1   
    42   21   22 1   
    43   21   55 1   
    44   21   56 1   
    45   22   23 1   
    46   22   57 1   
    47   22   58 1   
    48   23   24 2   
    49   23   59 1   
    50   24   25 1   
    51   24   26 1   
    52   25   60 1   
    53   25   61 1   
    54   26   62 1   
    55   26   63 1   
    56   27   28 2   
    57   27   29 1   
    58   29   30 1   
    59   29   64 1   
    60   30   31 ar  
    61   30   35 ar  
    62   31   32 ar  
    63   31   65 1   
    64   32   33 ar  
    65   32   66 1   
    66   33   34 ar  
    67   33   67 1   
    68   34   35 ar  
    69   34   68 1   
    70   35   69 1   
@<TRIPOS>SUBSTRUCTURE
     1 INH         1 TEMP              0 ****  ****    0 ROOT
