@<TRIPOS>MOLECULE
INI
   35    35     1     0     0
SMALL
bcc


@<TRIPOS>ATOM
      1 N1          0.0690    0.2370    0.0310 n         1 INI     -0.496100
      2 C2          1.4750    0.4180    0.0190 c         1 INI      0.822500
      3 O2          2.0300    0.6690   -1.0700 o         1 INI     -0.624500
      4 N3          2.1650    0.2980    1.2170 n         1 INI     -0.584500
      5 C4          1.5300    0.0120    2.4450 c         1 INI      0.750700
      6 O4          2.2570   -0.1500    3.4340 o         1 INI     -0.567500
      7 C5          0.0630   -0.0800    2.4260 cc        1 INI     -0.474300
      8 N5         -0.5840   -0.2480    3.7230 no        1 INI      0.342100
      9 O51         0.0230    0.0220    4.7210 o         1 INI     -0.223000
     10 O52        -1.7260   -0.6510    3.7840 o         1 INI     -0.223000
     11 C6         -0.6590    0.0000    1.1990 cd        1 INI      0.437600
     12 N7         -2.0210   -0.0970    1.1230 nh        1 INI     -0.745000
     13 C8         -2.7620   -0.0080   -0.1110 c3        1 INI      0.197800
     14 C9         -4.2870   -0.0570    0.1190 c3        1 INI      0.158100
     15 O9         -4.5660   -1.3000    0.7360 oh        1 INI     -0.604800
     16 C10        -5.0270    0.0220   -1.2340 c3        1 INI      0.107100
     17 O10        -4.2930    0.9040   -2.0690 oh        1 INI     -0.599800
     18 C11        -6.4590    0.5570   -1.0450 c3        1 INI      0.108100
     19 O11        -6.9800   -0.0350    0.1330 oh        1 INI     -0.617800
     20 C12        -7.3330    0.1980   -2.2530 c3        1 INI      0.090400
     21 O12        -8.6160    0.7320   -1.9730 oh        1 INI     -0.606800
     22 HN1        -0.3840    0.3170   -0.8560 hn        1 INI      0.359500
     23 HN3         3.1580    0.3960    1.1950 hn        1 INI      0.363500
     24 HN7        -2.5230   -0.4530    1.9210 hn        1 INI      0.507800
     25 H81        -2.4850   -0.8590   -0.7980 h1        1 INI      0.070200
     26 H82        -2.5330    0.9710   -0.6260 h1        1 INI      0.070200
     27 H9         -4.6180    0.7950    0.7760 h1        1 INI      0.068700
     28 HO9        -5.4880   -1.2790    1.0300 ho        1 INI      0.440000
     29 H10        -5.0590   -1.0060   -1.6910 h1        1 INI      0.062700
     30 HO1        -4.7610    0.9530   -2.9120 ho        1 INI      0.412000
     31 H11        -6.4330    1.6770   -0.9200 h1        1 INI      0.068700
     32 HO2        -7.9120    0.2190    0.1860 ho        1 INI      0.439000
     33 H121       -7.3920   -0.9150   -2.3760 h1        1 INI      0.036700
     34 H122       -6.9170    0.6600   -3.1870 h1        1 INI      0.036700
     35 HO3        -9.2040    0.4390   -2.6790 ho        1 INI      0.417000
@<TRIPOS>BOND
     1    1    2 1   
     2    1   11 1   
     3    1   22 1   
     4    2    3 2   
     5    2    4 1   
     6    4    5 1   
     7    4   23 1   
     8    5    6 2   
     9    5    7 1   
    10    7    8 1   
    11    7   11 2   
    12    8    9 1   
    13    8   10 1   
    14   11   12 1   
    15   12   13 1   
    16   12   24 1   
    17   13   14 1   
    18   13   25 1   
    19   13   26 1   
    20   14   15 1   
    21   14   16 1   
    22   14   27 1   
    23   15   28 1   
    24   16   17 1   
    25   16   18 1   
    26   16   29 1   
    27   17   30 1   
    28   18   19 1   
    29   18   20 1   
    30   18   31 1   
    31   19   32 1   
    32   20   21 1   
    33   20   33 1   
    34   20   34 1   
    35   21   35 1   
@<TRIPOS>SUBSTRUCTURE
     1 INI         1 TEMP              0 ****  ****    0 ROOT
