@<TRIPOS>MOLECULE
INI
   35    35     1     0     0
SMALL
bcc


@<TRIPOS>ATOM
      1 N1          0.0690    0.2410    0.0290 ns        1 INI     -0.496100
      2 C2          1.4750    0.4240    0.0180 c         1 INI      0.822500
      3 O2          2.0280    0.6840   -1.0700 o         1 INI     -0.624500
      4 N3          2.1650    0.2950    1.2140 ns        1 INI     -0.584500
      5 C4          1.5320   -0.0010    2.4400 c         1 INI      0.750700
      6 O4          2.2600   -0.1710    3.4270 o         1 INI     -0.567500
      7 C5          0.0650   -0.0950    2.4220 cc        1 INI     -0.474300
      8 N5         -0.5810   -0.2740    3.7180 no        1 INI      0.342100
      9 O51         0.0270   -0.0110    4.7180 o         1 INI     -0.223000
     10 O52        -1.7220   -0.6790    3.7770 o         1 INI     -0.223000
     11 C6         -0.6570   -0.0060    1.1960 cd        1 INI      0.437600
     12 N7         -2.0200   -0.1050    1.1210 nu        1 INI     -0.745000
     13 C8         -2.7620   -0.0060   -0.1120 c3        1 INI      0.197800
     14 C9         -4.2870   -0.0580    0.1190 c3        1 INI      0.158100
     15 O9         -4.5640   -1.3070    0.7250 oh        1 INI     -0.604800
     16 C10        -5.0280    0.0310   -1.2330 c3        1 INI      0.107100
     17 O10        -4.2960    0.9210   -2.0620 oh        1 INI     -0.599800
     18 C11        -6.4600    0.5630   -1.0380 c3        1 INI      0.108100
     19 O11        -6.9800   -0.0410    0.1350 oh        1 INI     -0.617800
     20 C12        -7.3350    0.2130   -2.2480 c3        1 INI      0.090400
     21 O12        -8.6180    0.7430   -1.9620 oh        1 INI     -0.606800
     22 HN1        -0.3850    0.3280   -0.8560 hn        1 INI      0.359500
     23 HN3         3.1590    0.3950    1.1920 hn        1 INI      0.363500
     24 HN7        -2.5210   -0.4670    1.9160 hn        1 INI      0.507800
     25 H81        -2.5350    0.9770   -0.6200 h1        1 INI      0.070200
     26 H82        -2.4840   -0.8510   -0.8060 h1        1 INI      0.070200
     27 H9         -4.6180    0.7870    0.7830 h1        1 INI      0.068700
     28 HO9        -5.4850   -1.2900    1.0200 ho        1 INI      0.440000
     29 H10        -5.0590   -0.9940   -1.6990 h1        1 INI      0.062700
     30 HO1        -4.7650    0.9770   -2.9030 ho        1 INI      0.412000
     31 H11        -6.4360    1.6810   -0.9030 h1        1 INI      0.068700
     32 HO2        -7.9120    0.2120    0.1910 ho        1 INI      0.439000
     33 H121       -6.9210    0.6840   -3.1780 h1        1 INI      0.036700
     34 H122       -7.3930   -0.8990   -2.3810 h1        1 INI      0.036700
     35 HO3        -9.2070    0.4560   -2.6700 ho        1 INI      0.417000
@<TRIPOS>BOND
     1    1    2 1   
     2    1   11 1   
     3    1   22 1   
     4    2    3 2   
     5    2    4 1   
     6    4    5 1   
     7    4   23 1   
     8    5    6 2   
     9    5    7 1   
    10    7    8 1   
    11    7   11 2   
    12    8    9 1   
    13    8   10 1   
    14   11   12 1   
    15   12   13 1   
    16   12   24 1   
    17   13   14 1   
    18   13   25 1   
    19   13   26 1   
    20   14   15 1   
    21   14   16 1   
    22   14   27 1   
    23   15   28 1   
    24   16   17 1   
    25   16   18 1   
    26   16   29 1   
    27   17   30 1   
    28   18   19 1   
    29   18   20 1   
    30   18   31 1   
    31   19   32 1   
    32   20   21 1   
    33   20   33 1   
    34   20   34 1   
    35   21   35 1   
@<TRIPOS>SUBSTRUCTURE
     1 INI         1 TEMP              0 ****  ****    0 ROOT
