@<TRIPOS>MOLECULE
INI
   35    35     1     0     0
SMALL
bcc


@<TRIPOS>ATOM
      1 N1          1.5980    0.2600   -1.9000 n         1 INI     -0.496100
      2 C2          2.2240    0.3420   -3.1700 c         1 INI      0.822500
      3 O2          3.4600    0.5020   -3.2080 o         1 INI     -0.621500
      4 N3          1.4290    0.2480   -4.3030 n         1 INI     -0.583500
      5 C4          0.0300    0.0670   -4.2480 c         1 INI      0.750700
      6 O4         -0.5860    0.0770   -5.3220 o         1 INI     -0.564500
      7 C5         -0.5640   -0.1020   -2.9130 cc        1 INI     -0.471300
      8 N5         -1.9880   -0.4220   -2.8830 no        1 INI      0.342100
      9 O51        -2.5120   -0.8590   -3.8690 o         1 INI     -0.220500
     10 O52        -2.6260   -0.2510   -1.8670 o         1 INI     -0.220500
     11 C6          0.2290    0.0380   -1.7380 cd        1 INI      0.437600
     12 N7         -0.2810   -0.0680   -0.4730 nh        1 INI     -0.752000
     13 C8          0.5140    0.0260    0.7250 c3        1 INI      0.162800
     14 C9         -0.3140   -0.2670    1.9970 c3        1 INI      0.111100
     15 O9         -1.3890    0.6330    2.1180 oh        1 INI     -0.585800
     16 C10         0.6420   -0.2550    3.2070 c3        1 INI      0.105100
     17 O10         1.2740   -1.5120    3.3350 oh        1 INI     -0.585800
     18 C11        -0.1050    0.1450    4.4920 c3        1 INI      0.113100
     19 O11        -0.2650    1.5550    4.4220 oh        1 INI     -0.615800
     20 C12         0.7030   -0.2360    5.7370 c3        1 INI      0.098400
     21 O12        -0.0510    0.2340    6.8420 oh        1 INI     -0.612800
     22 HN1         2.2070    0.3490   -1.1130 hn        1 INI      0.357500
     23 HN3         1.8730    0.3370   -5.1930 hn        1 INI      0.364500
     24 HN7        -1.2800   -0.0770   -0.3500 hn        1 INI      0.510800
     25 H81         0.9520    1.0620    0.8130 h1        1 INI      0.060700
     26 H82         1.3570   -0.7250    0.6960 h1        1 INI      0.060700
     27 H9         -0.8080   -1.2800    1.9130 h1        1 INI      0.089700
     28 HO9        -1.0450    1.4850    2.4230 ho        1 INI      0.431000
     29 H10         1.4900    0.4690    3.0380 h1        1 INI      0.096700
     30 HO1         0.5950   -2.1620    3.5620 ho        1 INI      0.409000
     31 H11        -1.1170   -0.3460    4.5270 h1        1 INI      0.066700
     32 HO2        -0.6850    1.8260    5.2500 ho        1 INI      0.437000
     33 H121        1.7100    0.2560    5.7100 h1        1 INI      0.043700
     34 H122        0.8300   -1.3490    5.7950 h1        1 INI      0.043700
     35 HO3         0.4830    0.0820    7.6300 ho        1 INI      0.416000
@<TRIPOS>BOND
     1    1    2 1   
     2    1   11 1   
     3    1   22 1   
     4    2    3 2   
     5    2    4 1   
     6    4    5 1   
     7    4   23 1   
     8    5    6 2   
     9    5    7 1   
    10    7    8 1   
    11    7   11 2   
    12    8    9 1   
    13    8   10 1   
    14   11   12 1   
    15   12   13 1   
    16   12   24 1   
    17   13   14 1   
    18   13   25 1   
    19   13   26 1   
    20   14   15 1   
    21   14   16 1   
    22   14   27 1   
    23   15   28 1   
    24   16   17 1   
    25   16   18 1   
    26   16   29 1   
    27   17   30 1   
    28   18   19 1   
    29   18   20 1   
    30   18   31 1   
    31   19   32 1   
    32   20   21 1   
    33   20   33 1   
    34   20   34 1   
    35   21   35 1   
@<TRIPOS>SUBSTRUCTURE
     1 INI         1 TEMP              0 ****  ****    0 ROOT
