@<TRIPOS>MOLECULE
INJ
   51    48     1     0     0
SMALL
bcc


@<TRIPOS>ATOM
      1 N1          1.5790   -0.0810   -2.0710 n1        1 INJ     -0.612800
      2 C2          2.9460   -0.0680   -2.1000 c1        1 INJ      0.543400
      3 O2          3.6390   -0.0120   -3.3550 oh        1 INJ     -0.477600
      4 N3          3.6670   -0.0940   -0.9130 n1        1 INJ     -0.742800
      5 C4          3.0260   -0.1310    0.2630 c1        1 INJ      0.188600
      6 O4          3.7520    0.0490    1.4540 oh        1 INJ     -0.486600
      7 C5          1.6390   -0.1440    0.2980 c1        1 INJ     -0.225100
      8 C6          0.9240   -0.1180   -0.8800 c1        1 INJ      0.598600
      9 N7         -0.5690   -0.0380   -0.8530 n3        1 INJ     -0.666800
     10 C8         -1.3240   -0.3350   -2.0500 c3        1 INJ      0.166800
     11 C9         -1.9290    0.9220   -2.5900 c3        1 INJ      0.130100
     12 O9         -2.7100    1.5340   -1.5910 oh        1 INJ     -0.671800
     13 C10        -2.8220    0.5770   -3.8010 c3        1 INJ      0.112100
     14 O10        -2.1570   -0.3230   -4.6280 oh        1 INJ     -0.660800
     15 C11        -3.1340    1.8220   -4.5690 c3        1 INJ      0.101100
     16 O11        -3.9660    2.6580   -3.7940 oh        1 INJ     -0.650800
     17 C12        -3.8620    1.4470   -5.8910 c3        1 INJ      0.111400
     18 O12        -4.1420    2.6390   -6.6440 oh        1 INJ     -0.635800
     19 C13         0.9030    0.0330    1.6630 c3        1 INJ     -0.074300
     20 C14         1.2930   -1.1430    2.6180 c3        1 INJ     -0.060400
     21 C15         0.8370   -0.8100    4.0630 c3        1 INJ     -0.065400
     22 C16         1.8650   -1.3800    5.0770 c3        1 INJ     -0.026400
     23 C17         1.2640   -1.3610    6.4660 c3        1 INJ     -0.300600
     24 P           2.5410   -1.8630    7.6970 p5        1 INJ      1.261700
     25 O1P         3.6290   -0.8120    7.7530 o         1 INJ     -0.944500
     26 O2P         3.1460   -3.1870    7.2870 o         1 INJ     -0.944500
     27 O3P         1.9060   -2.0010    9.0490 o         1 INJ     -0.944500
     28 HO2         4.3520   -0.5570   -3.3270 ho        1 INJ      0.413000
     29 HO4         4.6230    0.1930    1.2550 ho        1 INJ      0.409000
     30 HN7        -1.0180    0.1770   -0.0500 hn        1 INJ      0.549800
     31 H81        -2.0180   -0.9600   -1.8430 h1        1 INJ      0.081200
     32 H82        -0.7030   -0.7380   -2.7490 h1        1 INJ      0.081200
     33 H91        -1.1850    1.5610   -2.8840 h1        1 INJ      0.035700
     34 HO9        -2.4120    2.3540   -1.4420 ho        1 INJ      0.489000
     35 H101       -3.5950    0.2020   -3.5060 h1        1 INJ      0.085700
     36 HO1O       -2.6800   -1.0340   -4.7760 ho        1 INJ      0.494000
     37 H111       -2.3060    2.2890   -4.7760 h1        1 INJ      0.053700
     38 HO11       -3.9870    3.4870   -4.1620 ho        1 INJ      0.440000
     39 H121       -3.2570    0.8180   -6.4530 h1        1 INJ      0.052700
     40 H122       -4.7330    0.9750   -5.6720 h1        1 INJ      0.052700
     41 HO12       -4.1930    2.4300   -7.5520 ho        1 INJ      0.405000
     42 H131        1.1740    0.9010    2.0760 hc        1 INJ      0.084700
     43 H132       -0.0510    0.0300    1.5190 hc        1 INJ      0.084700
     44 H141        2.2470   -1.2620    2.6030 hc        1 INJ      0.015200
     45 H142        0.8400   -2.0000    2.3050 hc        1 INJ      0.015200
     46 H151       -0.0710   -1.2230    4.2350 hc        1 INJ      0.018700
     47 H152        0.7810    0.1290    4.1670 hc        1 INJ      0.018700
     48 H161        2.6800   -0.8260    5.0660 hc        1 INJ      0.017700
     49 H162        2.0900   -2.2920    4.8340 hc        1 INJ      0.017700
     50 H171        0.9520   -0.4650    6.6700 hc        1 INJ      0.032700
     51 H172        0.5300   -1.9680    6.5020 hc        1 INJ      0.032700
@<TRIPOS>BOND
     1    1    8 3   
     2    2    3 1   
     3    2    4 3   
     4    3   28 1   
     5    5    6 1   
     6    5    7 3   
     7    6   29 1   
     8    7   19 1   
     9    8    9 1   
    10    9   10 1   
    11    9   30 1   
    12   10   11 1   
    13   10   31 1   
    14   10   32 1   
    15   11   12 1   
    16   11   13 1   
    17   11   33 1   
    18   12   34 1   
    19   13   14 1   
    20   13   15 1   
    21   13   35 1   
    22   14   36 1   
    23   15   16 1   
    24   15   17 1   
    25   15   37 1   
    26   16   38 1   
    27   17   18 1   
    28   17   39 1   
    29   17   40 1   
    30   18   41 1   
    31   19   20 1   
    32   19   42 1   
    33   19   43 1   
    34   20   21 1   
    35   20   44 1   
    36   20   45 1   
    37   21   22 1   
    38   21   46 1   
    39   21   47 1   
    40   22   23 1   
    41   22   48 1   
    42   22   49 1   
    43   23   24 1   
    44   23   50 1   
    45   23   51 1   
    46   24   25 1   
    47   24   26 1   
    48   24   27 1   
@<TRIPOS>SUBSTRUCTURE
     1 INJ         1 TEMP              0 ****  ****    0 ROOT
