@<TRIPOS>MOLECULE
INJ
   51    51     1     0     0
SMALL
bcc


@<TRIPOS>ATOM
      1 N1         -1.9480   -0.2670    2.4600 n2        1 INJ     -0.693400
      2 C2         -3.0960   -0.9280    2.2430 cc        1 INJ      0.763500
      3 O2         -3.9000   -1.0500    3.3780 oh        1 INJ     -0.605600
      4 N3         -3.5920   -1.4940    1.0920 nd        1 INJ     -0.806300
      5 C4         -2.7440   -1.3410    0.0250 cd        1 INJ      0.363700
      6 O4         -3.2450   -1.9270   -1.1270 oh        1 INJ     -0.514100
      7 C5         -1.5080   -0.6910    0.0600 cc        1 INJ     -0.429800
      8 C6         -1.0860   -0.1140    1.3480 cc        1 INJ      0.698500
      9 N7          0.0770    0.5200    1.4320 n2        1 INJ     -0.775900
     10 C8          0.5050    1.1530    2.6340 c3        1 INJ      0.141800
     11 C9          0.7670    0.2520    3.8650 c3        1 INJ      0.098100
     12 O9         -0.2870    0.3240    4.8140 oh        1 INJ     -0.666800
     13 C10         2.0390    0.7050    4.6070 c3        1 INJ      0.116100
     14 O10         3.1970    0.5480    3.8030 oh        1 INJ     -0.608800
     15 C11         2.2620   -0.0290    5.9420 c3        1 INJ      0.090100
     16 O11         1.7300   -1.3410    5.9810 oh        1 INJ     -0.625800
     17 C12         1.6760    0.7840    7.1020 c3        1 INJ      0.095400
     18 O12         1.8380    0.1100    8.3370 oh        1 INJ     -0.623800
     19 C13        -0.6510   -0.6060   -1.1480 c3        1 INJ      0.002800
     20 C14        -1.1950    0.3550   -2.1990 c3        1 INJ     -0.087400
     21 C15        -1.0820   -0.1760   -3.6150 c3        1 INJ     -0.073400
     22 C16         0.3170   -0.0560   -4.1890 c3        1 INJ     -0.061400
     23 C17         0.4610   -0.7790   -5.4980 c3        1 INJ     -0.343600
     24 P           1.2120    0.1580   -6.6950 p5        1 INJ      1.344600
     25 O1P         2.7800   -0.3550   -6.5780 oh        1 INJ     -0.802400
     26 O2P         0.6910   -0.2620   -8.0200 o         1 INJ     -0.876500
     27 O3P         1.3710    1.5910   -6.3340 o         1 INJ     -0.876500
     28 HO2        -4.6980   -1.5320    3.1110 ho        1 INJ      0.416000
     29 HO4        -2.6570   -1.6740   -1.8550 ho        1 INJ      0.426000
     30 HN7         3.3580    0.3660   -6.3610 ho        1 INJ      0.416000
     31 H81        -0.2040    1.9640    2.9740 h1        1 INJ      0.026200
     32 H82         1.4840    1.6490    2.3660 h1        1 INJ      0.026200
     33 H91         0.8950   -0.8240    3.5490 h1        1 INJ      0.044700
     34 HO9        -1.1190    0.2270    4.3180 ho        1 INJ      0.468000
     35 H101        1.9810    1.8120    4.8100 h1        1 INJ      0.066700
     36 HO1O        3.0460   -0.1980    3.2080 ho        1 INJ      0.415000
     37 H111        3.3690   -0.1830    6.0990 h1        1 INJ      0.075700
     38 HO11        0.7880   -1.2850    5.7600 ho        1 INJ      0.430000
     39 H121        0.5840    0.9740    6.9160 h1        1 INJ      0.055700
     40 H122        2.2210    1.7560    7.2230 h1        1 INJ      0.055700
     41 HO12        1.6190   -0.8190    8.1780 ho        1 INJ      0.409000
     42 H131        0.3910   -0.2920   -0.8790 hc        1 INJ      0.041200
     43 H132       -0.5540   -1.6360   -1.5960 hc        1 INJ      0.041200
     44 H141       -2.2770    0.5680   -1.9840 hc        1 INJ      0.036700
     45 H142       -0.6500    1.3310   -2.1230 hc        1 INJ      0.036700
     46 H151       -1.4050   -1.2520   -3.6420 hc        1 INJ      0.019700
     47 H152       -1.7930    0.3920   -4.2730 hc        1 INJ      0.019700
     48 H161        0.5670    1.0330   -4.3370 hc        1 INJ      0.053200
     49 H162        1.0370   -0.4610   -3.4260 hc        1 INJ      0.053200
     50 H171        1.0420   -1.7220   -5.3470 hc        1 INJ      0.063200
     51 H172       -0.5420   -1.0980   -5.8800 hc        1 INJ      0.063200
@<TRIPOS>BOND
     1    1    2 1   
     2    1    8 1   
     3    2    3 1   
     4    2    4 2   
     5    3   28 1   
     6    4    5 1   
     7    5    6 1   
     8    5    7 2   
     9    6   29 1   
    10    7    8 1   
    11    7   19 1   
    12    8    9 2   
    13    9   10 1   
    14   10   11 1   
    15   10   31 1   
    16   10   32 1   
    17   11   12 1   
    18   11   13 1   
    19   11   33 1   
    20   12   34 1   
    21   13   14 1   
    22   13   15 1   
    23   13   35 1   
    24   14   36 1   
    25   15   16 1   
    26   15   17 1   
    27   15   37 1   
    28   16   38 1   
    29   17   18 1   
    30   17   39 1   
    31   17   40 1   
    32   18   41 1   
    33   19   20 1   
    34   19   42 1   
    35   19   43 1   
    36   20   21 1   
    37   20   44 1   
    38   20   45 1   
    39   21   22 1   
    40   21   46 1   
    41   21   47 1   
    42   22   23 1   
    43   22   48 1   
    44   22   49 1   
    45   23   24 1   
    46   23   50 1   
    47   23   51 1   
    48   24   25 1   
    49   24   26 1   
    50   24   27 1   
    51   25   30 1   
@<TRIPOS>SUBSTRUCTURE
     1 INJ         1 TEMP              0 ****  ****    0 ROOT
