@<TRIPOS>MOLECULE
INJ
   51    51     1     0     0
SMALL
bcc


@<TRIPOS>ATOM
      1 N1          0.2130   -0.3410   -0.0730 nb        1 INJ     -0.795000
      2 C2          1.5660   -0.3890   -0.1850 ca        1 INJ      0.895300
      3 O2          2.0110   -0.5580   -1.4880 oh        1 INJ     -0.605300
      4 N3          2.5220   -0.2980    0.7930 nb        1 INJ     -0.920000
      5 C4          2.0090   -0.1440    2.0530 ca        1 INJ      0.683600
      6 O4          2.9030   -0.0640    3.1020 oh        1 INJ     -0.619300
      7 C5          0.6420   -0.0760    2.3550 ca        1 INJ     -0.411900
      8 C6         -0.2670   -0.1730    1.2220 ca        1 INJ      0.742200
      9 N7         -1.6060   -0.1250    1.4400 nh        1 INJ     -0.808900
     10 C8         -2.6240   -0.1560    0.4190 c3        1 INJ      0.201800
     11 C9         -3.9970    0.2320    1.0140 c3        1 INJ      0.095100
     12 O9         -4.2770   -0.6790    2.0610 oh        1 INJ     -0.666800
     13 C10        -5.1340    0.1360   -0.0190 c3        1 INJ      0.088100
     14 O10        -4.7110    0.4160   -1.3500 oh        1 INJ     -0.617800
     15 C11        -6.2280    1.1710    0.3320 c3        1 INJ      0.149100
     16 O11        -6.8260    0.8440    1.5580 oh        1 INJ     -0.691800
     17 C12        -7.3390    1.1300   -0.7250 c3        1 INJ      0.136400
     18 O12        -8.4600    1.9080   -0.3520 oh        1 INJ     -0.642800
     19 C13         0.1490    0.0560    3.7480 c3        1 INJ     -0.015100
     20 C14        -0.5360    1.3840    4.0380 c3        1 INJ     -0.087400
     21 C15        -1.8390    1.2000    4.7920 c3        1 INJ     -0.079400
     22 C16        -2.5310    2.5300    5.0390 c3        1 INJ     -0.029400
     23 C17        -3.9360    2.3720    5.5270 c3        1 INJ     -0.292600
     24 P          -5.0610    2.8460    4.2380 p5        1 INJ      1.261700
     25 O1P        -4.9030    1.7180    3.1990 o         1 INJ     -0.949833
     26 O2P        -6.4180    2.8300    4.8830 o         1 INJ     -0.949833
     27 O3P        -4.5540    4.1620    3.7120 o         1 INJ     -0.949833
     28 HO2         2.9810   -0.5430   -1.4700 ho        1 INJ      0.424000
     29 HO4         3.8040   -0.0860    2.7450 ho        1 INJ      0.421000
     30 HN7        -1.9350    0.0500    2.3730 hn        1 INJ      0.488800
     31 H81        -2.3690    0.5680   -0.4050 h1        1 INJ      0.042200
     32 H82        -2.6680   -1.1950   -0.0150 h1        1 INJ      0.042200
     33 H91        -3.9540    1.2900    1.4250 h1        1 INJ      0.155700
     34 HO9        -4.7200   -0.1570    2.7650 ho        1 INJ      0.493000
     35 H101       -5.5770   -0.8990    0.0190 h1        1 INJ      0.033700
     36 HO1O       -4.0660   -0.2610   -1.5800 ho        1 INJ      0.381000
     37 H111       -5.7660    2.1960    0.3670 h1        1 INJ      0.066700
     38 HO11       -6.2800    1.2570    2.3030 ho        1 INJ      0.521000
     39 H121       -6.9690    1.5540   -1.6940 h1        1 INJ      0.020200
     40 H122       -7.6800    0.0710   -0.8840 h1        1 INJ      0.020200
     41 HO12       -8.4900    1.9170    0.6180 ho        1 INJ      0.435000
     42 H131       -0.5590   -0.7930    3.9620 hc        1 INJ      0.042700
     43 H132        1.0130   -0.0720    4.4560 hc        1 INJ      0.042700
     44 H141       -0.7380    1.9430    3.0870 hc        1 INJ      0.039700
     45 H142        0.1540    2.0290    4.6420 hc        1 INJ      0.039700
     46 H151       -1.6350    0.6890    5.7690 hc        1 INJ      0.030700
     47 H152       -2.5330    0.5340    4.2110 hc        1 INJ      0.030700
     48 H161       -1.9060    3.1110    5.7730 hc        1 INJ      0.026200
     49 H162       -2.5560    3.1310    4.0850 hc        1 INJ      0.026200
     50 H171       -4.1620    1.3270    5.8300 hc        1 INJ      0.026200
     51 H172       -4.1290    3.0300    6.4020 hc        1 INJ      0.026200
@<TRIPOS>BOND
     1    1    2 ar  
     2    1    8 ar  
     3    2    3 1   
     4    2    4 ar  
     5    3   28 1   
     6    4    5 ar  
     7    5    6 1   
     8    5    7 ar  
     9    6   29 1   
    10    7    8 ar  
    11    7   19 1   
    12    8    9 1   
    13    9   10 1   
    14    9   30 1   
    15   10   11 1   
    16   10   31 1   
    17   10   32 1   
    18   11   12 1   
    19   11   13 1   
    20   11   33 1   
    21   12   34 1   
    22   13   14 1   
    23   13   15 1   
    24   13   35 1   
    25   14   36 1   
    26   15   16 1   
    27   15   17 1   
    28   15   37 1   
    29   16   38 1   
    30   17   18 1   
    31   17   39 1   
    32   17   40 1   
    33   18   41 1   
    34   19   20 1   
    35   19   42 1   
    36   19   43 1   
    37   20   21 1   
    38   20   44 1   
    39   20   45 1   
    40   21   22 1   
    41   21   46 1   
    42   21   47 1   
    43   22   23 1   
    44   22   48 1   
    45   22   49 1   
    46   23   24 1   
    47   23   50 1   
    48   23   51 1   
    49   24   25 1   
    50   24   26 1   
    51   24   27 1   
@<TRIPOS>SUBSTRUCTURE
     1 INJ         1 TEMP              0 ****  ****    0 ROOT
