@<TRIPOS>MOLECULE
INJ
   51    51     1     0     0
SMALL
bcc


@<TRIPOS>ATOM
      1 N1          0.1890   -0.2820   -0.1370 nb        1 INJ     -0.795000
      2 C2          1.5410   -0.3420   -0.2580 ca        1 INJ      0.895300
      3 O2          1.9780   -0.4590   -1.5690 oh        1 INJ     -0.605300
      4 N3          2.5020   -0.3090    0.7190 nb        1 INJ     -0.920000
      5 C4          1.9970   -0.2050    1.9870 ca        1 INJ      0.683600
      6 O4          2.8960   -0.1850    3.0340 oh        1 INJ     -0.619300
      7 C5          0.6330   -0.1330    2.2980 ca        1 INJ     -0.411900
      8 C6         -0.2830   -0.1650    1.1660 ca        1 INJ      0.742200
      9 N7         -1.6200   -0.1090    1.3930 nh        1 INJ     -0.808900
     10 C8         -2.6430   -0.0810    0.3770 c3        1 INJ      0.201800
     11 C9         -4.0080    0.2980    0.9950 c3        1 INJ      0.095100
     12 O9         -4.2960   -0.6550    2.0010 oh        1 INJ     -0.666800
     13 C10        -5.1510    0.2640   -0.0360 c3        1 INJ      0.088100
     14 O10        -4.7300    0.6000   -1.3550 oh        1 INJ     -0.617800
     15 C11        -6.2290    1.2960    0.3680 c3        1 INJ      0.149100
     16 O11        -6.8260    0.9220    1.5810 oh        1 INJ     -0.691800
     17 C12        -7.3460    1.3180   -0.6830 c3        1 INJ      0.136400
     18 O12        -8.4550    2.0930   -0.2690 oh        1 INJ     -0.642800
     19 C13         0.1470   -0.0580    3.6980 c3        1 INJ     -0.015100
     20 C14        -0.5180    1.2650    4.0510 c3        1 INJ     -0.087400
     21 C15        -1.8200    1.0660    4.8020 c3        1 INJ     -0.079400
     22 C16        -2.4930    2.3920    5.1130 c3        1 INJ     -0.029400
     23 C17        -3.8980    2.2310    5.6000 c3        1 INJ     -0.292600
     24 P          -5.0220    2.7780    4.3390 p5        1 INJ      1.261700
     25 O1P        -4.8840    1.6970    3.2500 o         1 INJ     -0.949833
     26 O2P        -6.3760    2.7520    4.9890 o         1 INJ     -0.949833
     27 O3P        -4.4990    4.1090    3.8710 o         1 INJ     -0.949833
     28 HO2         2.9480   -0.4570   -1.5550 ho        1 INJ      0.424000
     29 HO4         3.7960   -0.2030    2.6720 ho        1 INJ      0.421000
     30 HN7        -1.9430    0.0270    2.3340 hn        1 INJ      0.488800
     31 H81        -2.7030   -1.0980   -0.1040 h1        1 INJ      0.042200
     32 H82        -2.3820    0.6770   -0.4150 h1        1 INJ      0.042200
     33 H91        -3.9490    1.3370    1.4530 h1        1 INJ      0.155700
     34 HO9        -4.7280   -0.1600    2.7310 ho        1 INJ      0.493000
     35 H101       -5.6070   -0.7660   -0.0420 h1        1 INJ      0.033700
     36 HO1O       -4.0950   -0.0750   -1.6180 ho        1 INJ      0.381000
     37 H111       -5.7540    2.3130    0.4470 h1        1 INJ      0.066700
     38 HO11       -6.2710    1.2940    2.3410 ho        1 INJ      0.521000
     39 H121       -7.7010    0.2720   -0.8890 h1        1 INJ      0.020200
     40 H122       -6.9750    1.7810   -1.6340 h1        1 INJ      0.020200
     41 HO12       -8.4800    2.0580    0.7000 ho        1 INJ      0.435000
     42 H131       -0.5720   -0.9050    3.8760 hc        1 INJ      0.042700
     43 H132        1.0120   -0.2290    4.3950 hc        1 INJ      0.042700
     44 H141        0.1840    1.8730    4.6810 hc        1 INJ      0.039700
     45 H142       -0.7170    1.8700    3.1270 hc        1 INJ      0.039700
     46 H151       -2.5260    0.4360    4.1950 hc        1 INJ      0.030700
     47 H152       -1.6190    0.5070    5.7540 hc        1 INJ      0.030700
     48 H161       -1.8570    2.9310    5.8690 hc        1 INJ      0.026200
     49 H162       -2.5140    3.0360    4.1870 hc        1 INJ      0.026200
     50 H171       -4.1360    1.1770    5.8570 hc        1 INJ      0.026200
     51 H172       -4.0780    2.8510    6.5050 hc        1 INJ      0.026200
@<TRIPOS>BOND
     1    1    2 ar  
     2    1    8 ar  
     3    2    3 1   
     4    2    4 ar  
     5    3   28 1   
     6    4    5 ar  
     7    5    6 1   
     8    5    7 ar  
     9    6   29 1   
    10    7    8 ar  
    11    7   19 1   
    12    8    9 1   
    13    9   10 1   
    14    9   30 1   
    15   10   11 1   
    16   10   31 1   
    17   10   32 1   
    18   11   12 1   
    19   11   13 1   
    20   11   33 1   
    21   12   34 1   
    22   13   14 1   
    23   13   15 1   
    24   13   35 1   
    25   14   36 1   
    26   15   16 1   
    27   15   17 1   
    28   15   37 1   
    29   16   38 1   
    30   17   18 1   
    31   17   39 1   
    32   17   40 1   
    33   18   41 1   
    34   19   20 1   
    35   19   42 1   
    36   19   43 1   
    37   20   21 1   
    38   20   44 1   
    39   20   45 1   
    40   21   22 1   
    41   21   46 1   
    42   21   47 1   
    43   22   23 1   
    44   22   48 1   
    45   22   49 1   
    46   23   24 1   
    47   23   50 1   
    48   23   51 1   
    49   24   25 1   
    50   24   26 1   
    51   24   27 1   
@<TRIPOS>SUBSTRUCTURE
     1 INJ         1 TEMP              0 ****  ****    0 ROOT
