@<TRIPOS>MOLECULE
INK
   32    32     1     0     0
SMALL
bcc


@<TRIPOS>ATOM
      1 P           0.0070    0.2910    0.3190 p5        1 INK      1.356200
      2 Cl          0.6260    1.1410    1.9840 cl        1 INK     -0.237300
      3 C1         -1.5310   -0.1420    0.6490 c3        1 INK     -0.437300
      4 O1          0.9140   -0.7270   -0.1980 o         1 INK     -0.775300
      5 O2         -0.1060    1.5370   -0.7070 os        1 INK     -0.572200
      6 C2          0.2350    1.3240   -2.0640 c3        1 INK      0.178100
      7 C3          1.3070    2.3300   -2.4810 c3        1 INK     -0.088400
      8 C4          2.6510    2.0300   -1.8720 c3        1 INK     -0.101100
      9 C5         -1.0260    1.5630   -2.9130 c3        1 INK      0.106400
     10 O3         -1.8270    0.3840   -2.7820 os        1 INK     -0.353900
     11 C6         -4.6230    1.2370   -5.0640 ca        1 INK     -0.096500
     12 C7         -5.2860    0.0120   -5.0700 ca        1 INK     -0.160000
     13 C8         -4.7810   -1.0580   -4.3260 ca        1 INK     -0.096500
     14 C9         -3.6190   -0.9110   -3.5780 ca        1 INK     -0.178000
     15 C10        -2.9590    0.3320   -3.5760 ca        1 INK      0.123100
     16 C11        -3.4560    1.4090   -4.3180 ca        1 INK     -0.178000
     17 HC11       -2.1140    0.6040    1.2430 hc        1 INK      0.123367
     18 HC12       -1.5990   -1.1090    1.2080 hc        1 INK      0.123367
     19 HC13       -2.1160   -0.2920   -0.2990 hc        1 INK      0.123367
     20 HC2         0.6050    0.2650   -2.1980 h1        1 INK      0.095700
     21 HC31        1.3910    2.3020   -3.5990 hc        1 INK      0.053200
     22 HC32        0.9740    3.3580   -2.1830 hc        1 INK      0.053200
     23 HC41        2.9060    0.9460   -1.9750 hc        1 INK      0.044367
     24 HC42        3.4430    2.6300   -2.3830 hc        1 INK      0.044367
     25 HC43        2.6650    2.2940   -0.7870 hc        1 INK      0.044367
     26 HC51       -0.7470    1.7130   -3.9880 h1        1 INK      0.057700
     27 HC52       -1.5950    2.4480   -2.5260 h1        1 INK      0.057700
     28 HC7        -6.2050   -0.1150   -5.6600 ha        1 INK      0.135000
     29 HC8        -5.3040   -2.0260   -4.3330 ha        1 INK      0.135000
     30 HC9        -3.2070   -1.7450   -2.9930 ha        1 INK      0.142500
     31 H11        -2.9450    2.3820   -4.3210 ha        1 INK      0.142500
     32 HC6        -5.0190    2.0800   -5.6490 ha        1 INK      0.135000
@<TRIPOS>BOND
     1    1    2 1   
     2    1    3 1   
     3    1    4 2   
     4    1    5 1   
     5    3   17 1   
     6    3   18 1   
     7    3   19 1   
     8    5    6 1   
     9    6    7 1   
    10    6    9 1   
    11    6   20 1   
    12    7    8 1   
    13    7   21 1   
    14    7   22 1   
    15    8   23 1   
    16    8   24 1   
    17    8   25 1   
    18    9   10 1   
    19    9   26 1   
    20    9   27 1   
    21   10   15 1   
    22   11   12 ar  
    23   11   16 ar  
    24   11   32 1   
    25   12   13 ar  
    26   12   28 1   
    27   13   14 ar  
    28   13   29 1   
    29   14   15 ar  
    30   14   30 1   
    31   15   16 ar  
    32   16   31 1   
@<TRIPOS>SUBSTRUCTURE
     1 INK         1 TEMP              0 ****  ****    0 ROOT
