@<TRIPOS>MOLECULE
INK
   32    32     1     0     0
SMALL
bcc


@<TRIPOS>ATOM
      1 P          -0.9060    0.5270    2.3280 p5        1 INK      1.356200
      2 CL         -0.9240    1.6610    3.9380 cl        1 INK     -0.237300
      3 C1         -2.0800    1.1620    1.3890 c3        1 INK     -0.437300
      4 O1         -0.9490   -0.9030    2.6110 o         1 INK     -0.775300
      5 O2          0.4860    0.9310    1.6120 os        1 INK     -0.572200
      6 C2          1.2200   -0.0810    0.9470 c3        1 INK      0.178100
      7 C3          2.6410   -0.1270    1.5070 c3        1 INK     -0.088400
      8 C4          2.6970   -0.7000    2.8990 c3        1 INK     -0.101100
      9 C5          1.2870    0.2850   -0.5460 c3        1 INK      0.106400
     10 O3          0.0170   -0.0710   -1.1040 os        1 INK     -0.353900
     11 C6          0.6130    0.7640   -4.6670 ca        1 INK     -0.096500
     12 C7         -0.5550    0.2390   -5.2160 ca        1 INK     -0.160000
     13 C8         -1.4960   -0.3810   -4.3900 ca        1 INK     -0.096500
     14 C9         -1.2780   -0.4800   -3.0210 ca        1 INK     -0.178000
     15 C10        -0.0960    0.0560   -2.4770 ca        1 INK      0.123100
     16 C11         0.8540    0.6790   -3.2950 ca        1 INK     -0.178000
     17 HC11       -3.1020    0.8050    1.6700 hc        1 INK      0.123367
     18 HC12       -2.1290    2.2790    1.3860 hc        1 INK      0.123367
     19 HC13       -1.9350    0.8670    0.3140 hc        1 INK      0.123367
     20 HC2         0.7010   -1.0750    1.0860 h1        1 INK      0.095700
     21 HC31        3.0660    0.9100    1.5040 hc        1 INK      0.053200
     22 HC32        3.2620   -0.7600    0.8200 hc        1 INK      0.053200
     23 HC41        3.7540   -0.9370    3.1700 hc        1 INK      0.044367
     24 HC42        2.3050    0.0320    3.6460 hc        1 INK      0.044367
     25 HC43        2.0920   -1.6370    2.9720 hc        1 INK      0.044367
     26 HC51        1.4570    1.3860   -0.6710 h1        1 INK      0.057700
     27 HC52        2.0990   -0.2980   -1.0520 h1        1 INK      0.057700
     28 HC7        -0.7370    0.3110   -6.2980 ha        1 INK      0.135000
     29 HC8        -2.4170   -0.7970   -4.8250 ha        1 INK      0.135000
     30 HC9        -2.0060   -0.9710   -2.3600 ha        1 INK      0.142500
     31 H11         1.7780    1.1000   -2.8770 ha        1 INK      0.142500
     32 HC6         1.3550    1.2520   -5.3160 ha        1 INK      0.135000
@<TRIPOS>BOND
     1    1    2 1   
     2    1    3 1   
     3    1    4 2   
     4    1    5 1   
     5    3   17 1   
     6    3   18 1   
     7    3   19 1   
     8    5    6 1   
     9    6    7 1   
    10    6    9 1   
    11    6   20 1   
    12    7    8 1   
    13    7   21 1   
    14    7   22 1   
    15    8   23 1   
    16    8   24 1   
    17    8   25 1   
    18    9   10 1   
    19    9   26 1   
    20    9   27 1   
    21   10   15 1   
    22   11   12 ar  
    23   11   16 ar  
    24   11   32 1   
    25   12   13 ar  
    26   12   28 1   
    27   13   14 ar  
    28   13   29 1   
    29   14   15 ar  
    30   14   30 1   
    31   15   16 ar  
    32   16   31 1   
@<TRIPOS>SUBSTRUCTURE
     1 INK         1 TEMP              0 ****  ****    0 ROOT
