@<TRIPOS>MOLECULE
INK
   32    32     1     0     0
SMALL
bcc


@<TRIPOS>ATOM
      1 P           0.0050    0.2970    0.3200 p5        1 INK      1.356200
      2 CL          0.6170    1.1500    1.9860 cl        1 INK     -0.237300
      3 C1         -1.5320   -0.1420    0.6480 c3        1 INK     -0.437300
      4 O1          0.9170   -0.7180   -0.1950 o         1 INK     -0.775300
      5 O2         -0.1110    1.5420   -0.7060 os        1 INK     -0.572200
      6 C2          0.2330    1.3290   -2.0630 c3        1 INK      0.178100
      7 C3          1.3030    2.3380   -2.4780 c3        1 INK     -0.088400
      8 C4          2.6470    2.0430   -1.8670 c3        1 INK     -0.101100
      9 C5         -1.0270    1.5640   -2.9140 c3        1 INK      0.106400
     10 O3         -1.8250    0.3820   -2.7830 os        1 INK     -0.353900
     11 C6         -4.6200    1.2250   -5.0680 ca        1 INK     -0.096500
     12 C7         -5.2800   -0.0010   -5.0730 ca        1 INK     -0.160000
     13 C8         -4.7740   -1.0690   -4.3270 ca        1 INK     -0.096500
     14 C9         -3.6130   -0.9190   -3.5780 ca        1 INK     -0.178000
     15 C10        -2.9560    0.3260   -3.5780 ca        1 INK      0.123100
     16 C11        -3.4540    1.4010   -4.3220 ca        1 INK     -0.178000
     17 HC11       -2.1190    0.6020    1.2410 hc        1 INK      0.123367
     18 HC12       -1.5980   -1.1100    1.2070 hc        1 INK      0.123367
     19 HC13       -2.1150   -0.2940   -0.3010 hc        1 INK      0.123367
     20 HC2         0.6070    0.2710   -2.1960 h1        1 INK      0.095700
     21 HC31        1.3890    2.3100   -3.5970 hc        1 INK      0.053200
     22 HC32        0.9660    3.3660   -2.1820 hc        1 INK      0.053200
     23 HC41        3.4370    2.6460   -2.3770 hc        1 INK      0.044367
     24 HC42        2.6580    2.3080   -0.7820 hc        1 INK      0.044367
     25 HC43        2.9050    0.9610   -1.9680 hc        1 INK      0.044367
     26 HC51       -1.5990    2.4470   -2.5290 h1        1 INK      0.057700
     27 HC52       -0.7470    1.7140   -3.9880 h1        1 INK      0.057700
     28 HC7        -6.1990   -0.1310   -5.6630 ha        1 INK      0.135000
     29 HC8        -5.2950   -2.0380   -4.3330 ha        1 INK      0.135000
     30 HC9        -3.2000   -1.7510   -2.9910 ha        1 INK      0.142500
     31 H11        -2.9460    2.3750   -4.3260 ha        1 INK      0.142500
     32 HC6        -5.0180    2.0660   -5.6560 ha        1 INK      0.135000
@<TRIPOS>BOND
     1    1    2 1   
     2    1    3 1   
     3    1    4 2   
     4    1    5 1   
     5    3   17 1   
     6    3   18 1   
     7    3   19 1   
     8    5    6 1   
     9    6    7 1   
    10    6    9 1   
    11    6   20 1   
    12    7    8 1   
    13    7   21 1   
    14    7   22 1   
    15    8   23 1   
    16    8   24 1   
    17    8   25 1   
    18    9   10 1   
    19    9   26 1   
    20    9   27 1   
    21   10   15 1   
    22   11   12 ar  
    23   11   16 ar  
    24   11   32 1   
    25   12   13 ar  
    26   12   28 1   
    27   13   14 ar  
    28   13   29 1   
    29   14   15 ar  
    30   14   30 1   
    31   15   16 ar  
    32   16   31 1   
@<TRIPOS>SUBSTRUCTURE
     1 INK         1 TEMP              0 ****  ****    0 ROOT
