@<TRIPOS>MOLECULE
INL
   51    45     1     0     0
SMALL
bcc


@<TRIPOS>ATOM
      1 S1          3.0910   -5.3320    3.2400 ss        1 INL      2.898000
      2 O2          2.9030   -5.2400    4.6610 o         1 INL     -0.932000
      3 O3          2.3930   -6.5520    2.9450 o         1 INL     -0.932000
      4 N4          4.6860   -5.4480    2.8550 n2        1 INL     -0.953000
      5 C5          2.3510   -3.9440    2.3990 c1        1 INL     -1.209000
      6 C6          2.3090   -2.5800    2.8860 c1        1 INL     -0.009500
      7 C7          1.3980   -1.7200    1.8930 c1        1 INL     -0.009500
      8 C8          0.9200   -2.5920    0.8410 c1        1 INL     -1.209000
      9 S9          1.4900   -4.0150    1.1050 ss        1 INL      1.041000
     10 C10         0.8110   -0.2870    2.0400 c1        1 INL     -0.218000
     11 C11        -0.0450    0.3250    0.8960 c1        1 INL      0.106000
     12 N12        -0.8300   -0.5310    0.0500 n2        1 INL     -0.695000
     13 S13        -0.3350   -2.0460   -0.2400 s4        1 INL      2.108800
     14 O14        -1.4550   -2.9380   -0.1610 o         1 INL     -0.528400
     15 O15         0.1940   -2.0810   -1.5720 o         1 INL     -0.528400
     16 C16        -0.0840    1.8520    0.6970 c3        1 INL     -0.050000
     17 C17         1.2120    2.3580   -1.3150 c3        1 INL     -0.110500
     18 C18         2.4880    2.9510   -1.8860 c3        1 INL     -0.052000
     19 O19         3.0990    3.6390   -1.0230 os        1 INL     -0.270000
     20 C20         2.5910    4.4200   -0.1660 c3        1 INL     -0.052000
     21 C21         1.3160    3.8380    0.4200 c3        1 INL     -0.110500
     22 N22         1.2120    2.3140    0.2250 n3        1 INL     -0.237000
     23 C23        -2.3810    0.3910   -1.6360 c1        1 INL     -0.155000
     24 C24        -2.1690   -0.1170   -0.3570 c1        1 INL      0.038000
     25 C25        -3.2510   -0.3490    0.4850 c1        1 INL     -0.143000
     26 C26        -4.5440   -0.0750    0.0500 c1        1 INL     -0.139000
     27 C27        -4.7560    0.4330   -1.2300 c1        1 INL     -0.139000
     28 C28        -3.6770    0.6660   -2.0730 c1        1 INL      0.090000
     29 O29        -3.8810    1.3240   -3.3190 os        1 INL     -0.205000
     30 C30        -4.5350    0.5230   -4.2940 c3        1 INL     -0.078000
     31 HN41        4.9350   -5.8010    2.0550 hn        1 INL      0.246000
     32 HN42        5.3250   -5.2150    3.4730 hn        1 INL      0.246000
     33 H61         2.7500   -2.2470    3.6870 DU        1 INL      0.183000
     34 H101        0.9490    0.2140    2.8660 ha        1 INL      0.168000
     35 H161       -0.7660    2.0760    0.0430 h1        1 INL      0.100500
     36 H162       -0.2940    2.2860    1.5490 h1        1 INL      0.100500
     37 H171        1.1090    1.4540   -1.6530 h1        1 INL      0.101500
     38 H172        0.4470    2.9000   -1.6170 h1        1 INL      0.101500
     39 H181        3.0720    2.2240   -2.1900 h1        1 INL      0.091250
     40 H182        2.2610    3.5230   -2.6500 h1        1 INL      0.091250
     41 H201        2.3850    5.2750   -0.5950 h1        1 INL      0.091250
     42 H202        3.2390    4.5710    0.5570 h1        1 INL      0.091250
     43 H211        1.2910    4.0340    1.3700 h1        1 INL      0.101500
     44 H212        0.5390    4.2700   -0.0150 h1        1 INL      0.101500
     45 H231       -1.6280    0.5540   -2.2230 ha        1 INL      0.175000
     46 H251       -3.1040   -0.7050    1.3810 ha        1 INL      0.147000
     47 H261       -5.3040   -0.2390    0.6420 ha        1 INL      0.142500
     48 H271       -5.6660    0.6250   -1.5360 ha        1 INL      0.142500
     49 H301       -5.0060    1.1050   -4.9340 h1        1 INL      0.086667
     50 H302       -3.8710   -0.0190   -4.7720 h1        1 INL      0.086667
     51 H303       -5.1830   -0.0690   -3.8510 h1        1 INL      0.086667
@<TRIPOS>BOND
     1    1    2 1   
     2    1    3 1   
     3    4   31 1   
     4    4   32 1   
     5    5    6 1   
     6    5    9 1   
     7    6    7 1   
     8    7    8 1   
     9    8    9 1   
    10   10   11 1   
    11   10   34 1   
    12   11   16 1   
    13   12   13 1   
    14   12   24 1   
    15   13   14 1   
    16   13   15 1   
    17   16   22 1   
    18   16   35 1   
    19   16   36 1   
    20   17   18 1   
    21   17   22 1   
    22   17   37 1   
    23   17   38 1   
    24   18   19 1   
    25   18   39 1   
    26   18   40 1   
    27   19   20 1   
    28   20   21 1   
    29   20   41 1   
    30   20   42 1   
    31   21   22 1   
    32   21   43 1   
    33   21   44 1   
    34   23   28 1   
    35   23   45 1   
    36   24   25 1   
    37   25   46 1   
    38   26   27 1   
    39   26   47 1   
    40   27   48 1   
    41   28   29 1   
    42   29   30 1   
    43   30   49 1   
    44   30   50 1   
    45   30   51 1   
@<TRIPOS>SUBSTRUCTURE
     1 INL         1 TEMP              0 ****  ****    0 ROOT
