@<TRIPOS>MOLECULE
INL
   51    54     1     0     0
SMALL
bcc


@<TRIPOS>ATOM
      1 S1          0.3130   -0.6420   -5.6250 sy        1 INL      1.559200
      2 O2          1.6110   -0.4710   -6.1460 o         1 INL     -0.652300
      3 O3         -0.2810   -1.9120   -5.7330 o         1 INL     -0.652300
      4 N4         -0.6530    0.4590   -6.2670 n3        1 INL     -1.026700
      5 C5          0.3490   -0.2140   -3.9930 cc        1 INL     -0.476600
      6 C6         -0.5250   -0.8660   -3.1040 cd        1 INL     -0.070000
      7 C7         -0.3510   -0.4070   -1.7810 cd        1 INL      0.037200
      8 C8          0.6520    0.5950   -1.7100 cc        1 INL     -0.514600
      9 S9          1.2810    0.8420   -3.1900 ss        1 INL      0.508200
     10 C10        -1.0620   -0.8900   -0.6390 cf        1 INL     -0.230200
     11 C11        -0.7300   -0.5160    0.6330 c2        1 INL      0.194800
     12 N12         0.3020    0.3880    0.8810 nh        1 INL     -0.512700
     13 S13         1.0180    1.3610   -0.2780 sy        1 INL      1.551200
     14 O14         0.4110    2.6230   -0.2620 o         1 INL     -0.640300
     15 O15         2.4090    1.3770   -0.1120 o         1 INL     -0.640300
     16 C16        -1.5030   -1.1290    1.7890 c3        1 INL      0.200000
     17 C17        -2.7970   -0.6830    3.7760 c3        1 INL      0.129800
     18 C18        -3.7060    0.3100    4.5090 c3        1 INL      0.127400
     19 O19        -4.7700    0.7620    3.6800 os        1 INL     -0.415600
     20 C20        -4.2960    1.3470    2.4720 c3        1 INL      0.127400
     21 C21        -3.4050    0.3760    1.6890 c3        1 INL      0.129800
     22 N22        -2.3170   -0.1560    2.5020 n3        1 INL     -0.719600
     23 C23         1.5020   -0.4710    2.8450 ca        1 INL     -0.144000
     24 C24         0.7720    0.5520    2.2170 ca        1 INL      0.138600
     25 C25         0.5350    1.7650    2.9020 ca        1 INL     -0.143000
     26 C26         1.0400    1.9440    4.1850 ca        1 INL     -0.089000
     27 C27         1.7670    0.9400    4.8220 ca        1 INL     -0.191000
     28 C28         1.9900   -0.2650    4.1470 ca        1 INL      0.126100
     29 O29         2.6740   -1.3430    4.6770 os        1 INL     -0.327900
     30 C30         3.3210   -1.1220    5.9250 c3        1 INL      0.113700
     31 HN41       -0.3270    1.2780   -6.7150 hn        1 INL      0.450800
     32 HN42       -1.6390    0.3860   -6.2790 hn        1 INL      0.450800
     33 H61        -1.2310   -1.6510   -3.3970 ha        1 INL      0.183000
     34 H101       -1.8910   -1.5900   -0.8150 ha        1 INL      0.160000
     35 H161       -2.1250   -1.9790    1.3760 h1        1 INL      0.057700
     36 H162       -0.7640   -1.5720    2.5200 h1        1 INL      0.057700
     37 H172       -1.9010   -0.8910    4.4240 h1        1 INL      0.044200
     38 H181       -4.2170   -0.1990    5.3670 h1        1 INL      0.056450
     39 H182       -3.1160    1.1910    4.8760 h1        1 INL      0.056450
     40 H201       -5.2250    1.5730    1.8870 h1        1 INL      0.056450
     41 H202       -3.7430    2.2950    2.7030 h1        1 INL      0.056450
     42 H211       -2.9460    0.9260    0.8210 h1        1 INL      0.044200
     43 H212       -4.0550   -0.4500    1.2750 h1        1 INL      0.044200
     44 H231        1.7120   -1.4260    2.3410 ha        1 INL      0.159000
     45 H251       -0.0440    2.5710    2.4210 ha        1 INL      0.162000
     46 H261        0.8600    2.8970    4.7070 ha        1 INL      0.141000
     47 H271        2.1560    1.1030    5.8360 ha        1 INL      0.142000
     48 H301        3.8630   -2.0840    6.1100 h1        1 INL      0.046700
     49 H302        4.0400   -0.2700    5.8550 h1        1 INL      0.046700
     50 H303        2.5670   -0.9340    6.7280 h1        1 INL      0.046700
     51 H171       -3.3620   -1.6500    3.6370 h1        1 INL      0.044200
@<TRIPOS>BOND
     1    1    2 2   
     2    1    3 2   
     3    1    4 1   
     4    1    5 1   
     5    4   31 1   
     6    4   32 1   
     7    5    6 2   
     8    5    9 1   
     9    6    7 1   
    10    6   33 1   
    11    7    8 2   
    12    7   10 1   
    13    8    9 1   
    14    8   13 1   
    15   10   11 2   
    16   10   34 1   
    17   11   12 1   
    18   11   16 1   
    19   12   13 1   
    20   12   24 1   
    21   13   14 2   
    22   13   15 2   
    23   16   22 1   
    24   16   35 1   
    25   16   36 1   
    26   17   18 1   
    27   17   22 1   
    28   17   37 1   
    29   17   51 1   
    30   18   19 1   
    31   18   38 1   
    32   18   39 1   
    33   19   20 1   
    34   20   21 1   
    35   20   40 1   
    36   20   41 1   
    37   21   22 1   
    38   21   42 1   
    39   21   43 1   
    40   23   24 ar  
    41   23   28 ar  
    42   23   44 1   
    43   24   25 ar  
    44   25   26 ar  
    45   25   45 1   
    46   26   27 ar  
    47   26   46 1   
    48   27   28 ar  
    49   27   47 1   
    50   28   29 1   
    51   29   30 1   
    52   30   48 1   
    53   30   49 1   
    54   30   50 1   
@<TRIPOS>SUBSTRUCTURE
     1 INL         1 TEMP              0 ****  ****    0 ROOT
