@<TRIPOS>MOLECULE
INL
   52    55     1     0     0
SMALL
bcc


@<TRIPOS>ATOM
      1 S1          0.6790    1.1920    0.0470 sy        1 INL      1.554200
      2 O2          1.9980    0.8870   -0.2070 o         1 INL     -0.572300
      3 O3          0.2390    1.4790    1.3170 o         1 INL     -0.572300
      4 N4         -0.0890   -0.5810   -0.1380 nz        1 INL     -0.783500
      5 C5         -0.0880    1.8870   -1.1310 cc        1 INL     -0.719600
      6 C6         -1.3820    2.4540   -0.8750 cd        1 INL     -0.062000
      7 C7         -1.9130    3.0880   -2.0040 cd        1 INL      0.051200
      8 C8         -1.0110    2.9830   -3.1070 cc        1 INL     -0.435600
      9 S9          0.3180    2.2200   -2.6910 ss        1 INL      0.645200
     10 C10        -3.1590    3.7770   -2.0610 cf        1 INL     -0.271200
     11 C11        -3.5350    4.5230   -3.1470 c2        1 INL      0.248800
     12 N12        -2.7390    4.6040   -4.2850 nh        1 INL     -0.515700
     13 S13        -1.4730    3.6070   -4.6500 sy        1 INL      1.526200
     14 O14        -1.8880    2.5040   -5.3920 o         1 INL     -0.610800
     15 O15        -0.3640    4.3030   -5.1250 o         1 INL     -0.610800
     16 C16        -4.8470    5.2950   -3.0790 c3        1 INL      0.196000
     17 C17        -6.9210    5.6430   -4.2690 c3        1 INL      0.128800
     18 C18        -8.0410    4.9940   -5.0930 c3        1 INL      0.126900
     19 O19        -8.5560    3.8330   -4.4530 os        1 INL     -0.404600
     20 C20        -7.5420    2.8720   -4.1940 c3        1 INL      0.126900
     21 C21        -6.4170    3.4670   -3.3380 c3        1 INL      0.128800
     22 N22        -5.8720    4.6920   -3.9130 n3        1 INL     -0.725600
     23 C23        -2.7070    6.9320   -5.0670 ca        1 INL     -0.141000
     24 C24        -3.0440    5.5850   -5.2830 ca        1 INL      0.091600
     25 C25        -3.6570    5.1930   -6.4920 ca        1 INL     -0.141000
     26 C26        -3.8960    6.1440   -7.4800 ca        1 INL     -0.084000
     27 C27        -3.5580    7.4820   -7.2900 ca        1 INL     -0.174000
     28 C28        -2.9680    7.8710   -6.0810 ca        1 INL      0.136100
     29 O29        -2.6070    9.1630   -5.7640 os        1 INL     -0.321900
     30 C30        -2.7740   10.1370   -6.7920 c3        1 INL      0.109700
     31 HN41       -0.5110   -0.8690    0.7420 hn        1 INL      0.452467
     32 HN42        0.6330   -1.2580   -0.3740 hn        1 INL      0.452467
     33 H61        -1.8740    2.4240    0.1050 ha        1 INL      0.192000
     34 H101       -3.8200    3.7150   -1.1840 ha        1 INL      0.172000
     35 H161       -4.6600    6.3510   -3.4320 h1        1 INL      0.068200
     36 H162       -5.1540    5.3490   -1.9910 h1        1 INL      0.068200
     37 H181       -8.9180    5.6890   -5.1620 h1        1 INL      0.061700
     38 H182       -7.6740    4.7290   -6.1200 h1        1 INL      0.061700
     39 H201       -7.1370    2.4750   -5.1620 h1        1 INL      0.061700
     40 H202       -8.0650    2.0560   -3.6290 h1        1 INL      0.061700
     41 H211       -6.8180    3.6420   -2.2960 h1        1 INL      0.043950
     42 H212       -5.5790    2.7190   -3.2670 h1        1 INL      0.043950
     43 H231       -2.2340    7.2740   -4.1350 ha        1 INL      0.161000
     44 H251       -3.9520    4.1440   -6.6580 ha        1 INL      0.162000
     45 H261       -4.3640    5.8310   -8.4280 ha        1 INL      0.153000
     46 H271       -3.7540    8.2150   -8.0860 ha        1 INL      0.155000
     47 H301       -2.3820   11.0750   -6.3210 h1        1 INL      0.054367
     48 H302       -2.1730    9.8660   -7.6940 h1        1 INL      0.054367
     49 H303       -3.8540   10.2480   -7.0540 h1        1 INL      0.054367
     50 H171       -7.3800    6.1120   -3.3500 h1        1 INL      0.043950
     51 H43        -0.8060   -0.6190   -0.8550 hn        1 INL      0.452467
     52 H172       -6.4540    6.4610   -4.8850 h1        1 INL      0.043950
@<TRIPOS>BOND
     1    1    2 2   
     2    1    3 2   
     3    1    4 1   
     4    1    5 1   
     5    4   31 1   
     6    4   32 1   
     7    4   51 1   
     8    5    6 2   
     9    5    9 1   
    10    6    7 1   
    11    6   33 1   
    12    7    8 2   
    13    7   10 1   
    14    8    9 1   
    15    8   13 1   
    16   10   11 2   
    17   10   34 1   
    18   11   12 1   
    19   11   16 1   
    20   12   13 1   
    21   12   24 1   
    22   13   14 2   
    23   13   15 2   
    24   16   22 1   
    25   16   35 1   
    26   16   36 1   
    27   17   18 1   
    28   17   22 1   
    29   17   50 1   
    30   17   52 1   
    31   18   19 1   
    32   18   37 1   
    33   18   38 1   
    34   19   20 1   
    35   20   21 1   
    36   20   39 1   
    37   20   40 1   
    38   21   22 1   
    39   21   41 1   
    40   21   42 1   
    41   23   24 ar  
    42   23   28 ar  
    43   23   43 1   
    44   24   25 ar  
    45   25   26 ar  
    46   25   44 1   
    47   26   27 ar  
    48   26   45 1   
    49   27   28 ar  
    50   27   46 1   
    51   28   29 1   
    52   29   30 1   
    53   30   47 1   
    54   30   48 1   
    55   30   49 1   
@<TRIPOS>SUBSTRUCTURE
     1 INL         1 TEMP              0 ****  ****    0 ROOT
