@<TRIPOS>MOLECULE
INL
   52    55     1     0     0
SMALL
bcc


@<TRIPOS>ATOM
      1 S1          0.7200    1.1900    0.0020 sy        1 INL      1.554200
      2 O2          2.0300    0.8690   -0.2750 o         1 INL     -0.572300
      3 O3          0.3080    1.4960    1.2770 o         1 INL     -0.572300
      4 N4         -0.0700   -0.5770   -0.1470 n4        1 INL     -0.783500
      5 C5         -0.0630    1.8790   -1.1690 cc        1 INL     -0.719600
      6 C6         -1.3470    2.4620   -0.8940 cd        1 INL     -0.062000
      7 C7         -1.8930    3.0890   -2.0190 cd        1 INL      0.050200
      8 C8         -1.0140    2.9620   -3.1390 cc        1 INL     -0.435600
      9 S9          0.3150    2.1900   -2.7400 ss        1 INL      0.645200
     10 C10        -3.1330    3.7910   -2.0600 cf        1 INL     -0.271200
     11 C11        -3.5220    4.5290   -3.1470 c2        1 INL      0.248800
     12 N12        -2.7480    4.5890   -4.3010 nh        1 INL     -0.515700
     13 S13        -1.5010    3.5730   -4.6790 sy        1 INL      1.526200
     14 O14        -1.9430    2.4660   -5.4000 o         1 INL     -0.610800
     15 O15        -0.3940    4.2510   -5.1860 o         1 INL     -0.610800
     16 C16        -4.8240    5.3150   -3.0610 c3        1 INL      0.196000
     17 C17        -6.9170    5.6780   -4.2150 c3        1 INL      0.128800
     18 C18        -8.0580    5.0350   -5.0140 c3        1 INL      0.126900
     19 O19        -8.5730    3.8840   -4.3570 os        1 INL     -0.404600
     20 C20        -7.5640    2.9130   -4.1110 c3        1 INL      0.126900
     21 C21        -6.4170    3.5020   -3.2800 c3        1 INL      0.128800
     22 N22        -5.8710    4.7180   -3.8730 n3        1 INL     -0.725600
     23 C23        -2.7050    6.9080   -5.1070 ca        1 INL     -0.141000
     24 C24        -3.0610    5.5630   -5.3030 ca        1 INL      0.091600
     25 C25        -3.7010    5.1660   -6.4960 ca        1 INL     -0.141000
     26 C26        -3.9490    6.1100   -7.4890 ca        1 INL     -0.084000
     27 C27        -3.5920    7.4450   -7.3190 ca        1 INL     -0.174000
     28 C28        -2.9750    7.8400   -6.1250 ca        1 INL      0.136100
     29 O29        -2.5940    9.1310   -5.8290 os        1 INL     -0.322900
     30 C30        -2.7690   10.0960   -6.8630 c3        1 INL      0.109700
     31 HN41        0.6410   -1.2640   -0.3890 hn        1 INL      0.452467
     32 HN42       -0.8000   -0.6160   -0.8500 hn        1 INL      0.452467
     33 H61        -1.8190    2.4490    0.0950 ha        1 INL      0.192000
     34 H101       -3.7770    3.7440   -1.1700 ha        1 INL      0.172000
     35 H161       -5.1110    5.3810   -1.9690 h1        1 INL      0.068200
     36 H162       -4.6310    6.3670   -3.4270 h1        1 INL      0.068200
     37 H181       -7.7140    4.7600   -6.0450 h1        1 INL      0.061700
     38 H182       -8.9300    5.7390   -5.0700 h1        1 INL      0.061700
     39 H201       -8.0850    2.1060   -3.5320 h1        1 INL      0.061700
     40 H202       -7.1810    2.5070   -5.0840 h1        1 INL      0.061700
     41 H211       -5.5860    2.7460   -3.2210 h1        1 INL      0.043950
     42 H212       -6.7960    3.6870   -2.2320 h1        1 INL      0.043950
     43 H231       -2.2100    7.2540   -4.1870 ha        1 INL      0.161000
     44 H251       -4.0110    4.1190   -6.6460 ha        1 INL      0.162000
     45 H261       -4.4380    5.7920   -8.4240 ha        1 INL      0.153000
     46 H271       -3.7950    8.1730   -8.1190 ha        1 INL      0.155000
     47 H301       -3.8530   10.2170   -7.1050 h1        1 INL      0.054367
     48 H302       -2.3580   11.0340   -6.4090 h1        1 INL      0.054367
     49 H303       -2.1890    9.8100   -7.7730 h1        1 INL      0.054367
     50 H171       -7.3530    6.1570   -3.2910 h1        1 INL      0.043950
     51 H43        -0.4770   -0.8510    0.7440 hn        1 INL      0.452467
     52 H172       -6.4530    6.4870   -4.8450 h1        1 INL      0.043950
@<TRIPOS>BOND
     1    1    2 2   
     2    1    3 2   
     3    1    4 1   
     4    1    5 1   
     5    4   31 1   
     6    4   32 1   
     7    4   51 1   
     8    5    6 2   
     9    5    9 1   
    10    6    7 1   
    11    6   33 1   
    12    7    8 2   
    13    7   10 1   
    14    8    9 1   
    15    8   13 1   
    16   10   11 2   
    17   10   34 1   
    18   11   12 1   
    19   11   16 1   
    20   12   13 1   
    21   12   24 1   
    22   13   14 2   
    23   13   15 2   
    24   16   22 1   
    25   16   35 1   
    26   16   36 1   
    27   17   18 1   
    28   17   22 1   
    29   17   50 1   
    30   17   52 1   
    31   18   19 1   
    32   18   37 1   
    33   18   38 1   
    34   19   20 1   
    35   20   21 1   
    36   20   39 1   
    37   20   40 1   
    38   21   22 1   
    39   21   41 1   
    40   21   42 1   
    41   23   24 ar  
    42   23   28 ar  
    43   23   43 1   
    44   24   25 ar  
    45   25   26 ar  
    46   25   44 1   
    47   26   27 ar  
    48   26   45 1   
    49   27   28 ar  
    50   27   46 1   
    51   28   29 1   
    52   29   30 1   
    53   30   47 1   
    54   30   48 1   
    55   30   49 1   
@<TRIPOS>SUBSTRUCTURE
     1 INL         1 TEMP              0 ****  ****    0 ROOT
