@<TRIPOS>MOLECULE
INL
   52    55     1     0     0
SMALL
bcc


@<TRIPOS>ATOM
      1 S1          0.6640    1.1720    0.0480 sy        1 INL      1.554200
      2 O2          1.9750    0.8440   -0.2150 o         1 INL     -0.572300
      3 O3          0.2400    1.4820    1.3180 o         1 INL     -0.572300
      4 N4         -0.1340   -0.5900   -0.1080 n4        1 INL     -0.783500
      5 C5         -0.1040    1.8650   -1.1320 cc        1 INL     -0.719600
      6 C6         -1.3870    2.4550   -0.8700 cd        1 INL     -0.062000
      7 C7         -1.9180    3.0840   -2.0020 cd        1 INL      0.051200
      8 C8         -1.0290    2.9510   -3.1120 cc        1 INL     -0.435600
      9 S9          0.2920    2.1730   -2.7000 ss        1 INL      0.645200
     10 C10        -3.1540    3.7920   -2.0560 cf        1 INL     -0.271200
     11 C11        -3.5280    4.5310   -3.1470 c2        1 INL      0.248800
     12 N12        -2.7420    4.5860   -4.2930 nh        1 INL     -0.515700
     13 S13        -1.4960    3.5630   -4.6580 sy        1 INL      1.526200
     14 O14        -1.9360    2.4580   -5.3830 o         1 INL     -0.610800
     15 O15        -0.3810    4.2350   -5.1530 o         1 INL     -0.610800
     16 C16        -4.8270    5.3240   -3.0760 c3        1 INL      0.196000
     17 C17        -6.9070    5.6930   -4.2510 c3        1 INL      0.128800
     18 C18        -8.0440    5.0530   -5.0580 c3        1 INL      0.126900
     19 O19        -8.5710    3.9070   -4.4010 os        1 INL     -0.404600
     20 C20        -7.5700    2.9320   -4.1410 c3        1 INL      0.126900
     21 C21        -6.4280    3.5180   -3.3020 c3        1 INL      0.128800
     22 N22        -5.8690    4.7280   -3.8950 n3        1 INL     -0.725600
     23 C23        -2.6800    6.9030   -5.1030 ca        1 INL     -0.141000
     24 C24        -3.0410    5.5600   -5.3000 ca        1 INL      0.091600
     25 C25        -3.6710    5.1630   -6.4990 ca        1 INL     -0.141000
     26 C26        -3.9040    6.1060   -7.4960 ca        1 INL     -0.084000
     27 C27        -3.5420    7.4410   -7.3250 ca        1 INL     -0.174000
     28 C28        -2.9360    7.8350   -6.1260 ca        1 INL      0.136100
     29 O29        -2.5520    9.1240   -5.8270 os        1 INL     -0.322900
     30 C30        -2.7120   10.0880   -6.8650 c3        1 INL      0.109700
     31 HN41       -0.8570   -0.6260   -0.8180 hn        1 INL      0.452467
     32 HN42       -0.5520   -0.8610    0.7790 hn        1 INL      0.452467
     33 H61        -1.8700    2.4450    0.1140 ha        1 INL      0.192000
     34 H101       -3.8080    3.7500   -1.1720 ha        1 INL      0.172000
     35 H161       -5.1230    5.3950   -1.9860 h1        1 INL      0.068200
     36 H162       -4.6260    6.3730   -3.4430 h1        1 INL      0.068200
     37 H181       -8.9110    5.7610   -5.1260 h1        1 INL      0.061700
     38 H182       -7.6910    4.7710   -6.0850 h1        1 INL      0.061700
     39 H201       -8.1010    2.1310   -3.5630 h1        1 INL      0.061700
     40 H202       -7.1810    2.5190   -5.1080 h1        1 INL      0.061700
     41 H211       -6.8160    3.7100   -2.2580 h1        1 INL      0.043950
     42 H212       -5.6020    2.7580   -3.2310 h1        1 INL      0.043950
     43 H231       -2.1930    7.2480   -4.1790 ha        1 INL      0.161000
     44 H251       -3.9830    4.1170   -6.6510 ha        1 INL      0.162000
     45 H261       -4.3840    5.7890   -8.4360 ha        1 INL      0.153000
     46 H271       -3.7340    8.1680   -8.1280 ha        1 INL      0.155000
     47 H301       -3.7920   10.2130   -7.1200 h1        1 INL      0.054367
     48 H302       -2.3010   11.0250   -6.4080 h1        1 INL      0.054367
     49 H303       -2.1230    9.7970   -7.7690 h1        1 INL      0.054367
     50 H171       -6.4320    6.4960   -4.8800 h1        1 INL      0.043950
     51 H43         0.5750   -1.2810   -0.3420 hn        1 INL      0.452467
     52 H172       -7.3490    6.1790   -3.3330 h1        1 INL      0.043950
@<TRIPOS>BOND
     1    1    2 2   
     2    1    3 2   
     3    1    4 1   
     4    1    5 1   
     5    4   31 1   
     6    4   32 1   
     7    4   51 1   
     8    5    6 2   
     9    5    9 1   
    10    6    7 1   
    11    6   33 1   
    12    7    8 2   
    13    7   10 1   
    14    8    9 1   
    15    8   13 1   
    16   10   11 2   
    17   10   34 1   
    18   11   12 1   
    19   11   16 1   
    20   12   13 1   
    21   12   24 1   
    22   13   14 2   
    23   13   15 2   
    24   16   22 1   
    25   16   35 1   
    26   16   36 1   
    27   17   18 1   
    28   17   22 1   
    29   17   50 1   
    30   17   52 1   
    31   18   19 1   
    32   18   37 1   
    33   18   38 1   
    34   19   20 1   
    35   20   21 1   
    36   20   39 1   
    37   20   40 1   
    38   21   22 1   
    39   21   41 1   
    40   21   42 1   
    41   23   24 ar  
    42   23   28 ar  
    43   23   43 1   
    44   24   25 ar  
    45   25   26 ar  
    46   25   44 1   
    47   26   27 ar  
    48   26   45 1   
    49   27   28 ar  
    50   27   46 1   
    51   28   29 1   
    52   29   30 1   
    53   30   47 1   
    54   30   48 1   
    55   30   49 1   
@<TRIPOS>SUBSTRUCTURE
     1 INL         1 TEMP              0 ****  ****    0 ROOT
