@<TRIPOS>MOLECULE
INM
   36    37     1     0     0
SMALL
bcc


@<TRIPOS>ATOM
      1 N01         0.2380   -0.2450    1.9040 nh        1 INM     -0.647300
      2 C02         1.5510   -0.0090    1.5060 c2        1 INM      0.026000
      3 S03        -1.0720    0.1790    0.9990 sy        1 INM      1.549200
      4 O04        -2.0920   -0.7770    1.1580 o         1 INM     -0.648300
      5 O05        -1.4630    1.4940    1.2740 o         1 INM     -0.648300
      6 C06         1.9230    0.1740    0.1960 ce        1 INM      0.046800
      7 N07         3.2700    0.3330   -0.1860 nh        1 INM     -0.780600
      8 C08         0.0510   -0.8710    3.1950 c3        1 INM      0.211800
      9 C09         0.2810    0.0540    4.3890 c3        1 INM     -0.108400
     10 C10        -0.0220   -0.7030    5.6700 c3        1 INM      0.129400
     11 O11         0.3740    0.1480    6.7440 os        1 INM     -0.420600
     12 C12         0.0730   -0.4030    8.0140 c3        1 INM      0.115700
     13 C13         1.1510    0.0580   -2.2310 cc        1 INM     -0.057000
     14 C14         0.9090    0.1230   -0.8440 cc        1 INM      0.018200
     15 C15        -0.4830    0.0930   -0.5640 cd        1 INM     -0.497600
     16 S16        -1.3190   -0.0020   -1.9540 ss        1 INM      0.533200
     17 C17        -0.0520   -0.0220   -2.9610 cd        1 INM     -0.489600
     18 S18         0.0280   -0.0830   -4.6450 sy        1 INM      1.560200
     19 N19         0.1030   -1.6500   -4.9500 n3        1 INM     -1.026700
     20 O20        -1.1850    0.4280   -5.1480 o         1 INM     -0.652300
     21 O21         1.2240    0.5360   -5.0480 o         1 INM     -0.652300
     22 HC21        2.2990   -0.0150    2.3220 h4        1 INM      0.156000
     23 H71         3.8680    0.5190    0.5930 hn        1 INM      0.378800
     24 H72         3.3750    1.0320   -0.8950 hn        1 INM      0.378800
     25 H81         0.7480   -1.7540    3.2810 h1        1 INM      0.067200
     26 H82        -1.0060   -1.2710    3.2340 h1        1 INM      0.067200
     27 H91        -0.3760    0.9610    4.3280 hc        1 INM      0.067700
     28 H92         1.3420    0.4140    4.4110 hc        1 INM      0.067700
     29 H101        0.5590   -1.6630    5.7230 h1        1 INM      0.029200
     30 H102       -1.1170   -0.9350    5.7520 h1        1 INM      0.029200
     31 H121        0.4380    0.3620    8.7430 h1        1 INM      0.035033
     32 H122       -1.0280   -0.5580    8.1260 h1        1 INM      0.035033
     33 H123        0.6110   -1.3730    8.1610 h1        1 INM      0.035033
     34 H131        2.1440    0.0760   -2.6940 ha        1 INM      0.186000
     35 H191       -0.6860   -2.2010   -5.1800 hn        1 INM      0.451300
     36 H192        0.9430   -2.1710   -4.9480 hn        1 INM      0.451300
@<TRIPOS>BOND
     1    1    2 1   
     2    1    3 1   
     3    1    8 1   
     4    2    6 2   
     5    2   22 1   
     6    3    4 2   
     7    3    5 2   
     8    3   15 1   
     9    6    7 1   
    10    6   14 1   
    11    7   23 1   
    12    7   24 1   
    13    8    9 1   
    14    8   25 1   
    15    8   26 1   
    16    9   10 1   
    17    9   27 1   
    18    9   28 1   
    19   10   11 1   
    20   10   29 1   
    21   10   30 1   
    22   11   12 1   
    23   12   31 1   
    24   12   32 1   
    25   12   33 1   
    26   13   14 1   
    27   13   17 2   
    28   13   34 1   
    29   14   15 2   
    30   15   16 1   
    31   16   17 1   
    32   17   18 1   
    33   18   19 1   
    34   18   20 2   
    35   18   21 2   
    36   19   35 1   
    37   19   36 1   
@<TRIPOS>SUBSTRUCTURE
     1 INM         1 TEMP              0 ****  ****    0 ROOT
