@<TRIPOS>MOLECULE
INM
   36    32     1     0     0
SMALL
bcc


@<TRIPOS>ATOM
      1 N01        -0.6750    0.6170   -0.7210 n3        1 INM     -0.736000
      2 C02         1.0520    0.6090   -0.7210 c2        1 INM      0.073000
      3 S03        -1.5600    0.7120    1.0660 s4        1 INM      2.103800
      4 O04        -2.4100   -0.4930    1.2360 o         1 INM     -0.533900
      5 O05        -2.4260    1.9260    1.1000 o         1 INM     -0.533900
      6 C06         1.8300    0.5850    0.6760 c1        1 INM     -0.130000
      7 N07         3.1770    0.0890    0.7440 n2        1 INM     -0.617500
      8 C08        -1.5870   -0.7750   -2.1170 c3        1 INM     -0.030000
      9 C09        -0.7010   -0.8990   -3.3830 c3        1 INM     -0.190000
     10 C10        -1.3560   -1.8290   -4.3680 c3        1 INM     -0.020000
     11 O11        -0.5850   -1.8430   -5.6040 os        1 INM     -0.275000
     12 C12        -1.0270   -2.7970   -6.5520 c3        1 INM     -0.074000
     13 C13         1.7090    1.6690    3.4640 c1        1 INM     -0.086000
     14 C14         1.0490    1.1760    2.1090 c2        1 INM      0.030000
     15 C15        -0.4280    0.8300    2.3900 c1        1 INM     -1.223000
     16 S16        -0.6980    1.0950    3.8790 ss        1 INM      1.047000
     17 C17         0.6740    1.6270    4.5340 c1        1 INM     -1.182000
     18 S18         0.8940    2.1290    6.1950 ss        1 INM      2.897000
     19 N19         0.9240    0.7960    7.2040 n2        1 INM     -0.617500
     20 O20         2.0700    2.9150    6.3460 o         1 INM     -0.930000
     21 O21        -0.1510    3.0960    6.6070 o         1 INM     -0.930000
     22 HC21        1.5520    0.5750   -1.5710 h4        1 INM      0.173000
     23 H71         3.8890    0.6600    0.5930 hn        1 INM      0.202250
     24 H72         3.3230   -0.7410    0.9360 hn        1 INM      0.202250
     25 H81        -1.6720   -1.6530   -1.6920 h1        1 INM      0.105500
     26 H82        -2.4610   -0.4510   -2.3670 h1        1 INM      0.105500
     27 H91        -0.5900   -0.0070   -3.7970 hc        1 INM      0.113500
     28 H92         0.1910   -1.2620   -3.1300 hc        1 INM      0.113500
     29 H101       -1.3860   -2.7060   -4.0040 h1        1 INM      0.068000
     30 H102       -2.2320   -1.5330   -4.5460 h1        1 INM      0.068000
     31 H121       -0.9910   -3.7250   -6.1430 h1        1 INM      0.074333
     32 H122       -1.9340   -2.5950   -6.8110 h1        1 INM      0.074333
     33 H123       -0.4230   -2.7630   -7.3720 h1        1 INM      0.074333
     34 H131        2.6220    1.9490    3.5750 DU        1 INM      0.180000
     35 H191        1.7740    0.4150    7.4830 hn        1 INM      0.202250
     36 H192        0.1660    0.4700    7.5260 hn        1 INM      0.202250
@<TRIPOS>BOND
     1    1    2 1   
     2    1    3 1   
     3    1    8 1   
     4    2    6 1   
     5    2   22 1   
     6    3    4 1   
     7    3    5 1   
     8    6   14 1   
     9    7   23 1   
    10    7   24 1   
    11    8    9 1   
    12    8   25 1   
    13    8   26 1   
    14    9   10 1   
    15    9   27 1   
    16    9   28 1   
    17   10   11 1   
    18   10   29 1   
    19   10   30 1   
    20   11   12 1   
    21   12   31 1   
    22   12   32 1   
    23   12   33 1   
    24   13   14 1   
    25   13   17 1   
    26   14   15 1   
    27   15   16 1   
    28   16   17 1   
    29   18   20 1   
    30   18   21 1   
    31   19   35 1   
    32   19   36 1   
@<TRIPOS>SUBSTRUCTURE
     1 INM         1 TEMP              0 ****  ****    0 ROOT
