@<TRIPOS>MOLECULE
INN
   66    62     1     0     0
SMALL
bcc


@<TRIPOS>ATOM
      1 C0          2.4650    1.8630   -3.3320 c3        1 INN     -0.177000
      2 C           3.9990    1.9200   -3.3210 c1        1 INN      0.236000
      3 O           4.5950    1.9680   -2.2680 o         1 INN     -0.337000
      4 N           4.7370    1.8200   -4.5680 n2        1 INN     -0.197000
      5 O4          6.1180    1.8390   -4.5560 oh        1 INN     -0.241000
      6 C4          1.1040    0.9140   -1.4810 c1        1 INN      0.305000
      7 O1          0.2220    0.4890   -2.1980 o         1 INN     -0.395000
      8 CA          1.9360    2.1070   -1.9250 c3        1 INN     -0.118000
      9 CB          1.0770    3.3520   -1.9220 c3        1 INN     -0.158000
     10 C1          1.9750    4.5900   -1.9420 c3        1 INN     -0.109000
     11 C2          1.8980    5.3010   -0.5840 c3        1 INN     -0.211000
     12 C3          1.5110    5.5350   -3.0370 c3        1 INN     -0.211000
     13 N1          1.3890    0.2600   -0.2180 n2        1 INN     -0.350000
     14 C5          0.8210   -0.9930    0.0670 c3        1 INN      0.016000
     15 C6          1.8610   -1.8840    0.7730 c3        1 INN     -0.054000
     16 C7          3.1300   -1.9890   -0.1000 c3        1 INN     -0.214333
     17 C8          2.2220   -1.2780    2.1160 c3        1 INN     -0.214333
     18 C9          1.2800   -3.2660    0.9830 c3        1 INN     -0.214333
     19 C10        -0.3910   -0.8090    0.9750 c2        1 INN      0.279000
     20 O2         -0.3490   -0.0040    1.8910 o         1 INN     -0.378000
     21 N2         -1.6480   -1.5080    0.6710 n         1 INN     -0.338000
     22 C11        -2.8060   -1.2780    1.4800 c3        1 INN     -0.002000
     23 C13        -3.4750   -2.6090    1.8080 c1        1 INN      0.275000
     24 O3         -3.2960   -3.5700    1.0910 o         1 INN     -0.374000
     25 C12        -3.7730   -0.4040    0.7350 c3        1 INN     -0.220000
     26 N4         -6.9880   -4.8470    4.4040 n3        1 INN     -0.346000
     27 C15        -6.1960   -3.6720    4.2350 c3        1 INN     -0.097000
     28 C14        -5.2340   -3.8680    3.0470 c3        1 INN     -0.032000
     29 N3         -4.4160   -2.6870    2.8880 n2        1 INN     -0.373000
     30 H01         2.1720    0.9770   -3.6430 hc        1 INN      0.124500
     31 H02         2.1170    2.5530   -3.9360 hc        1 INN      0.124500
     32 HN          4.2850    1.7810   -5.3680 hn        1 INN      0.243000
     33 HO4         6.4220    1.9330   -5.3900 ho        1 INN      0.228000
     34 HA          2.6840    2.2280   -1.3130 hc        1 INN      0.129000
     35 HB1         0.5020    3.3530   -2.7140 hc        1 INN      0.096000
     36 HB2         0.5230    3.3630   -1.1200 hc        1 INN      0.096000
     37 H1          2.9000    4.3180   -2.1160 hc        1 INN      0.093000
     38 H21         0.9620    5.4860   -0.3650 hc        1 INN      0.076500
     39 H22         2.2890    4.7220    0.1090 hc        1 INN      0.076500
     40 H23         2.3990    6.1490   -0.6260 hc        1 INN      0.076500
     41 H31         2.1230    6.2920   -3.0950 hc        1 INN      0.076500
     42 H32         0.6090    5.8590   -2.8280 hc        1 INN      0.076500
     43 H33         1.4980    5.0600   -3.8940 hc        1 INN      0.076500
     44 HN1         1.9530    0.6510    0.3800 hn        1 INN      0.240000
     45 H5          0.5400   -1.4190   -0.7670 h1        1 INN      0.144000
     46 H71         3.6920   -2.7260    0.2270 hc        1 INN      0.083889
     47 H72         2.8740   -2.1600   -1.0260 hc        1 INN      0.083889
     48 H73         3.6350   -1.1440   -0.0490 hc        1 INN      0.083889
     49 H81         2.4250   -0.3300    2.0020 hc        1 INN      0.083889
     50 H82         1.4660   -1.3790    2.7350 hc        1 INN      0.083889
     51 H83         3.0110   -1.7400    2.4820 hc        1 INN      0.083889
     52 H91         0.6290   -3.2380    1.7100 hc        1 INN      0.083889
     53 H92         2.0040   -3.8950    1.2140 hc        1 INN      0.083889
     54 H93         0.8370   -3.5640    0.1600 hc        1 INN      0.083889
     55 HN2        -1.7020   -2.0500   -0.0540 hn        1 INN      0.236000
     56 H11        -2.5390   -0.8340    2.3110 h1        1 INN      0.140000
     57 H121       -4.5330   -0.1860    1.3190 hc        1 INN      0.091000
     58 H122       -4.0990   -0.8820   -0.0670 hc        1 INN      0.091000
     59 H123       -3.3250    0.4190    0.4640 hc        1 INN      0.091000
     60 HN41       -7.8760   -4.6290    4.3360 hn        1 INN      0.149000
     61 HN42       -6.8250   -5.2110    5.2330 hn        1 INN      0.149000
     62 H151       -6.7820   -2.9060    4.0590 h1        1 INN      0.066000
     63 H152       -5.6800   -3.5070    5.0490 h1        1 INN      0.066000
     64 H141       -4.6570   -4.6450    3.2180 h1        1 INN      0.109000
     65 H142       -5.7560   -4.0200    2.2220 h1        1 INN      0.109000
     66 HN3        -4.5470   -1.9720    3.4240 hn        1 INN      0.223000
@<TRIPOS>BOND
     1    1    2 1   
     2    1    8 1   
     3    1   30 1   
     4    1   31 1   
     5    2    3 1   
     6    4    5 1   
     7    4   32 1   
     8    5   33 1   
     9    6    7 1   
    10    6    8 1   
    11    8    9 1   
    12    8   34 1   
    13    9   10 1   
    14    9   35 1   
    15    9   36 1   
    16   10   11 1   
    17   10   12 1   
    18   10   37 1   
    19   11   38 1   
    20   11   39 1   
    21   11   40 1   
    22   12   41 1   
    23   12   42 1   
    24   12   43 1   
    25   13   14 1   
    26   13   44 1   
    27   14   15 1   
    28   14   19 1   
    29   14   45 1   
    30   15   16 1   
    31   15   17 1   
    32   15   18 1   
    33   16   46 1   
    34   16   47 1   
    35   16   48 1   
    36   17   49 1   
    37   17   50 1   
    38   17   51 1   
    39   18   52 1   
    40   18   53 1   
    41   18   54 1   
    42   19   20 1   
    43   19   21 1   
    44   21   22 1   
    45   21   55 1   
    46   22   23 1   
    47   22   25 1   
    48   22   56 1   
    49   23   24 1   
    50   25   57 1   
    51   25   58 1   
    52   25   59 1   
    53   26   27 1   
    54   26   60 1   
    55   26   61 1   
    56   27   28 1   
    57   27   62 1   
    58   27   63 1   
    59   28   29 1   
    60   28   64 1   
    61   28   65 1   
    62   29   66 1   
@<TRIPOS>SUBSTRUCTURE
     1 INN         1 TEMP              0 ****  ****    0 ROOT
