@<TRIPOS>MOLECULE
INN
   66    65     1     0     0
SMALL
bcc


@<TRIPOS>ATOM
      1 C0         -4.4340    0.0590    1.2730 c3        1 INN     -0.151400
      2 C          -5.7750   -0.2830    0.6660 c         1 INN      0.591100
      3 O          -5.9160   -0.7670   -0.4700 o         1 INN     -0.568100
      4 N          -6.9310    0.0790    1.4290 n         1 INN     -0.353400
      5 O4         -8.0450   -0.5820    1.1030 oh        1 INN     -0.437100
      6 C4         -2.0390   -0.4030    0.7660 c         1 INN      0.660100
      7 O1         -1.8600   -0.6020    1.9850 o         1 INN     -0.617100
      8 CA         -3.3390    0.1950    0.2230 c3        1 INN     -0.128700
      9 CB         -3.0820    1.6470   -0.1590 c3        1 INN     -0.077400
     10 C1         -4.2630    2.3000   -0.8630 c3        1 INN     -0.066700
     11 C2         -4.4650    1.7380   -2.2540 c3        1 INN     -0.095100
     12 C3         -4.0520    3.8000   -0.9260 c3        1 INN     -0.095100
     13 N1         -1.0830   -0.7600   -0.1670 n         1 INN     -0.546900
     14 C5          0.2420   -1.1810    0.2110 c3        1 INN      0.044700
     15 C6          0.7110   -2.4660   -0.5330 c3        1 INN     -0.054000
     16 C7         -0.2010   -3.6220   -0.1390 c3        1 INN     -0.095767
     17 C8          0.6720   -2.2810   -2.0400 c3        1 INN     -0.095767
     18 C9          2.1300   -2.8010   -0.0940 c3        1 INN     -0.095767
     19 C10         1.2590   -0.0370   -0.0510 c         1 INN      0.634100
     20 O2          1.1680    0.6980   -1.0560 o         1 INN     -0.615100
     21 N2          2.2160    0.1890    0.9250 n         1 INN     -0.530900
     22 C11         3.3110    1.1020    0.6990 c3        1 INN      0.024700
     23 C13         4.6110    0.3570    0.2950 c         1 INN      0.629100
     24 O3          4.8030   -0.8350    0.6130 o         1 INN     -0.619100
     25 C12         3.6370    1.9370    1.9390 c3        1 INN     -0.102100
     26 N4          9.2450    0.5330   -0.3830 n3        1 INN     -0.914800
     27 C15         7.9680    1.0150    0.0830 c3        1 INN      0.133800
     28 C14         6.8060    0.5330   -0.8210 c3        1 INN      0.084000
     29 N3          5.5290    1.0690   -0.4440 n         1 INN     -0.560900
     30 H01        -4.5010    1.0060    1.8730 hc        1 INN      0.090700
     31 H02        -4.1760   -0.7700    1.9900 hc        1 INN      0.090700
     32 HN         -6.7900   -0.0350    2.4270 hn        1 INN      0.298500
     33 HO4        -8.3130   -0.2360    0.2280 ho        1 INN      0.435000
     34 HA         -3.6490   -0.3790   -0.7000 hc        1 INN      0.101700
     35 HB1        -2.8380    2.2300    0.7700 hc        1 INN      0.053200
     36 HB2        -2.1850    1.7040   -0.8320 hc        1 INN      0.053200
     37 H1         -5.1940    2.0950   -0.2610 hc        1 INN      0.048700
     38 H21        -3.5230    1.8050   -2.8490 hc        1 INN      0.038200
     39 H22        -4.7840    0.6680   -2.2000 hc        1 INN      0.038200
     40 H23        -5.2600    2.3130   -2.7880 hc        1 INN      0.038200
     41 H31        -4.9210    4.2900   -1.4270 hc        1 INN      0.038200
     42 H32        -3.9490    4.2250    0.1010 hc        1 INN      0.038200
     43 H33        -3.1280    4.0410   -1.5040 hc        1 INN      0.038200
     44 HN1        -1.1910   -0.4600   -1.1100 hn        1 INN      0.325500
     45 H5          0.2210   -1.4220    1.3190 h1        1 INN      0.103700
     46 H71        -1.2480   -3.4410   -0.4800 hc        1 INN      0.043922
     47 H72         0.1630   -4.5660   -0.6130 hc        1 INN      0.043922
     48 H73        -0.2030   -3.7570    0.9690 hc        1 INN      0.043922
     49 H81         1.1700   -1.3240   -2.3320 hc        1 INN      0.043922
     50 H82         1.2040   -3.1280   -2.5390 hc        1 INN      0.043922
     51 H83        -0.3800   -2.2650   -2.4130 hc        1 INN      0.043922
     52 H91         2.2030   -2.8280    1.0200 hc        1 INN      0.043922
     53 H92         2.4170   -3.8060   -0.4880 hc        1 INN      0.043922
     54 H93         2.8650   -2.0560   -0.4860 hc        1 INN      0.043922
     55 HN2         2.4060   -0.5510    1.5670 hn        1 INN      0.321500
     56 H11         3.0040    1.7980   -0.1410 h1        1 INN      0.102700
     57 H121        3.9890    1.2900    2.7770 hc        1 INN      0.051367
     58 H122        4.4410    2.6690    1.6860 hc        1 INN      0.051367
     59 H123        2.7340    2.5000    2.2760 hc        1 INN      0.051367
     60 HN41        9.9680    0.8030    0.2530 hn        1 INN      0.353300
     61 HN42        9.2420   -0.4630   -0.4750 hn        1 INN      0.353300
     62 H151        8.0080    2.1420    0.0670 h1        1 INN      0.029200
     63 H152        7.7430    0.7040    1.1460 h1        1 INN      0.029200
     64 H141        6.7500   -0.5930   -0.7810 h1        1 INN      0.070200
     65 H142        7.0140    0.8440   -1.8850 h1        1 INN      0.070200
     66 HN3         5.3770    2.0360   -0.5980 hn        1 INN      0.311500
@<TRIPOS>BOND
     1    1    2 1   
     2    1    8 1   
     3    1   30 1   
     4    1   31 1   
     5    2    3 2   
     6    2    4 1   
     7    4    5 1   
     8    4   32 1   
     9    5   33 1   
    10    6    7 2   
    11    6    8 1   
    12    6   13 1   
    13    8    9 1   
    14    8   34 1   
    15    9   10 1   
    16    9   35 1   
    17    9   36 1   
    18   10   11 1   
    19   10   12 1   
    20   10   37 1   
    21   11   38 1   
    22   11   39 1   
    23   11   40 1   
    24   12   41 1   
    25   12   42 1   
    26   12   43 1   
    27   13   14 1   
    28   13   44 1   
    29   14   15 1   
    30   14   19 1   
    31   14   45 1   
    32   15   16 1   
    33   15   17 1   
    34   15   18 1   
    35   16   46 1   
    36   16   47 1   
    37   16   48 1   
    38   17   49 1   
    39   17   50 1   
    40   17   51 1   
    41   18   52 1   
    42   18   53 1   
    43   18   54 1   
    44   19   20 2   
    45   19   21 1   
    46   21   22 1   
    47   21   55 1   
    48   22   23 1   
    49   22   25 1   
    50   22   56 1   
    51   23   24 2   
    52   23   29 1   
    53   25   57 1   
    54   25   58 1   
    55   25   59 1   
    56   26   27 1   
    57   26   60 1   
    58   26   61 1   
    59   27   28 1   
    60   27   62 1   
    61   27   63 1   
    62   28   29 1   
    63   28   64 1   
    64   28   65 1   
    65   29   66 1   
@<TRIPOS>SUBSTRUCTURE
     1 INN         1 TEMP              0 ****  ****    0 ROOT
