@<TRIPOS>MOLECULE
INO
   15    12     1     0     0
SMALL
bcc


@<TRIPOS>ATOM
      1 N1         -1.0680   -0.0960   -1.3990 n1        1 INO     -0.072800
      2 C2          0.2880   -0.2290   -1.3970 c1        1 INO      0.035600
      3 C3          0.9880   -0.1810   -0.2020 c1        1 INO     -0.039500
      4 C4          0.3180    0.0000    0.9740 cg        1 INO     -0.064200
      5 C5         -1.0400    0.1340    0.9700 c1        1 INO     -0.061500
      6 C6         -1.7380    0.0850   -0.2270 c1        1 INO      0.224300
      7 C7          1.0850    0.1040    2.2730 c         1 INO      0.862800
      8 O1          1.4650    1.2290    2.6920 o         1 INO     -0.816800
      9 O2          1.3310   -0.9330    2.9430 o         1 INO     -0.816800
     10 O3          0.9770   -0.4330   -2.6070 oh        1 INO     -0.486600
     11 O4         -1.7560   -0.1380   -2.5790 o         1 INO     -0.558000
     12 H3          1.9590   -0.2760   -0.2000 ha        1 INO      0.127500
     13 H5         -1.5220    0.2450    1.8120 ha        1 INO      0.117500
     14 H6         -2.7090    0.1820   -0.2300 ha        1 INO      0.105500
     15 HO3         1.4210    0.3060   -2.8230 ho        1 INO      0.444000
@<TRIPOS>BOND
     1    1    6 3   
     2    1   11 1   
     3    2    3 3   
     4    2   10 1   
     5    3   12 1   
     6    4    5 3   
     7    4    7 1   
     8    5   13 1   
     9    6   14 1   
    10    7    8 1   
    11    7    9 1   
    12   10   15 1   
@<TRIPOS>SUBSTRUCTURE
     1 INO         1 TEMP              0 ****  ****    0 ROOT
