@<TRIPOS>MOLECULE
INO
   15    15     1     0     0
SMALL
bcc


@<TRIPOS>ATOM
      1 N1          0.0500   -0.1590   -0.0700 na        1 INO      0.151600
      2 C2          1.4440   -0.1410    0.0410 ca        1 INO      0.027800
      3 C3          2.0980   -0.0710    1.2820 ca        1 INO     -0.097000
      4 C4          1.3400   -0.0180    2.4510 ca        1 INO     -0.115600
      5 C5         -0.0550   -0.0360    2.3490 ca        1 INO     -0.119000
      6 C6         -0.6790   -0.1050    1.1030 ca        1 INO     -0.183300
      7 C7          2.0160    0.0580    3.8180 c         1 INO      0.914200
      8 O1          3.2760    0.0710    3.8460 o         1 INO     -0.816800
      9 O2          1.2650    0.1040    4.8310 o         1 INO     -0.816800
     10 O3          2.2040   -0.1940   -1.1070 oh        1 INO     -0.503100
     11 O4         -0.4780   -0.2220   -1.1940 o         1 INO     -0.408000
     12 H3          3.1980   -0.0590    1.3280 ha        1 INO      0.185000
     13 H5         -0.6580    0.0060    3.2710 ha        1 INO      0.175000
     14 H6         -1.7730   -0.1220    0.9760 h4        1 INO      0.163000
     15 HO3         1.6050   -0.2380   -1.8750 ho        1 INO      0.444000
@<TRIPOS>BOND
     1    1    2 1   
     2    1    6 2   
     3    1   11 1   
     4    2    3 ar  
     5    2   10 1   
     6    3    4 ar  
     7    3   12 1   
     8    4    5 ar  
     9    4    7 1   
    10    5    6 ar  
    11    5   13 1   
    12    6   14 1   
    13    7    8 1   
    14    7    9 1   
    15   10   15 1   
@<TRIPOS>SUBSTRUCTURE
     1 INO         1 TEMP              0 ****  ****    0 ROOT
