@<TRIPOS>MOLECULE
INO
   15    15     1     0     0
SMALL
bcc


@<TRIPOS>ATOM
      1 N1         -1.8630    0.4780   -0.1530 na        1 INO      0.151600
      2 C2         -1.3020   -0.8030   -0.1370 ca        1 INO      0.027800
      3 C3          0.0840   -1.0160   -0.0560 ca        1 INO     -0.097000
      4 C4          0.9400    0.0830    0.0110 ca        1 INO     -0.115600
      5 C5          0.3870    1.3670   -0.0050 ca        1 INO     -0.119000
      6 C6         -0.9930    1.5500   -0.0860 ca        1 INO     -0.183300
      7 C7          2.4520   -0.1090    0.0990 c         1 INO      0.914200
      8 O1          2.8910   -1.2900    0.1100 o         1 INO     -0.816800
      9 O2          3.1630    0.9320    0.1570 o         1 INO     -0.816800
     10 O3         -2.1380   -1.8970   -0.2020 oh        1 INO     -0.503100
     11 O4         -3.0980    0.6090   -0.2260 o         1 INO     -0.408000
     12 H3          0.4860   -2.0400   -0.0460 ha        1 INO      0.185000
     13 H5          1.0600    2.2390    0.0480 ha        1 INO      0.175000
     14 H6         -1.4720    2.5420   -0.1010 h4        1 INO      0.163000
     15 HO3        -3.0600   -1.5820   -0.2540 ho        1 INO      0.444000
@<TRIPOS>BOND
     1    1    2 1   
     2    1    6 2   
     3    1   11 1   
     4    2    3 ar  
     5    2   10 1   
     6    3    4 ar  
     7    3   12 1   
     8    4    5 ar  
     9    4    7 1   
    10    5    6 ar  
    11    5   13 1   
    12    6   14 1   
    13    7    8 1   
    14    7    9 1   
    15   10   15 1   
@<TRIPOS>SUBSTRUCTURE
     1 INO         1 TEMP              0 ****  ****    0 ROOT
