@<TRIPOS>MOLECULE
INP
   88    90     1     0     0
SMALL
bcc


@<TRIPOS>ATOM
      1 C1          0.3770   -0.8220    1.5430 ca        1 INP     -0.128000
      2 C2          1.7060   -0.6430    1.1640 ca        1 INP     -0.091500
      3 C3          2.6860   -0.3940    2.1360 ca        1 INP     -0.195300
      4 C4          2.3220   -0.3250    3.4880 ca        1 INP     -0.091500
      5 C5          0.9940   -0.5090    3.8620 ca        1 INP     -0.128000
      6 C6          0.0200   -0.7580    2.8910 ca        1 INP     -0.072000
      7 C7          4.1050   -0.2850    1.7390 c3        1 INP      0.221700
      8 O8          4.3430    1.0260    1.0850 os        1 INP     -0.398900
      9 C9          4.7390    2.0480    1.8390 c         1 INP      0.645100
     10 O10         5.1300    2.0300    3.0010 o         1 INP     -0.482000
     11 N11         4.7030    3.3270    1.0430 ny        1 INP     -0.644800
     12 C12         6.0350    4.0360    1.0450 c3        1 INP      0.137500
     13 C13         5.9680    5.4150    1.7520 c3        1 INP      0.129800
     14 N14         5.4760    5.3480    3.1190 n3        1 INP     -0.737600
     15 C15         6.4180    4.7840    4.0920 c3        1 INP      0.144800
     16 C16         4.9610    6.6240    3.6250 c3        1 INP      0.063800
     17 C17         5.5230    6.8600    5.0030 c         1 INP      0.570100
     18 C18         6.2680    5.5770    5.4280 c3        1 INP     -0.034500
     19 C19         6.5620    4.2620   -0.3780 c3        1 INP     -0.116400
     20 C20         6.7370    2.9920   -1.2020 c3        1 INP     -0.076700
     21 C21         7.4300    3.3500   -2.5050 c3        1 INP     -0.102600
     22 C22         7.5240    1.9310   -0.4640 c3        1 INP     -0.102600
     23 N23         7.5590    5.8520    6.1390 ny        1 INP     -0.648800
     24 C24         7.4100    5.8300    7.6400 c         1 INP      0.530100
     25 O25         7.5780    4.7560    8.1930 o         1 INP     -0.365100
     26 C26         7.1080    7.1660    8.3260 c3        1 INP      0.067500
     27 C27         8.4230    7.9410    8.5230 c3        1 INP     -0.114400
     28 C28         8.1840    9.4310    8.7520 c3        1 INP     -0.067700
     29 C29         9.4490   10.0530    9.3160 c3        1 INP     -0.112100
     30 C30         7.7830   10.1310    7.4710 c3        1 INP     -0.112100
     31 N31         6.4020    6.9330    9.6300 ny        1 INP     -0.658800
     32 C32         5.0130    6.3500    9.4350 c         1 INP      0.648100
     33 O33         4.7420    5.7800    8.3820 o         1 INP     -0.501000
     34 O34         4.2690    6.5630   10.5030 os        1 INP     -0.379900
     35 C35         2.8670    6.0070   10.4950 c3        1 INP      0.237700
     36 C36         2.3490    6.3490   11.8330 ca        1 INP     -0.137300
     37 C37         1.6710    7.5580   12.0450 ca        1 INP     -0.204800
     38 C38         1.1430    7.8100   13.3260 ca        1 INP      0.413700
     39 N39         1.2650    6.9550   14.3590 nb        1 INP     -0.592000
     40 C40         1.9200    5.7980   14.1430 ca        1 INP      0.413700
     41 C41         2.4850    5.4490   12.9000 ca        1 INP     -0.204800
     42 O42         5.4600    7.8570    5.7090 o         1 INP     -0.477100
     43 H1         -0.3890   -1.0300    0.7790 ha        1 INP      0.159000
     44 H2          1.9900   -0.7160    0.1020 ha        1 INP      0.138000
     45 H4          3.0910   -0.1520    4.2560 ha        1 INP      0.138000
     46 H5          0.7120   -0.4770    4.9260 ha        1 INP      0.159000
     47 H6         -1.0290   -0.9160    3.1910 ha        1 INP      0.164000
     48 H71         4.8170   -0.3920    2.5960 h1        1 INP      0.105700
     49 H72         4.3720   -0.9710    0.8850 h1        1 INP      0.105700
     50 HN1         4.4370    3.0990    0.0700 hn        1 INP      0.479800
     51 H12         6.7610    3.3690    1.6040 hx        1 INP      0.114700
     52 H131        7.0100    5.8480    1.6830 h1        1 INP      0.089200
     53 H132        5.2810    6.0920    1.1640 h1        1 INP      0.089200
     54 H151        6.1150    3.7080    4.2610 h1        1 INP      0.097200
     55 H152        7.4810    4.8000    3.7200 h1        1 INP      0.097200
     56 H161        5.2030    7.5080    2.9660 h1        1 INP      0.131200
     57 H162        3.8340    6.5430    3.6920 h1        1 INP      0.131200
     58 H18         5.5990    4.9910    6.1340 hx        1 INP      0.168700
     59 H191        5.8910    4.9720   -0.9310 hc        1 INP      0.088200
     60 H192        7.5660    4.7600   -0.2760 hc        1 INP      0.088200
     61 H20         5.7240    2.5710   -1.4640 hc        1 INP      0.044700
     62 H211        6.8670    4.1480   -3.0460 hc        1 INP      0.054700
     63 H212        7.4850    2.4490   -3.1650 hc        1 INP      0.054700
     64 H213        8.4700    3.7090   -2.3140 hc        1 INP      0.054700
     65 H221        8.4850    2.3440   -0.0730 hc        1 INP      0.054700
     66 H222        7.7660    1.0870   -1.1570 hc        1 INP      0.054700
     67 H223        6.9310    1.5180    0.3900 hc        1 INP      0.054700
     68 HN2         8.2410    5.1200    5.8740 hn        1 INP      0.479800
     69 H26         6.3980    7.7810    7.6750 hx        1 INP      0.178700
     70 H271        9.0110    7.5110    9.3810 hc        1 INP      0.092200
     71 H272        9.0520    7.8180    7.6010 hc        1 INP      0.092200
     72 H28         7.3610    9.5670    9.5100 hc        1 INP      0.042700
     73 H291        9.2900   11.1490    9.4760 hc        1 INP      0.064367
     74 H292       10.3040    9.9230    8.6100 hc        1 INP      0.064367
     75 H293        9.7180    9.5910   10.2970 hc        1 INP      0.064367
     76 H301        7.5560   11.2070    7.6860 hc        1 INP      0.064367
     77 H302        8.6170   10.1040    6.7280 hc        1 INP      0.064367
     78 H303        6.8740    9.6700    7.0140 hc        1 INP      0.064367
     79 HN3         6.3250    7.8370   10.1300 hn        1 INP      0.499300
     80 H351        2.9680    4.9070   10.3150 h1        1 INP      0.091200
     81 H352        2.3380    6.5250    9.6560 h1        1 INP      0.091200
     82 H37         1.5330    8.2900   11.2380 ha        1 INP      0.150500
     83 H38         0.5890    8.7470   13.5390 h4        1 INP      0.060100
     84 H40         1.9920    5.1150   15.0120 h4        1 INP      0.060100
     85 H41         3.0010    4.4870   12.7800 ha        1 INP      0.150500
     86 H112        3.9750    3.9260    1.4500 hn        1 INP      0.479800
     87 H232        7.9250    6.7690    5.8470 hn        1 INP      0.479800
     88 H312        6.9430    6.2860   10.2260 hn        1 INP      0.499300
@<TRIPOS>BOND
     1    1    2 ar  
     2    1    6 ar  
     3    1   43 1   
     4    2    3 ar  
     5    2   44 1   
     6    3    4 ar  
     7    3    7 1   
     8    4    5 ar  
     9    4   45 1   
    10    5    6 ar  
    11    5   46 1   
    12    6   47 1   
    13    7    8 1   
    14    7   48 1   
    15    7   49 1   
    16    8    9 1   
    17    9   10 2   
    18    9   11 1   
    19   11   12 1   
    20   11   50 1   
    21   11   86 1   
    22   12   13 1   
    23   12   19 1   
    24   12   51 1   
    25   13   14 1   
    26   13   52 1   
    27   13   53 1   
    28   14   15 1   
    29   14   16 1   
    30   15   18 1   
    31   15   54 1   
    32   15   55 1   
    33   16   17 1   
    34   16   56 1   
    35   16   57 1   
    36   17   18 1   
    37   17   42 2   
    38   18   23 1   
    39   18   58 1   
    40   19   20 1   
    41   19   59 1   
    42   19   60 1   
    43   20   21 1   
    44   20   22 1   
    45   20   61 1   
    46   21   62 1   
    47   21   63 1   
    48   21   64 1   
    49   22   65 1   
    50   22   66 1   
    51   22   67 1   
    52   23   24 1   
    53   23   68 1   
    54   23   87 1   
    55   24   25 2   
    56   24   26 1   
    57   26   27 1   
    58   26   31 1   
    59   26   69 1   
    60   27   28 1   
    61   27   70 1   
    62   27   71 1   
    63   28   29 1   
    64   28   30 1   
    65   28   72 1   
    66   29   73 1   
    67   29   74 1   
    68   29   75 1   
    69   30   76 1   
    70   30   77 1   
    71   30   78 1   
    72   31   32 1   
    73   31   79 1   
    74   31   88 1   
    75   32   33 2   
    76   32   34 1   
    77   34   35 1   
    78   35   36 1   
    79   35   80 1   
    80   35   81 1   
    81   36   37 ar  
    82   36   41 ar  
    83   37   38 ar  
    84   37   82 1   
    85   38   39 ar  
    86   38   83 1   
    87   39   40 ar  
    88   40   41 ar  
    89   40   84 1   
    90   41   85 1   
@<TRIPOS>SUBSTRUCTURE
     1 INP         1 TEMP              0 ****  ****    0 ROOT
