@<TRIPOS>MOLECULE
INP
   85    87     1     0     0
SMALL
bcc


@<TRIPOS>ATOM
      1 C1         -4.8500   -1.7220    7.8790 ca        1 INP     -0.131500
      2 C2         -3.7030   -1.0230    7.5030 ca        1 INP     -0.111000
      3 C3         -3.8090    0.2720    6.9860 ca        1 INP     -0.096300
      4 C4         -5.0710    0.8610    6.8450 ca        1 INP     -0.111000
      5 C5         -6.2140    0.1620    7.2290 ca        1 INP     -0.131500
      6 C6         -6.1050   -1.1290    7.7450 ca        1 INP     -0.123000
      7 C7         -2.5970    1.0560    6.6140 c3        1 INP      0.196700
      8 O8         -1.6490    0.1380    6.0300 os        1 INP     -0.447900
      9 C9         -0.4970    0.7300    5.5470 c         1 INP      0.730100
     10 O10        -0.3130    1.9400    5.7570 o         1 INP     -0.580000
     11 N11         0.2830   -0.1520    4.8180 n         1 INP     -0.518900
     12 C12         1.6740    0.1650    4.5660 c3        1 INP      0.090700
     13 C13         2.0960   -0.2630    3.1290 c3        1 INP      0.171800
     14 N14         1.4870    0.5420    2.0890 n3        1 INP     -0.723600
     15 C15         2.2590    0.5660    0.8430 c3        1 INP      0.150800
     16 C16         0.0960    0.2220    1.7820 c3        1 INP      0.061800
     17 C17        -0.0810    0.2340    0.2770 c         1 INP      0.538100
     18 C18         1.2610    0.6220   -0.3580 c3        1 INP     -0.021300
     19 C19         2.6560   -0.5160    5.5350 c3        1 INP     -0.106400
     20 C20         2.4640   -0.1190    6.9900 c3        1 INP     -0.066700
     21 C21         3.3790   -0.9520    7.8670 c3        1 INP     -0.097600
     22 C22         2.7270    1.3570    7.2080 c3        1 INP     -0.097600
     23 N23         1.6450   -0.1890   -1.4780 n         1 INP     -0.544900
     24 C24         1.8970    0.3550   -2.7210 c         1 INP      0.629100
     25 O25         1.9240    1.5870   -2.9110 o         1 INP     -0.600100
     26 C26         2.2190   -0.6340   -3.8740 c3        1 INP      0.035700
     27 C27         3.7520   -0.7260   -3.9400 c3        1 INP     -0.076400
     28 C28         4.2480   -1.8390   -4.8500 c3        1 INP     -0.068700
     29 C29         5.7250   -1.6390   -5.1340 c3        1 INP     -0.093600
     30 C30         4.0180   -3.2050   -4.2380 c3        1 INP     -0.093600
     31 N31         1.6330   -0.1890   -5.1190 n         1 INP     -0.504900
     32 C32         0.4320   -0.7480   -5.5280 c         1 INP      0.731100
     33 O33        -0.0660   -1.8330   -5.1830 o         1 INP     -0.584000
     34 O34        -0.2070    0.0060   -6.4910 os        1 INP     -0.436900
     35 C35        -1.3760   -0.6180   -7.0610 c3        1 INP      0.190700
     36 C36        -1.9150    0.2980   -8.1050 ca        1 INP     -0.056300
     37 C37        -1.7050    1.6800   -8.0690 ca        1 INP     -0.231300
     38 C38        -2.2780    2.4730   -9.0800 ca        1 INP      0.392700
     39 N39        -3.0250    1.9760  -10.0840 nb        1 INP     -0.662000
     40 C40        -3.2200    0.6420  -10.1040 ca        1 INP      0.392700
     41 C41        -2.6870   -0.2370   -9.1460 ca        1 INP     -0.231300
     42 O42        -1.1150   -0.0220   -0.3280 o         1 INP     -0.497100
     43 H1         -4.7620   -2.7410    8.2820 ha        1 INP      0.133000
     44 H2         -2.7100   -1.4880    7.6020 ha        1 INP      0.137500
     45 H4         -5.1600    1.8770    6.4320 ha        1 INP      0.137500
     46 H5         -7.2030    0.6300    7.1210 ha        1 INP      0.133000
     47 H6         -7.0090   -1.6800    8.0440 ha        1 INP      0.132000
     48 H71        -2.1230    1.5210    7.5210 h1        1 INP      0.064700
     49 H72        -2.8290    1.8600    5.8660 h1        1 INP      0.064700
     50 HN1         0.0550   -1.1180    4.9050 hn        1 INP      0.310500
     51 H12         1.7930    1.2880    4.6590 h1        1 INP      0.109700
     52 H131        3.2120   -0.1130    3.0680 h1        1 INP      0.038700
     53 H132        1.8900   -1.3660    2.9990 h1        1 INP      0.038700
     54 H151        2.8840    1.4990    0.8540 h1        1 INP      0.054700
     55 H152        2.9500   -0.3170    0.7480 h1        1 INP      0.054700
     56 H161       -0.2320   -0.7790    2.1810 h1        1 INP      0.085200
     57 H162       -0.5530    1.0140    2.2500 h1        1 INP      0.085200
     58 H18         1.1760    1.6980   -0.7030 h1        1 INP      0.126700
     59 H191        3.6970   -0.2380    5.2210 hc        1 INP      0.047700
     60 H192        2.5630   -1.6300    5.4420 hc        1 INP      0.047700
     61 H20         1.3990   -0.3350    7.2910 hc        1 INP      0.045700
     62 H211        3.2210   -0.6940    8.9410 hc        1 INP      0.039533
     63 H212        3.1710   -2.0400    7.7290 hc        1 INP      0.039533
     64 H213        4.4480   -0.7590    7.6100 hc        1 INP      0.039533
     65 H221        3.7230    1.6460    6.7960 hc        1 INP      0.039533
     66 H222        1.9370    1.9730    6.7080 hc        1 INP      0.039533
     67 H223        2.7150    1.5920    8.3000 hc        1 INP      0.039533
     68 HN2         1.4930   -1.1670   -1.4030 hn        1 INP      0.316500
     69 H26         1.7980   -1.6610   -3.6440 h1        1 INP      0.101700
     70 H271        4.1690    0.2570   -4.2850 hc        1 INP      0.059200
     71 H272        4.1270   -0.9040   -2.8970 hc        1 INP      0.059200
     72 H28         3.6920   -1.7880   -5.8290 hc        1 INP      0.065700
     73 H291        6.1020   -2.4530   -5.7980 hc        1 INP      0.036033
     74 H292        5.8970   -0.6590   -5.6420 hc        1 INP      0.036033
     75 H293        6.3130   -1.6550   -4.1850 hc        1 INP      0.036033
     76 H301        4.5230   -3.2840   -3.2450 hc        1 INP      0.036033
     77 H302        2.9280   -3.4010   -4.1010 hc        1 INP      0.036033
     78 H303        4.4330   -3.9980   -4.9070 hc        1 INP      0.036033
     79 HN3         1.7930    0.7670   -5.3610 hn        1 INP      0.334500
     80 H351       -1.0810   -1.6110   -7.4920 h1        1 INP      0.071200
     81 H352       -2.1290   -0.7780   -6.2420 h1        1 INP      0.071200
     82 H37        -1.1000    2.1350   -7.2720 ha        1 INP      0.151500
     83 H38        -2.1320    3.5680   -9.0860 h4        1 INP      0.023600
     84 H40        -3.8360    0.2600  -10.9380 h4        1 INP      0.023600
     85 H41        -2.8740   -1.3160   -9.2160 ha        1 INP      0.151500
@<TRIPOS>BOND
     1    1    2 ar  
     2    1    6 ar  
     3    1   43 1   
     4    2    3 ar  
     5    2   44 1   
     6    3    4 ar  
     7    3    7 1   
     8    4    5 ar  
     9    4   45 1   
    10    5    6 ar  
    11    5   46 1   
    12    6   47 1   
    13    7    8 1   
    14    7   48 1   
    15    7   49 1   
    16    8    9 1   
    17    9   10 2   
    18    9   11 1   
    19   11   12 1   
    20   11   50 1   
    21   12   13 1   
    22   12   19 1   
    23   12   51 1   
    24   13   14 1   
    25   13   52 1   
    26   13   53 1   
    27   14   15 1   
    28   14   16 1   
    29   15   18 1   
    30   15   54 1   
    31   15   55 1   
    32   16   17 1   
    33   16   56 1   
    34   16   57 1   
    35   17   18 1   
    36   17   42 2   
    37   18   23 1   
    38   18   58 1   
    39   19   20 1   
    40   19   59 1   
    41   19   60 1   
    42   20   21 1   
    43   20   22 1   
    44   20   61 1   
    45   21   62 1   
    46   21   63 1   
    47   21   64 1   
    48   22   65 1   
    49   22   66 1   
    50   22   67 1   
    51   23   24 1   
    52   23   68 1   
    53   24   25 2   
    54   24   26 1   
    55   26   27 1   
    56   26   31 1   
    57   26   69 1   
    58   27   28 1   
    59   27   70 1   
    60   27   71 1   
    61   28   29 1   
    62   28   30 1   
    63   28   72 1   
    64   29   73 1   
    65   29   74 1   
    66   29   75 1   
    67   30   76 1   
    68   30   77 1   
    69   30   78 1   
    70   31   32 1   
    71   31   79 1   
    72   32   33 2   
    73   32   34 1   
    74   34   35 1   
    75   35   36 1   
    76   35   80 1   
    77   35   81 1   
    78   36   37 ar  
    79   36   41 ar  
    80   37   38 ar  
    81   37   82 1   
    82   38   39 ar  
    83   38   83 1   
    84   39   40 ar  
    85   40   41 ar  
    86   40   84 1   
    87   41   85 1   
@<TRIPOS>SUBSTRUCTURE
     1 INP         1 TEMP              0 ****  ****    0 ROOT
