@<TRIPOS>MOLECULE
INP
   85    82     1     0     0
SMALL
bcc


@<TRIPOS>ATOM
      1 C1          2.0660   -4.6270   -9.3130 c1        1 INP     -0.122750
      2 C2          1.5490   -4.6270   -8.0320 c1        1 INP     -0.120000
      3 C3          2.3990   -4.4920   -6.9380 c1        1 INP     -0.089000
      4 C4          3.7690   -4.3580   -7.1360 c1        1 INP     -0.122750
      5 C5          4.2900   -4.3580   -8.4280 c1        1 INP     -0.122750
      6 C6          3.4490   -4.4910   -9.5100 c1        1 INP     -0.122750
      7 C7          1.8400   -4.5790   -5.5240 c3        1 INP      0.039000
      8 O8          1.7160   -3.2360   -4.9640 os        1 INP     -0.283000
      9 C9          1.7620   -3.1990   -3.5600 c2        1 INP      0.388000
     10 O10         1.6540   -4.2350   -2.9190 o         1 INP     -0.401000
     11 N11         2.0060   -1.9590   -2.8830 n         1 INP     -0.338000
     12 C12         2.0240   -1.9150   -1.4580 c3        1 INP      0.021000
     13 C13         1.0930   -0.8420   -0.9760 c3        1 INP     -0.080000
     14 N14         1.1500   -0.7730    0.4580 n3        1 INP     -0.249000
     15 C15         1.1440    0.4410    0.8250 c3        1 INP     -0.091000
     16 C16        -0.1490   -1.4850    1.0850 c3        1 INP     -0.142000
     17 C17        -0.2500   -0.9340    2.3100 c2        1 INP      0.204000
     18 C18         0.3990    0.4880    2.2090 c3        1 INP     -0.042000
     19 C19         3.4460   -1.6160   -0.9730 c3        1 INP     -0.177000
     20 C20         4.1240   -2.9390   -0.5160 c3        1 INP     -0.109000
     21 C21         5.5720   -2.9780   -1.0260 c3        1 INP     -0.214000
     22 C22         4.1190   -3.0110    1.0070 c3        1 INP     -0.214000
     23 N23        -0.5180    1.5470    2.3260 n         1 INP     -0.365000
     24 C24        -0.2090    2.6890    3.1840 c2        1 INP      0.279000
     25 O25         0.8400    2.7230    3.7960 o         1 INP     -0.360000
     26 C26        -1.1390    3.8740    3.2210 c3        1 INP      0.027000
     27 C27        -0.5490    4.9630    4.1570 c3        1 INP     -0.158000
     28 C28        -0.6880    6.3660    3.4800 c3        1 INP     -0.110000
     29 C29        -1.0290    7.3930    4.5180 c3        1 INP     -0.211000
     30 C30         0.6430    6.7430    2.8010 c3        1 INP     -0.211000
     31 N31        -2.4000    3.4670    3.7050 n         1 INP     -0.350000
     32 C32        -3.4040    2.9370    2.7760 c2        1 INP      0.403000
     33 O33        -3.2610    3.0900    1.5630 o         1 INP     -0.424000
     34 O34        -4.5850    2.2970    3.2840 os        1 INP     -0.270000
     35 C35        -5.5710    2.0130    2.2830 c3        1 INP      0.035000
     36 C36        -6.6090    1.0090    2.8500 c2        1 INP     -0.052000
     37 C37        -7.9160    1.3870    2.9980 c2        1 INP     -0.174000
     38 C38        -8.8590    0.4640    3.4050 c1        1 INP     -0.072000
     39 N39        -8.4890   -0.8290    3.6610 n1        1 INP     -0.134000
     40 C40        -7.2000   -1.2050    3.5150 c1        1 INP     -0.073000
     41 C41        -6.2430   -0.2740    3.1040 c1        1 INP     -0.153000
     42 O42        -0.9560   -1.3440    3.2330 o         1 INP     -0.261000
     43 H1          1.4670   -4.7220  -10.0840 ha        1 INP      0.135000
     44 H2          0.5620   -4.7230   -7.8900 ha        1 INP      0.134000
     45 H4          4.3670   -4.2630   -6.3670 ha        1 INP      0.135000
     46 H5          5.2710   -4.2630   -8.5690 ha        1 INP      0.135000
     47 H6          3.8160   -4.4910  -10.4180 ha        1 INP      0.135000
     48 H71         0.9450   -5.0130   -5.5470 h1        1 INP      0.104000
     49 H72         2.4460   -5.1110   -4.9650 h1        1 INP      0.104000
     50 HN1         2.1410   -1.1800   -3.3740 hn        1 INP      0.232000
     51 H12         1.7430   -2.7520   -1.1130 h1        1 INP      0.133000
     52 H131        0.1630   -1.0560   -1.2610 h1        1 INP      0.084500
     53 H132        1.3650    0.0300   -1.3610 h1        1 INP      0.084500
     54 H151        0.6600    0.9910    0.1630 h1        1 INP      0.098000
     55 H152        2.0780    0.7720    0.9280 h1        1 INP      0.098000
     56 H161       -1.0050   -1.4700    0.5950 h1        1 INP      0.125000
     57 H162        0.0350   -2.4810    1.1270 h1        1 INP      0.125000
     58 H18         1.0190    0.6710    2.9620 h1        1 INP      0.161000
     59 H191        3.9600   -1.2220   -1.7020 hc        1 INP      0.097000
     60 H192        3.4100   -0.9890   -0.2190 hc        1 INP      0.097000
     61 H20         3.6330   -3.6980   -0.8780 hc        1 INP      0.081000
     62 H211        5.9270   -3.8960   -0.9400 hc        1 INP      0.077333
     63 H212        6.1200   -2.3660   -0.4960 hc        1 INP      0.077333
     64 H213        5.5950   -2.7070   -1.9580 hc        1 INP      0.077333
     65 H221        3.4790   -2.3510    1.3650 hc        1 INP      0.077333
     66 H222        3.8510   -3.9260    1.2940 hc        1 INP      0.077333
     67 H223        5.0140   -2.8140    1.3460 hc        1 INP      0.077333
     68 HN2        -1.3180    1.5020    1.9040 hn        1 INP      0.254000
     69 H26        -1.2370    4.2310    2.3360 h1        1 INP      0.132000
     70 H271        0.4070    4.7700    4.3220 hc        1 INP      0.110000
     71 H272       -1.0430    4.9610    5.0230 hc        1 INP      0.110000
     72 H28        -1.4100    6.3350    2.7990 hc        1 INP      0.092000
     73 H291       -1.8270    7.1040    5.0140 hc        1 INP      0.076500
     74 H292       -1.2100    8.2580    4.0780 hc        1 INP      0.076500
     75 H293       -0.2650    7.4950    5.1480 hc        1 INP      0.076500
     76 H301        0.5220    7.5770    2.2710 hc        1 INP      0.076500
     77 H302        0.9230    6.0170    2.2060 hc        1 INP      0.076500
     78 H303        1.3350    6.8890    3.4890 hc        1 INP      0.076500
     79 HN3        -2.5700    3.4730    4.6170 hn        1 INP      0.255000
     80 H351       -6.0200    2.8350    2.0300 h1        1 INP      0.111000
     81 H352       -5.1370    1.6250    1.5000 h1        1 INP      0.111000
     82 H37        -8.1850    2.3190    2.8150 ha        1 INP      0.145000
     83 H38        -9.8250    0.7440    3.5140 ha        1 INP      0.161000
     84 H40        -6.9340   -2.1390    3.7010 ha        1 INP      0.162000
     85 H41        -5.2990   -0.5500    2.9970 ha        1 INP      0.156000
@<TRIPOS>BOND
     1    1    6 1   
     2    1   43 1   
     3    2    3 1   
     4    2   44 1   
     5    3    7 1   
     6    4    5 1   
     7    4   45 1   
     8    5   46 1   
     9    6   47 1   
    10    7    8 1   
    11    7   48 1   
    12    7   49 1   
    13    8    9 1   
    14    9   10 1   
    15    9   11 1   
    16   11   12 1   
    17   11   50 1   
    18   12   13 1   
    19   12   19 1   
    20   12   51 1   
    21   13   14 1   
    22   13   52 1   
    23   13   53 1   
    24   14   15 1   
    25   14   16 1   
    26   15   18 1   
    27   15   54 1   
    28   15   55 1   
    29   16   17 1   
    30   16   56 1   
    31   16   57 1   
    32   17   18 1   
    33   17   42 1   
    34   18   23 1   
    35   18   58 1   
    36   19   20 1   
    37   19   59 1   
    38   19   60 1   
    39   20   21 1   
    40   20   22 1   
    41   20   61 1   
    42   21   62 1   
    43   21   63 1   
    44   21   64 1   
    45   22   65 1   
    46   22   66 1   
    47   22   67 1   
    48   23   24 1   
    49   23   68 1   
    50   24   25 1   
    51   24   26 1   
    52   26   27 1   
    53   26   31 1   
    54   26   69 1   
    55   27   28 1   
    56   27   70 1   
    57   27   71 1   
    58   28   29 1   
    59   28   30 1   
    60   28   72 1   
    61   29   73 1   
    62   29   74 1   
    63   29   75 1   
    64   30   76 1   
    65   30   77 1   
    66   30   78 1   
    67   31   32 1   
    68   31   79 1   
    69   32   33 1   
    70   32   34 1   
    71   34   35 1   
    72   35   36 1   
    73   35   80 1   
    74   35   81 1   
    75   36   37 1   
    76   36   41 1   
    77   37   38 1   
    78   37   82 1   
    79   38   83 1   
    80   39   40 1   
    81   40   84 1   
    82   41   85 1   
@<TRIPOS>SUBSTRUCTURE
     1 INP         1 TEMP              0 ****  ****    0 ROOT
