@<TRIPOS>MOLECULE
INP
   88    90     1     0     0
SMALL
bcc


@<TRIPOS>ATOM
      1 C1          0.2680   -0.7590    1.8480 ca        1 INP     -0.128000
      2 C2          1.6230   -0.6390    1.5460 ca        1 INP     -0.091500
      3 C3          2.5410   -0.3100    2.5540 ca        1 INP     -0.195300
      4 C4          2.0890   -0.1030    3.8640 ca        1 INP     -0.091500
      5 C5          0.7350   -0.2290    4.1620 ca        1 INP     -0.128000
      6 C6         -0.1770   -0.5580    3.1560 ca        1 INP     -0.071000
      7 C7          3.9840   -0.2610    2.2460 c3        1 INP      0.221700
      8 O8          4.2920    0.9770    1.4880 os        1 INP     -0.398900
      9 C9          4.6660    2.0600    2.1650 c         1 INP      0.645100
     10 O10         4.9890    2.1460    3.3450 o         1 INP     -0.483000
     11 N11         4.7040    3.2580    1.2520 n4        1 INP     -0.644800
     12 C12         6.0520    3.9370    1.2580 c3        1 INP      0.138500
     13 C13         5.9850    5.3750    1.8340 c3        1 INP      0.129800
     14 N14         5.4260    5.4440    3.1740 n3        1 INP     -0.737600
     15 C15         6.3060    4.9560    4.2420 c3        1 INP      0.144800
     16 C16         4.9130    6.7690    3.5350 c3        1 INP      0.063800
     17 C17         5.4180    7.1260    4.9090 c         1 INP      0.570100
     18 C18         6.1170    5.8780    5.4880 c3        1 INP     -0.034500
     19 C19         6.6540    4.0200   -0.1500 c3        1 INP     -0.116400
     20 C20         6.8370    2.6780   -0.8470 c3        1 INP     -0.076700
     21 C21         7.6030    2.9010   -2.1390 c3        1 INP     -0.102600
     22 C22         7.5580    1.6720    0.0240 c3        1 INP     -0.102600
     23 N23         7.3830    6.1970    6.2250 n4        1 INP     -0.648800
     24 C24         7.1680    6.3430    7.7120 c         1 INP      0.529100
     25 O25         7.2690    5.3300    8.3830 o         1 INP     -0.362100
     26 C26         6.8920    7.7560    8.2350 c3        1 INP      0.067500
     27 C27         8.2270    8.5060    8.3930 c3        1 INP     -0.115400
     28 C28         8.0340   10.0200    8.4420 c3        1 INP     -0.067700
     29 C29         9.3010   10.6620    8.9790 c3        1 INP     -0.112100
     30 C30         7.7020   10.5810    7.0760 c3        1 INP     -0.112100
     31 N31         6.1370    7.6940    9.5310 n4        1 INP     -0.659800
     32 C32         4.7220    7.1690    9.3500 c         1 INP      0.657100
     33 O33         4.4730    6.4380    8.3980 o         1 INP     -0.488000
     34 O34         3.9320    7.6600   10.2900 os        1 INP     -0.380900
     35 C35         2.5700    7.0740   10.4570 c3        1 INP      0.224700
     36 C36         2.6370    5.9150   11.3700 ca        1 INP     -0.162300
     37 C37         2.7110    6.1060   12.7550 ca        1 INP     -0.214800
     38 C38         2.7120    4.9670   13.5880 ca        1 INP      0.412200
     39 N39         2.6440    3.7090   13.1190 nb        1 INP     -0.598000
     40 C40         2.5620    3.5400   11.7840 ca        1 INP      0.412200
     41 C41         2.5580    4.6070   10.8680 ca        1 INP     -0.214800
     42 O42         5.3450    8.1870    5.5130 o         1 INP     -0.477100
     43 H1         -0.4500   -1.0300    1.0570 ha        1 INP      0.159000
     44 H2          1.9750   -0.8190    0.5180 ha        1 INP      0.137500
     45 H4          2.8080    0.1330    4.6630 ha        1 INP      0.137500
     46 H5          0.3820   -0.0890    5.1960 ha        1 INP      0.159000
     47 H6         -1.2480   -0.6700    3.3970 ha        1 INP      0.164000
     48 H71         4.2930   -1.0300    1.4820 h1        1 INP      0.105700
     49 H72         4.6360   -0.2950    3.1560 h1        1 INP      0.105700
     50 HN1         3.9710    3.9080    1.5610 hn        1 INP      0.479800
     51 H12         6.7310    3.3080    1.9120 hx        1 INP      0.114700
     52 H131        5.3440    6.0090    1.1530 h1        1 INP      0.089200
     53 H132        7.0400    5.7780    1.7790 h1        1 INP      0.089200
     54 H151        5.9660    3.9090    4.4980 h1        1 INP      0.097700
     55 H152        7.3850    4.9120    3.9220 h1        1 INP      0.097700
     56 H161        5.2000    7.5830    2.8070 h1        1 INP      0.131700
     57 H162        3.7830    6.7120    3.5590 h1        1 INP      0.131700
     58 H18         5.4080    5.3730    6.2180 hx        1 INP      0.166700
     59 H191        6.0290    4.6910   -0.7980 hc        1 INP      0.088200
     60 H192        7.6640    4.5050   -0.0420 hc        1 INP      0.088200
     61 H20         5.8270    2.2560   -1.1220 hc        1 INP      0.044700
     62 H211        8.6400    3.2540   -1.9280 hc        1 INP      0.054867
     63 H212        7.6670    1.9430   -2.7120 hc        1 INP      0.054867
     64 H213        7.0880    3.6590   -2.7770 hc        1 INP      0.054867
     65 H221        6.9130    1.3500    0.8790 hc        1 INP      0.054867
     66 H222        7.8140    0.7640   -0.5780 hc        1 INP      0.054867
     67 H223        8.5090    2.0990    0.4250 hc        1 INP      0.054867
     68 HN2         7.7890    7.0660    5.8530 hn        1 INP      0.479800
     69 H26         6.2260    8.3180    7.4950 hx        1 INP      0.179700
     70 H271        8.8830    8.2590    7.5160 hc        1 INP      0.092200
     71 H272        8.7690    8.1590    9.3160 hc        1 INP      0.092200
     72 H28         7.1920   10.2680    9.1480 hc        1 INP      0.042700
     73 H291        9.5200   10.3070   10.0150 hc        1 INP      0.064533
     74 H292        9.1760   11.7730    9.0070 hc        1 INP      0.064533
     75 H293       10.1740   10.4250    8.3240 hc        1 INP      0.064533
     76 H301        6.7920   10.1000    6.6410 hc        1 INP      0.064533
     77 H302        7.5070   11.6810    7.1590 hc        1 INP      0.064533
     78 H303        8.5580   10.4410    6.3710 hc        1 INP      0.064533
     79 HN3         6.0990    8.6480    9.9360 hn        1 INP      0.499800
     80 H351        2.1690    6.8250    9.4420 h1        1 INP      0.116200
     81 H352        2.0500    7.9670   10.9120 h1        1 INP      0.116200
     82 H37         2.7490    7.1130   13.1950 ha        1 INP      0.152000
     83 H38         2.7580    5.0710   14.6910 h4        1 INP      0.057100
     84 H40         2.4860    2.4910   11.4380 h4        1 INP      0.057100
     85 H41         2.4670    4.4140    9.7910 ha        1 INP      0.152000
     86 H112        4.4820    2.9440    0.2920 hn        1 INP      0.479800
     87 H232        8.0530    5.4230    6.0730 hn        1 INP      0.479800
     88 H312        6.6220    7.0800   10.2050 hn        1 INP      0.499800
@<TRIPOS>BOND
     1    1    2 ar  
     2    1    6 ar  
     3    1   43 1   
     4    2    3 ar  
     5    2   44 1   
     6    3    4 ar  
     7    3    7 1   
     8    4    5 ar  
     9    4   45 1   
    10    5    6 ar  
    11    5   46 1   
    12    6   47 1   
    13    7    8 1   
    14    7   48 1   
    15    7   49 1   
    16    8    9 1   
    17    9   10 2   
    18    9   11 1   
    19   11   12 1   
    20   11   50 1   
    21   11   86 1   
    22   12   13 1   
    23   12   19 1   
    24   12   51 1   
    25   13   14 1   
    26   13   52 1   
    27   13   53 1   
    28   14   15 1   
    29   14   16 1   
    30   15   18 1   
    31   15   54 1   
    32   15   55 1   
    33   16   17 1   
    34   16   56 1   
    35   16   57 1   
    36   17   18 1   
    37   17   42 2   
    38   18   23 1   
    39   18   58 1   
    40   19   20 1   
    41   19   59 1   
    42   19   60 1   
    43   20   21 1   
    44   20   22 1   
    45   20   61 1   
    46   21   62 1   
    47   21   63 1   
    48   21   64 1   
    49   22   65 1   
    50   22   66 1   
    51   22   67 1   
    52   23   24 1   
    53   23   68 1   
    54   23   87 1   
    55   24   25 2   
    56   24   26 1   
    57   26   27 1   
    58   26   31 1   
    59   26   69 1   
    60   27   28 1   
    61   27   70 1   
    62   27   71 1   
    63   28   29 1   
    64   28   30 1   
    65   28   72 1   
    66   29   73 1   
    67   29   74 1   
    68   29   75 1   
    69   30   76 1   
    70   30   77 1   
    71   30   78 1   
    72   31   32 1   
    73   31   79 1   
    74   31   88 1   
    75   32   33 2   
    76   32   34 1   
    77   34   35 1   
    78   35   36 1   
    79   35   80 1   
    80   35   81 1   
    81   36   37 ar  
    82   36   41 ar  
    83   37   38 ar  
    84   37   82 1   
    85   38   39 ar  
    86   38   83 1   
    87   39   40 ar  
    88   40   41 ar  
    89   40   84 1   
    90   41   85 1   
@<TRIPOS>SUBSTRUCTURE
     1 INP         1 TEMP              0 ****  ****    0 ROOT
