@<TRIPOS>MOLECULE
INP
   88    90     1     0     0
SMALL
bcc


@<TRIPOS>ATOM
      1 C1          0.1490   -0.5880    1.7930 ca        1 INP     -0.128000
      2 C2          1.5090   -0.5060    1.5010 ca        1 INP     -0.091500
      3 C3          2.4290   -0.2100    2.5170 ca        1 INP     -0.195300
      4 C4          1.9740    0.0030    3.8260 ca        1 INP     -0.091500
      5 C5          0.6140   -0.0850    4.1130 ca        1 INP     -0.128000
      6 C6         -0.3000   -0.3800    3.0980 ca        1 INP     -0.071000
      7 C7          3.8760   -0.2030    2.2200 c3        1 INP      0.221700
      8 O8          4.2260    1.0290    1.4700 os        1 INP     -0.398900
      9 C9          4.6260    2.0970    2.1550 c         1 INP      0.645100
     10 O10         4.9410    2.1690    3.3380 o         1 INP     -0.483000
     11 N11         4.7080    3.2970    1.2470 n4        1 INP     -0.644800
     12 C12         6.0770    3.9340    1.2680 c3        1 INP      0.138500
     13 C13         6.0490    5.3720    1.8470 c3        1 INP      0.129800
     14 N14         5.4790    5.4550    3.1820 n3        1 INP     -0.737600
     15 C15         6.3320    4.9360    4.2570 c3        1 INP      0.144800
     16 C16         5.0060    6.7950    3.5420 c3        1 INP      0.063800
     17 C17         5.5080    7.1320    4.9220 c         1 INP      0.570100
     18 C18         6.1590    5.8590    5.5040 c3        1 INP     -0.034500
     19 C19         6.6940    4.0030   -0.1350 c3        1 INP     -0.116400
     20 C20         6.8420    2.6570   -0.8330 c3        1 INP     -0.076700
     21 C21         7.6260    2.8590   -2.1180 c3        1 INP     -0.102600
     22 C22         7.5260    1.6280    0.0410 c3        1 INP     -0.102600
     23 N23         7.4260    6.1340    6.2570 n4        1 INP     -0.648800
     24 C24         7.1990    6.2850    7.7410 c         1 INP      0.529100
     25 O25         7.2550    5.2670    8.4110 o         1 INP     -0.362100
     26 C26         6.9680    7.7050    8.2650 c3        1 INP      0.067500
     27 C27         8.3270    8.4060    8.4400 c3        1 INP     -0.115400
     28 C28         8.1870    9.9260    8.4910 c3        1 INP     -0.067700
     29 C29         9.4700   10.5210    9.0430 c3        1 INP     -0.112100
     30 C30         7.8910   10.5010    7.1220 c3        1 INP     -0.112100
     31 N31         6.1950    7.6680    9.5520 n4        1 INP     -0.659800
     32 C32         4.7640    7.1960    9.3520 c         1 INP      0.657100
     33 O33         4.4990    6.4750    8.3960 o         1 INP     -0.488000
     34 O34         3.9810    7.7160   10.2820 os        1 INP     -0.380900
     35 C35         2.5960    7.1810   10.4310 c3        1 INP      0.224700
     36 C36         2.6080    6.0210   11.3450 ca        1 INP     -0.162300
     37 C37         2.6720    6.2080   12.7310 ca        1 INP     -0.214800
     38 C38         2.6180    5.0710   13.5640 ca        1 INP      0.412200
     39 N39         2.5090    3.8150   13.0930 nb        1 INP     -0.598000
     40 C40         2.4380    3.6500   11.7580 ca        1 INP      0.412200
     41 C41         2.4860    4.7170   10.8420 ca        1 INP     -0.214800
     42 O42         5.4640    8.1930    5.5290 o         1 INP     -0.477100
     43 H1         -0.5710   -0.8330    0.9950 ha        1 INP      0.159000
     44 H2          1.8640   -0.6920    0.4750 ha        1 INP      0.137500
     45 H4          2.6930    0.2130    4.6310 ha        1 INP      0.137500
     46 H5          0.2590    0.0610    5.1450 ha        1 INP      0.159000
     47 H6         -1.3740   -0.4620    3.3310 ha        1 INP      0.164000
     48 H71         4.5190   -0.2600    3.1350 h1        1 INP      0.105700
     49 H72         4.1670   -0.9770    1.4550 h1        1 INP      0.105700
     50 HN1         3.9940    3.9680    1.5530 hn        1 INP      0.479800
     51 H12         6.7300    3.2830    1.9260 hx        1 INP      0.114700
     52 H131        5.4350    6.0280    1.1610 h1        1 INP      0.089200
     53 H132        7.1160    5.7420    1.8040 h1        1 INP      0.089200
     54 H151        7.4130    4.8590    3.9480 h1        1 INP      0.097700
     55 H152        5.9570    3.8990    4.5060 h1        1 INP      0.097700
     56 H161        5.3270    7.6020    2.8200 h1        1 INP      0.131700
     57 H162        3.8750    6.7750    3.5540 h1        1 INP      0.131700
     58 H18         5.4260    5.3760    6.2240 hx        1 INP      0.166700
     59 H191        6.0960    4.6940   -0.7860 hc        1 INP      0.088200
     60 H192        7.7170    4.4560   -0.0160 hc        1 INP      0.088200
     61 H20         5.8230    2.2670   -1.1180 hc        1 INP      0.044700
     62 H211        8.6720    3.1810   -1.8970 hc        1 INP      0.054700
     63 H212        7.6670    1.9010   -2.6920 hc        1 INP      0.054700
     64 H213        7.1390    3.6340   -2.7590 hc        1 INP      0.054700
     65 H221        7.7590    0.7130   -0.5600 hc        1 INP      0.054700
     66 H222        8.4850    2.0250    0.4520 hc        1 INP      0.054700
     67 H223        6.8640    1.3230    0.8900 hc        1 INP      0.054700
     68 HN2         8.0720    5.3380    6.1110 hn        1 INP      0.479300
     69 H26         6.3310    8.2920    7.5190 hx        1 INP      0.179700
     70 H271        8.8440    8.0390    9.3690 hc        1 INP      0.092200
     71 H272        8.9830    8.1370    7.5700 hc        1 INP      0.092200
     72 H28         7.3460   10.2030    9.1880 hc        1 INP      0.042700
     73 H291        9.6650   10.1570   10.0810 hc        1 INP      0.064533
     74 H292        9.3840   11.6360    9.0730 hc        1 INP      0.064533
     75 H293       10.3420   10.2550    8.3980 hc        1 INP      0.064533
     76 H301        8.7490   10.3320    6.4270 hc        1 INP      0.064533
     77 H302        6.9690   10.0540    6.6760 hc        1 INP      0.064533
     78 H303        7.7350   11.6070    7.2050 hc        1 INP      0.064533
     79 HN3         6.1880    8.6210    9.9590 hn        1 INP      0.499800
     80 H351        2.1040    8.0930   10.8810 h1        1 INP      0.116200
     81 H352        2.1990    6.9470    9.4120 h1        1 INP      0.116200
     82 H37         2.7410    7.2130   13.1720 ha        1 INP      0.152000
     83 H38         2.6540    5.1730   14.6680 h4        1 INP      0.057100
     84 H40         2.3260    2.6050   11.4100 h4        1 INP      0.057100
     85 H41         2.4020    4.5270    9.7640 ha        1 INP      0.152000
     86 H112        4.4860    2.9940    0.2840 hn        1 INP      0.479800
     87 H232        7.8660    6.9900    5.8910 hn        1 INP      0.479300
     88 H312        6.6490    7.0350   10.2300 hn        1 INP      0.499800
@<TRIPOS>BOND
     1    1    2 ar  
     2    1    6 ar  
     3    1   43 1   
     4    2    3 ar  
     5    2   44 1   
     6    3    4 ar  
     7    3    7 1   
     8    4    5 ar  
     9    4   45 1   
    10    5    6 ar  
    11    5   46 1   
    12    6   47 1   
    13    7    8 1   
    14    7   48 1   
    15    7   49 1   
    16    8    9 1   
    17    9   10 2   
    18    9   11 1   
    19   11   12 1   
    20   11   50 1   
    21   11   86 1   
    22   12   13 1   
    23   12   19 1   
    24   12   51 1   
    25   13   14 1   
    26   13   52 1   
    27   13   53 1   
    28   14   15 1   
    29   14   16 1   
    30   15   18 1   
    31   15   54 1   
    32   15   55 1   
    33   16   17 1   
    34   16   56 1   
    35   16   57 1   
    36   17   18 1   
    37   17   42 2   
    38   18   23 1   
    39   18   58 1   
    40   19   20 1   
    41   19   59 1   
    42   19   60 1   
    43   20   21 1   
    44   20   22 1   
    45   20   61 1   
    46   21   62 1   
    47   21   63 1   
    48   21   64 1   
    49   22   65 1   
    50   22   66 1   
    51   22   67 1   
    52   23   24 1   
    53   23   68 1   
    54   23   87 1   
    55   24   25 2   
    56   24   26 1   
    57   26   27 1   
    58   26   31 1   
    59   26   69 1   
    60   27   28 1   
    61   27   70 1   
    62   27   71 1   
    63   28   29 1   
    64   28   30 1   
    65   28   72 1   
    66   29   73 1   
    67   29   74 1   
    68   29   75 1   
    69   30   76 1   
    70   30   77 1   
    71   30   78 1   
    72   31   32 1   
    73   31   79 1   
    74   31   88 1   
    75   32   33 2   
    76   32   34 1   
    77   34   35 1   
    78   35   36 1   
    79   35   80 1   
    80   35   81 1   
    81   36   37 ar  
    82   36   41 ar  
    83   37   38 ar  
    84   37   82 1   
    85   38   39 ar  
    86   38   83 1   
    87   39   40 ar  
    88   40   41 ar  
    89   40   84 1   
    90   41   85 1   
@<TRIPOS>SUBSTRUCTURE
     1 INP         1 TEMP              0 ****  ****    0 ROOT
