@<TRIPOS>MOLECULE
INQ
   49    52     1     0     0
SMALL
bcc


@<TRIPOS>ATOM
      1 S01        -0.0850    0.1020   -0.7390 sy        1 INQ      1.553200
      2 O02         1.2790   -0.0240   -0.8470 o         1 INQ     -0.571800
      3 N03        -0.2390    0.0060    1.1930 n4        1 INQ     -0.783500
      4 C04        -0.6700    1.5460   -0.9340 cc        1 INQ     -0.713600
      5 C05         0.2180    2.6690   -0.8460 cd        1 INQ     -0.064000
      6 C06        -0.4360    3.8810   -1.0990 cd        1 INQ      0.056200
      7 C07        -1.8190    3.6560   -1.3750 cc        1 INQ     -0.437600
      8 S08        -2.1650    2.1040   -1.3340 ss        1 INQ      0.635200
      9 C09         0.1760    5.1670   -1.0950 cf        1 INQ     -0.274200
     10 C10        -0.5100    6.3140   -1.3930 c2        1 INQ      0.255800
     11 N11        -1.8630    6.2950   -1.7100 nh        1 INQ     -0.513700
     12 S12        -2.8750    4.9840   -1.6760 sy        1 INQ      1.527200
     13 O13        -3.4400    4.7470   -2.9280 o         1 INQ     -0.611800
     14 O14        -3.7440    5.0240   -0.5890 o         1 INQ     -0.611800
     15 C15         0.2620    7.6320   -1.3850 c3        1 INQ      0.199000
     16 C16         0.1330    9.6930   -0.1100 c3        1 INQ      0.131300
     17 C17         0.1690   10.3250    1.2870 c3        1 INQ      0.126400
     18 O18         1.2970    9.8840    2.0330 os        1 INQ     -0.402600
     19 C19         1.3350    8.4700    2.1560 c3        1 INQ      0.126400
     20 C20         1.3410    7.7900    0.7810 c3        1 INQ      0.131300
     21 N21         0.2420    8.2380   -0.0660 n3        1 INQ     -0.737600
     22 C22        -2.8730    8.4590   -1.1180 ca        1 INQ     -0.124000
     23 C23        -2.5090    7.5150   -2.0930 ca        1 INQ      0.068600
     24 C24        -2.7990    7.7540   -3.4540 ca        1 INQ     -0.142000
     25 C25        -3.4670    8.9180   -3.8240 ca        1 INQ     -0.084000
     26 C26        -3.8390    9.8640   -2.8720 ca        1 INQ     -0.178000
     27 C27        -3.5350    9.6300   -1.5240 ca        1 INQ      0.126100
     28 O28        -3.8400   10.5190   -0.5220 oh        1 INQ     -0.488100
     29 O29        -0.9340   -0.9270   -1.0780 o         1 INQ     -0.571800
     30 H031       -0.8810   -0.7350    1.4620 hn        1 INQ      0.452800
     31 H032       -0.5710    0.8750    1.5990 hn        1 INQ      0.452800
     32 H051        1.2920    2.5800   -0.6400 ha        1 INQ      0.192000
     33 H091        1.2480    5.2230   -0.8510 ha        1 INQ      0.171000
     34 H151        1.3120    7.3970   -1.7360 h1        1 INQ      0.070200
     35 H152       -0.1910    8.3360   -2.1420 h1        1 INQ      0.070200
     36 H171       -0.7720   10.0920    1.8520 h1        1 INQ      0.061950
     37 H172        0.3060   11.4350    1.2020 h1        1 INQ      0.061950
     38 H191        2.2970    8.2590    2.6930 h1        1 INQ      0.061950
     39 H192        0.4630    8.1180    2.7690 h1        1 INQ      0.061950
     40 H201        2.3430    7.9810    0.2950 h1        1 INQ      0.044700
     41 H202        1.2300    6.6800    0.9270 h1        1 INQ      0.044700
     42 H221       -2.6510    8.3080   -0.0490 ha        1 INQ      0.180000
     43 H241       -2.5280    7.0140   -4.2250 ha        1 INQ      0.160000
     44 H251       -3.7030    9.0920   -4.8860 ha        1 INQ      0.157000
     45 H261       -4.3660   10.7820   -3.1730 ha        1 INQ      0.154000
     46 H281       -4.3650   11.2390   -0.9050 ho        1 INQ      0.434000
     47 H161       -0.8570    9.9470   -0.5870 h1        1 INQ      0.044700
     48 H033        0.6690   -0.2040    1.6030 hn        1 INQ      0.452800
     49 H162        0.9560   10.1500   -0.7320 h1        1 INQ      0.044700
@<TRIPOS>BOND
     1    1    2 2   
     2    1    3 1   
     3    1    4 1   
     4    1   29 2   
     5    3   30 1   
     6    3   31 1   
     7    3   48 1   
     8    4    5 2   
     9    4    8 1   
    10    5    6 1   
    11    5   32 1   
    12    6    7 2   
    13    6    9 1   
    14    7    8 1   
    15    7   12 1   
    16    9   10 2   
    17    9   33 1   
    18   10   11 1   
    19   10   15 1   
    20   11   12 1   
    21   11   23 1   
    22   12   13 2   
    23   12   14 2   
    24   15   21 1   
    25   15   34 1   
    26   15   35 1   
    27   16   17 1   
    28   16   21 1   
    29   16   47 1   
    30   16   49 1   
    31   17   18 1   
    32   17   36 1   
    33   17   37 1   
    34   18   19 1   
    35   19   20 1   
    36   19   38 1   
    37   19   39 1   
    38   20   21 1   
    39   20   40 1   
    40   20   41 1   
    41   22   23 ar  
    42   22   27 ar  
    43   22   42 1   
    44   23   24 ar  
    45   24   25 ar  
    46   24   43 1   
    47   25   26 ar  
    48   25   44 1   
    49   26   27 ar  
    50   26   45 1   
    51   27   28 1   
    52   28   46 1   
@<TRIPOS>SUBSTRUCTURE
     1 INQ         1 TEMP              0 ****  ****    0 ROOT
