@<TRIPOS>MOLECULE
INQ
   48    51     1     0     0
SMALL
bcc


@<TRIPOS>ATOM
      1 S01        -0.7550    0.0590    5.4250 sy        1 INQ      1.558200
      2 O02        -1.8240    0.9690    5.5220 o         1 INQ     -0.651800
      3 N03        -1.3030   -1.4330    5.6000 n3        1 INQ     -1.026700
      4 C04        -0.1930    0.0760    3.8340 cc        1 INQ     -0.471600
      5 C05        -1.0340    0.5790    2.8250 cd        1 INQ     -0.072000
      6 C06        -0.4050    0.5390    1.5610 cd        1 INQ      0.042200
      7 C07         0.9070    0.0060    1.6530 cc        1 INQ     -0.514600
      8 S08         1.2340   -0.3690    3.2050 ss        1 INQ      0.499200
      9 C09        -0.9980    0.9670    0.3350 cf        1 INQ     -0.236200
     10 C10        -0.3580    0.8480   -0.8670 c2        1 INQ      0.202800
     11 N11         0.9200    0.3040   -0.9640 nh        1 INQ     -0.510700
     12 S12         1.8910   -0.1590    0.3230 sy        1 INQ      1.552200
     13 O13         2.9660    0.7340    0.4270 o         1 INQ     -0.640300
     14 O14         2.2550   -1.5050    0.1930 o         1 INQ     -0.640300
     15 C15        -1.0680    1.3680   -2.1080 c3        1 INQ      0.200000
     16 C16        -2.1920    0.7070   -4.1400 c3        1 INQ      0.128800
     17 C17        -3.0860   -0.3350   -4.8220 c3        1 INQ      0.126400
     18 O18        -4.2520   -0.6110   -4.0540 os        1 INQ     -0.414600
     19 C19        -3.9330   -1.0410   -2.7360 c3        1 INQ      0.126400
     20 C20        -3.0620   -0.0150   -2.0040 c3        1 INQ      0.128800
     21 N21        -1.8700    0.3460   -2.7630 n3        1 INQ     -0.723600
     22 C22         1.0740   -0.8640   -3.1260 ca        1 INQ     -0.111000
     23 C23         1.5110    0.1480   -2.2540 ca        1 INQ      0.110600
     24 C24         2.5750    0.9970   -2.6390 ca        1 INQ     -0.156000
     25 C25         3.1930    0.8200   -3.8720 ca        1 INQ     -0.092000
     26 C26         2.7730   -0.1800   -4.7470 ca        1 INQ     -0.198000
     27 C27         1.7140   -1.0130   -4.3660 ca        1 INQ      0.118100
     28 O28         1.2300   -2.0150   -5.1770 oh        1 INQ     -0.494100
     29 O29         0.3510    0.2440    6.2770 o         1 INQ     -0.651800
     30 H031       -0.7760   -2.1640    6.0090 hn        1 INQ      0.450800
     31 H032       -2.2110   -1.7210    5.3340 hn        1 INQ      0.450800
     32 H051       -2.0400    0.9740    3.0000 ha        1 INQ      0.183000
     33 H091       -2.0040    1.4090    0.3800 ha        1 INQ      0.159000
     34 H151       -1.6940    2.2550   -1.7850 h1        1 INQ      0.058200
     35 H152       -0.3040    1.7480   -2.8470 h1        1 INQ      0.058200
     36 H162       -1.2260    0.7750   -4.7140 h1        1 INQ      0.043700
     37 H171       -3.4780    0.0700   -5.7910 h1        1 INQ      0.057700
     38 H172       -2.5190   -1.2870   -5.0000 h1        1 INQ      0.057700
     39 H191       -4.9260   -1.1380   -2.2250 h1        1 INQ      0.057700
     40 H192       -3.4210   -2.0380   -2.7790 h1        1 INQ      0.057700
     41 H201       -2.7240   -0.4600   -1.0260 h1        1 INQ      0.043700
     42 H202       -3.6960    0.8910   -1.7730 h1        1 INQ      0.043700
     43 H221        0.2410   -1.5350   -2.8630 ha        1 INQ      0.176000
     44 H241        2.9370    1.7800   -1.9530 ha        1 INQ      0.165000
     45 H251        4.0280    1.4780   -4.1580 ha        1 INQ      0.143000
     46 H261        3.2680   -0.3160   -5.7190 ha        1 INQ      0.139000
     47 H281        1.8080   -2.0770   -5.9520 ho        1 INQ      0.421000
     48 H161       -2.7050    1.7110   -4.1950 h1        1 INQ      0.043700
@<TRIPOS>BOND
     1    1    2 2   
     2    1    3 1   
     3    1    4 1   
     4    1   29 2   
     5    3   30 1   
     6    3   31 1   
     7    4    5 2   
     8    4    8 1   
     9    5    6 1   
    10    5   32 1   
    11    6    7 2   
    12    6    9 1   
    13    7    8 1   
    14    7   12 1   
    15    9   10 2   
    16    9   33 1   
    17   10   11 1   
    18   10   15 1   
    19   11   12 1   
    20   11   23 1   
    21   12   13 2   
    22   12   14 2   
    23   15   21 1   
    24   15   34 1   
    25   15   35 1   
    26   16   17 1   
    27   16   21 1   
    28   16   36 1   
    29   16   48 1   
    30   17   18 1   
    31   17   37 1   
    32   17   38 1   
    33   18   19 1   
    34   19   20 1   
    35   19   39 1   
    36   19   40 1   
    37   20   21 1   
    38   20   41 1   
    39   20   42 1   
    40   22   23 ar  
    41   22   27 ar  
    42   22   43 1   
    43   23   24 ar  
    44   24   25 ar  
    45   24   44 1   
    46   25   26 ar  
    47   25   45 1   
    48   26   27 ar  
    49   26   46 1   
    50   27   28 1   
    51   28   47 1   
@<TRIPOS>SUBSTRUCTURE
     1 INQ         1 TEMP              0 ****  ****    0 ROOT
