@<TRIPOS>MOLECULE
INQ
   49    52     1     0     0
SMALL
bcc


@<TRIPOS>ATOM
      1 S01        -0.0760    0.1040   -0.7250 sy        1 INQ      1.553200
      2 O02         1.2890   -0.0200   -0.8230 o         1 INQ     -0.571800
      3 N03        -0.2450    0.0120    1.2060 nz        1 INQ     -0.783500
      4 C04        -0.6610    1.5470   -0.9270 cc        1 INQ     -0.713600
      5 C05         0.2250    2.6720   -0.8340 cd        1 INQ     -0.064000
      6 C06        -0.4290    3.8820   -1.0940 cd        1 INQ      0.056200
      7 C07        -1.8100    3.6550   -1.3810 cc        1 INQ     -0.437600
      8 S08        -2.1540    2.1020   -1.3400 ss        1 INQ      0.635200
      9 C09         0.1810    5.1690   -1.0880 cf        1 INQ     -0.274200
     10 C10        -0.5050    6.3150   -1.3910 c2        1 INQ      0.255800
     11 N11        -1.8550    6.2930   -1.7180 nh        1 INQ     -0.513700
     12 S12        -2.8660    4.9810   -1.6920 sy        1 INQ      1.527200
     13 O13        -3.4190    4.7420   -2.9490 o         1 INQ     -0.611800
     14 O14        -3.7440    5.0200   -0.6130 o         1 INQ     -0.611800
     15 C15         0.2650    7.6340   -1.3800 c3        1 INQ      0.199000
     16 C16         0.1240    9.6950   -0.1060 c3        1 INQ      0.131300
     17 C17         0.1510   10.3280    1.2910 c3        1 INQ      0.126400
     18 O18         1.2750    9.8900    2.0440 os        1 INQ     -0.402600
     19 C19         1.3140    8.4750    2.1680 c3        1 INQ      0.126400
     20 C20         1.3300    7.7950    0.7940 c3        1 INQ      0.131300
     21 N21         0.2360    8.2410   -0.0600 n3        1 INQ     -0.737600
     22 C22        -2.8730    8.4560   -1.1330 ca        1 INQ     -0.124000
     23 C23        -2.5010    7.5120   -2.1060 ca        1 INQ      0.068600
     24 C24        -2.7830    7.7510   -3.4690 ca        1 INQ     -0.142000
     25 C25        -3.4500    8.9140   -3.8430 ca        1 INQ     -0.084000
     26 C26        -3.8290    9.8590   -2.8940 ca        1 INQ     -0.178000
     27 C27        -3.5340    9.6260   -1.5440 ca        1 INQ      0.126100
     28 O28        -3.8460   10.5160   -0.5440 oh        1 INQ     -0.488100
     29 O29        -0.9210   -0.9270   -1.0690 o         1 INQ     -0.571800
     30 H031        0.6600   -0.1960    1.6230 hn        1 INQ      0.452800
     31 H032       -0.5810    0.8810    1.6070 hn        1 INQ      0.452800
     32 H051        1.2970    2.5840   -0.6200 ha        1 INQ      0.192000
     33 H091        1.2500    5.2270   -0.8360 ha        1 INQ      0.171000
     34 H151        1.3170    7.4010   -1.7230 h1        1 INQ      0.070200
     35 H152       -0.1840    8.3370   -2.1400 h1        1 INQ      0.070200
     36 H171        0.2860   11.4390    1.2060 h1        1 INQ      0.061950
     37 H172       -0.7940   10.0940    1.8500 h1        1 INQ      0.061950
     38 H191        0.4400    8.1230    2.7760 h1        1 INQ      0.061950
     39 H192        2.2730    8.2670    2.7110 h1        1 INQ      0.061950
     40 H201        1.2200    6.6840    0.9390 h1        1 INQ      0.044700
     41 H202        2.3350    7.9870    0.3140 h1        1 INQ      0.044700
     42 H221       -2.6580    8.3060   -0.0630 ha        1 INQ      0.180000
     43 H241       -2.5050    7.0110   -4.2380 ha        1 INQ      0.160000
     44 H251       -3.6790    9.0870   -4.9070 ha        1 INQ      0.157000
     45 H261       -4.3560   10.7760   -3.1980 ha        1 INQ      0.154000
     46 H281       -4.3690   11.2350   -0.9310 ho        1 INQ      0.434000
     47 H161        0.9500   10.1530   -0.7230 h1        1 INQ      0.044700
     48 H033       -0.8880   -0.7300    1.4710 hn        1 INQ      0.452800
     49 H162       -0.8630    9.9470   -0.5890 h1        1 INQ      0.044700
@<TRIPOS>BOND
     1    1    2 2   
     2    1    3 1   
     3    1    4 1   
     4    1   29 2   
     5    3   30 1   
     6    3   31 1   
     7    3   48 1   
     8    4    5 2   
     9    4    8 1   
    10    5    6 1   
    11    5   32 1   
    12    6    7 2   
    13    6    9 1   
    14    7    8 1   
    15    7   12 1   
    16    9   10 2   
    17    9   33 1   
    18   10   11 1   
    19   10   15 1   
    20   11   12 1   
    21   11   23 1   
    22   12   13 2   
    23   12   14 2   
    24   15   21 1   
    25   15   34 1   
    26   15   35 1   
    27   16   17 1   
    28   16   21 1   
    29   16   47 1   
    30   16   49 1   
    31   17   18 1   
    32   17   36 1   
    33   17   37 1   
    34   18   19 1   
    35   19   20 1   
    36   19   38 1   
    37   19   39 1   
    38   20   21 1   
    39   20   40 1   
    40   20   41 1   
    41   22   23 ar  
    42   22   27 ar  
    43   22   42 1   
    44   23   24 ar  
    45   24   25 ar  
    46   24   43 1   
    47   25   26 ar  
    48   25   44 1   
    49   26   27 ar  
    50   26   45 1   
    51   27   28 1   
    52   28   46 1   
@<TRIPOS>SUBSTRUCTURE
     1 INQ         1 TEMP              0 ****  ****    0 ROOT
