@<TRIPOS>MOLECULE
INQ
   49    52     1     0     0
SMALL
bcc


@<TRIPOS>ATOM
      1 S01        -0.1370    0.0960   -0.7350 sy        1 INQ      1.553200
      2 O02         1.2260   -0.0410   -0.8470 o         1 INQ     -0.571800
      3 N03        -0.2870    0.0050    1.1970 n4        1 INQ     -0.783500
      4 C04        -0.7100    1.5440   -0.9320 cc        1 INQ     -0.713600
      5 C05         0.1880    2.6600   -0.8470 cd        1 INQ     -0.064000
      6 C06        -0.4570    3.8780   -1.1010 cd        1 INQ      0.056200
      7 C07        -1.8420    3.6630   -1.3740 cc        1 INQ     -0.437600
      8 S08        -2.2010    2.1140   -1.3290 ss        1 INQ      0.635200
      9 C09         0.1650    5.1580   -1.1000 cf        1 INQ     -0.274200
     10 C10        -0.5130    6.3110   -1.3960 c2        1 INQ      0.255800
     11 N11        -1.8670    6.3020   -1.7090 nh        1 INQ     -0.513700
     12 S12        -2.8890    4.9990   -1.6750 sy        1 INQ      1.527200
     13 O13        -3.4550    4.7670   -2.9270 o         1 INQ     -0.611800
     14 O14        -3.7570    5.0460   -0.5880 o         1 INQ     -0.611800
     15 C15         0.2700    7.6220   -1.3910 c3        1 INQ      0.199000
     16 C16         0.1620    9.6840   -0.1150 c3        1 INQ      0.131300
     17 C17         0.2090   10.3160    1.2820 c3        1 INQ      0.126400
     18 O18         1.3370    9.8660    2.0230 os        1 INQ     -0.402600
     19 C19         1.3640    8.4510    2.1460 c3        1 INQ      0.126400
     20 C20         1.3590    7.7720    0.7710 c3        1 INQ      0.131300
     21 N21         0.2610    8.2290   -0.0710 n3        1 INQ     -0.737600
     22 C22        -2.8570    8.4740   -1.1110 ca        1 INQ     -0.124000
     23 C23        -2.5050    7.5280   -2.0880 ca        1 INQ      0.068600
     24 C24        -2.7980    7.7710   -3.4480 ca        1 INQ     -0.142000
     25 C25        -3.4580    8.9410   -3.8140 ca        1 INQ     -0.084000
     26 C26        -3.8180    9.8880   -2.8600 ca        1 INQ     -0.178000
     27 C27        -3.5110    9.6510   -1.5130 ca        1 INQ      0.126100
     28 O28        -3.8040   10.5420   -0.5100 oh        1 INQ     -0.488100
     29 O29        -0.9950   -0.9270   -1.0710 o         1 INQ     -0.571800
     30 H031       -0.9350   -0.7310    1.4680 hn        1 INQ      0.452800
     31 H032        0.6200   -0.2120    1.6050 hn        1 INQ      0.452800
     32 H051        1.2610    2.5630   -0.6440 ha        1 INQ      0.192000
     33 H091        1.2380    5.2050   -0.8590 ha        1 INQ      0.171000
     34 H151        1.3170    7.3800   -1.7460 h1        1 INQ      0.070200
     35 H152       -0.1800    8.3300   -2.1460 h1        1 INQ      0.070200
     36 H171       -0.7310   10.0910    1.8510 h1        1 INQ      0.061950
     37 H172        0.3540   11.4250    1.1960 h1        1 INQ      0.061950
     38 H191        2.3270    8.2330    2.6790 h1        1 INQ      0.061950
     39 H192        0.4930    8.1070    2.7620 h1        1 INQ      0.061950
     40 H201        2.3600    7.9550    0.2810 h1        1 INQ      0.044700
     41 H202        1.2400    6.6620    0.9170 h1        1 INQ      0.044700
     42 H221       -2.6320    8.3210   -0.0430 ha        1 INQ      0.180000
     43 H241       -2.5360    7.0290   -4.2210 ha        1 INQ      0.160000
     44 H251       -3.6970    9.1170   -4.8750 ha        1 INQ      0.157000
     45 H261       -4.3390   10.8110   -3.1580 ha        1 INQ      0.154000
     46 H281       -4.3250   11.2670   -0.8890 ho        1 INQ      0.434000
     47 H161       -0.8280    9.9460   -0.5880 h1        1 INQ      0.044700
     48 H033       -0.6110    0.8770    1.6020 hn        1 INQ      0.452800
     49 H162        0.9860   10.1340   -0.7400 h1        1 INQ      0.044700
@<TRIPOS>BOND
     1    1    2 2   
     2    1    3 1   
     3    1    4 1   
     4    1   29 2   
     5    3   30 1   
     6    3   31 1   
     7    3   48 1   
     8    4    5 2   
     9    4    8 1   
    10    5    6 1   
    11    5   32 1   
    12    6    7 2   
    13    6    9 1   
    14    7    8 1   
    15    7   12 1   
    16    9   10 2   
    17    9   33 1   
    18   10   11 1   
    19   10   15 1   
    20   11   12 1   
    21   11   23 1   
    22   12   13 2   
    23   12   14 2   
    24   15   21 1   
    25   15   34 1   
    26   15   35 1   
    27   16   17 1   
    28   16   21 1   
    29   16   47 1   
    30   16   49 1   
    31   17   18 1   
    32   17   36 1   
    33   17   37 1   
    34   18   19 1   
    35   19   20 1   
    36   19   38 1   
    37   19   39 1   
    38   20   21 1   
    39   20   40 1   
    40   20   41 1   
    41   22   23 ar  
    42   22   27 ar  
    43   22   42 1   
    44   23   24 ar  
    45   24   25 ar  
    46   24   43 1   
    47   25   26 ar  
    48   25   44 1   
    49   26   27 ar  
    50   26   45 1   
    51   27   28 1   
    52   28   46 1   
@<TRIPOS>SUBSTRUCTURE
     1 INQ         1 TEMP              0 ****  ****    0 ROOT
