@<TRIPOS>MOLECULE
INR
   33    36     1     0     0
SMALL
bcc


@<TRIPOS>ATOM
      1 C1         -0.0460    0.0920    0.0160 ca        1 INR      0.054800
      2 C2          1.3810    0.0040   -0.1140 ca        1 INR     -0.239600
      3 C6         -0.6410    0.0920    1.2800 ca        1 INR     -0.195000
      4 N7         -0.6390    0.2200   -1.2440 na        1 INR     -0.234400
      5 C3          2.1880   -0.0680    1.0040 ca        1 INR     -0.020000
      6 C8          1.7020    0.0130   -1.5620 c         1 INR      0.587900
      7 C4          1.5850   -0.0620    2.2680 ca        1 INR     -0.198000
      8 C5          0.1980    0.0160    2.3950 ca        1 INR     -0.072000
      9 O10         2.8130   -0.0240   -2.0750 o         1 INR     -0.467100
     10 C9          0.3490    0.0700   -2.2550 cc        1 INR     -0.048300
     11 C11         0.0560   -0.0070   -3.5740 cd        1 INR     -0.072400
     12 C12        -1.3820   -0.0640   -4.0680 c         1 INR      0.697700
     13 C15         0.8790   -0.0680   -4.7810 ca        1 INR     -0.145800
     14 O13        -2.4340   -0.0520   -3.4020 o         1 INR     -0.667500
     15 N14        -1.3570   -0.1700   -5.4610 n         1 INR     -0.474100
     16 C16        -0.0180   -0.1620   -5.9110 ca        1 INR      0.054600
     17 C20         2.2450   -0.0370   -5.0210 ca        1 INR      0.037000
     18 C19         2.7270   -0.1090   -6.3350 ca        1 INR     -0.278500
     19 C18         1.8430   -0.2020   -7.4010 ca        1 INR     -0.008000
     20 S21         4.4860   -0.0850   -6.6580 s6        1 INR      1.461100
     21 C17         0.4530   -0.2280   -7.2130 ca        1 INR     -0.201000
     22 O24         4.5710    0.0520   -8.0640 o         1 INR     -0.741867
     23 O23         4.9560   -1.3250   -6.1790 o         1 INR     -0.741867
     24 O22         4.9660    1.0300   -5.9410 o         1 INR     -0.741867
     25 HC6        -1.7300    0.1550    1.3980 ha        1 INR      0.138000
     26 H7         -1.5950    0.0090   -1.4200 hn        1 INR      0.316700
     27 HC3         3.2820   -0.1300    0.8970 ha        1 INR      0.151000
     28 HC4         2.2130   -0.1190    3.1680 ha        1 INR      0.130000
     29 HC5        -0.2530    0.0170    3.3990 ha        1 INR      0.124000
     30 H14        -2.1460   -0.1880   -6.0480 hn        1 INR      0.332500
     31 H20         2.9740    0.0530   -4.1970 ha        1 INR      0.177000
     32 H18         2.2520   -0.2480   -8.4280 ha        1 INR      0.162000
     33 H17        -0.2280   -0.2980   -8.0700 ha        1 INR      0.122000
@<TRIPOS>BOND
     1    1    2 ar  
     2    1    3 ar  
     3    1    4 1   
     4    2    5 ar  
     5    2    6 1   
     6    3    8 ar  
     7    3   25 1   
     8    4   10 1   
     9    4   26 1   
    10    5    7 ar  
    11    5   27 1   
    12    6    9 2   
    13    6   10 1   
    14    7    8 ar  
    15    7   28 1   
    16    8   29 1   
    17   10   11 2   
    18   11   12 1   
    19   11   13 1   
    20   12   14 2   
    21   12   15 1   
    22   13   16 ar  
    23   13   17 ar  
    24   15   16 1   
    25   15   30 1   
    26   16   21 ar  
    27   17   18 ar  
    28   17   31 1   
    29   18   19 ar  
    30   18   20 1   
    31   19   21 ar  
    32   19   32 1   
    33   20   22 1   
    34   20   23 1   
    35   20   24 1   
    36   21   33 1   
@<TRIPOS>SUBSTRUCTURE
     1 INR         1 TEMP              0 ****  ****    0 ROOT
