@<TRIPOS>MOLECULE
INR
   33    36     1     0     0
SMALL
bcc


@<TRIPOS>ATOM
      1 C1          5.5050   42.2290   49.5900 ca        1 INR      0.054800
      2 C2          4.5510   42.7120   50.5480 ca        1 INR     -0.239600
      3 C6          5.1250   41.2880   48.6290 ca        1 INR     -0.195000
      4 N7          6.7620   42.7910   49.8340 na        1 INR     -0.234400
      5 C3          3.2510   42.2480   50.5450 ca        1 INR     -0.020000
      6 C8          5.2430   43.6970   51.4140 c         1 INR      0.587900
      7 C4          2.8790   41.3010   49.5810 ca        1 INR     -0.198000
      8 C5          3.8030   40.8370   48.6460 ca        1 INR     -0.072000
      9 O10         4.7710   44.3100   52.3620 o         1 INR     -0.467100
     10 C9          6.6560   43.7750   50.8550 cc        1 INR     -0.048300
     11 C11         7.6740   44.5970   51.2020 cd        1 INR     -0.072400
     12 C12         8.9830   44.6120   50.4290 c         1 INR      0.697700
     13 C15         7.8360   45.5990   52.2540 ca        1 INR     -0.145800
     14 O13         9.3100   43.9340   49.4370 o         1 INR     -0.667500
     15 N14         9.8130   45.5780   51.0050 n         1 INR     -0.474100
     16 C16         9.1550   46.1720   52.1030 ca        1 INR      0.054600
     17 C20         7.0320   46.0500   53.2910 ca        1 INR      0.037000
     18 C19         7.5000   47.0490   54.1560 ca        1 INR     -0.278500
     19 C18         8.7700   47.5840   53.9870 ca        1 INR     -0.008000
     20 S21         6.4700   47.6500   55.4880 s6        1 INR      1.461100
     21 C17         9.6250   47.1570   52.9600 ca        1 INR     -0.201000
     22 O24         7.3430   48.4590   56.2540 o         1 INR     -0.741867
     23 O23         6.0290   46.4870   56.1530 o         1 INR     -0.741867
     24 O22         5.4420   48.3730   54.8490 o         1 INR     -0.741867
     25 HC6         5.8400   40.9100   47.8870 ha        1 INR      0.138000
     26 H7          7.4810   42.8330   49.1480 hn        1 INR      0.316700
     27 HC3         2.5250   42.6190   51.2850 ha        1 INR      0.151000
     28 HC4         1.8480   40.9220   49.5650 ha        1 INR      0.130000
     29 HC5         3.4870   40.0940   47.8970 ha        1 INR      0.124000
     30 H14        10.7370   45.7760   50.7290 hn        1 INR      0.332500
     31 H20         6.0240   45.6350   53.4630 ha        1 INR      0.177000
     32 H18         9.1160   48.3640   54.6900 ha        1 INR      0.162000
     33 H17        10.6260   47.5890   52.8460 ha        1 INR      0.122000
@<TRIPOS>BOND
     1    1    2 ar  
     2    1    3 ar  
     3    1    4 1   
     4    2    5 ar  
     5    2    6 1   
     6    3    8 ar  
     7    3   25 1   
     8    4   10 1   
     9    4   26 1   
    10    5    7 ar  
    11    5   27 1   
    12    6    9 2   
    13    6   10 1   
    14    7    8 ar  
    15    7   28 1   
    16    8   29 1   
    17   10   11 2   
    18   11   12 1   
    19   11   13 1   
    20   12   14 2   
    21   12   15 1   
    22   13   16 ar  
    23   13   17 ar  
    24   15   16 1   
    25   15   30 1   
    26   16   21 ar  
    27   17   18 ar  
    28   17   31 1   
    29   18   19 ar  
    30   18   20 1   
    31   19   21 ar  
    32   19   32 1   
    33   20   22 1   
    34   20   23 1   
    35   20   24 1   
    36   21   33 1   
@<TRIPOS>SUBSTRUCTURE
     1 INR         1 TEMP              0 ****  ****    0 ROOT
