@<TRIPOS>MOLECULE
INR
   33    29     1     0     0
SMALL
bcc


@<TRIPOS>ATOM
      1 C1         -1.4820   -0.3260    2.3310 c1        1 INR      0.100000
      2 C2         -0.1660   -0.7780    2.4980 c1        1 INR     -0.219000
      3 C6         -2.2440    0.0260    3.4450 c1        1 INR     -0.195000
      4 N7         -1.8110   -0.3820    0.8690 n3        1 INR     -0.257000
      5 C3          0.3810   -0.8750    3.7810 c1        1 INR     -0.020000
      6 C8          0.3360   -1.2250    1.1700 c2        1 INR      0.309000
      7 C4         -0.3810   -0.5230    4.8910 c1        1 INR     -0.135000
      8 C5         -1.6960   -0.0720    4.7240 c1        1 INR     -0.135000
      9 O10         1.4130   -1.7460    0.9510 o         1 INR     -0.228000
     10 C9         -0.7310   -1.0240    0.2000 c2        1 INR     -0.002000
     11 C11        -0.7570   -1.5070   -1.0580 c1        1 INR     -0.065000
     12 C12        -2.1140   -1.4200   -1.8460 c1        1 INR      0.336000
     13 C15         0.0630   -0.5210   -1.7730 c2        1 INR     -0.134000
     14 O13        -2.2620   -2.1580   -2.7940 o         1 INR     -0.392000
     15 N14        -1.9930   -0.0870   -2.5150 n3        1 INR     -0.328000
     16 C16        -0.7380    0.4770   -2.1500 c2        1 INR      0.062000
     17 C20         1.4650   -0.3720   -1.8560 c1        1 INR      0.037000
     18 C19         2.0070    0.8060   -2.3270 c1        1 INR     -0.723000
     19 C18         1.1840    1.8320   -2.7140 c1        1 INR     -0.008000
     20 S21         3.6570    1.2480   -2.7670 s4        1 INR      2.090800
     21 C17        -0.1840    1.6850   -2.6320 c1        1 INR     -0.201000
     22 O24         4.1240    2.4160   -1.9350 os        1 INR     -1.060000
     23 O23         3.7700    1.5450   -4.2420 o         1 INR     -0.675400
     24 O22         4.5980    0.0660   -2.6320 o         1 INR     -0.675400
     25 HC6        -3.1590    0.3390    3.3290 ha        1 INR      0.138000
     26 H7         -2.5820   -0.0910    0.4820 hn        1 INR      0.267000
     27 HC3         1.2980   -1.1900    3.8980 ha        1 INR      0.151000
     28 HC4         0.0040   -0.5920    5.7940 ha        1 INR      0.127000
     29 HC5        -2.2280    0.1740    5.5010 ha        1 INR      0.127000
     30 H14        -2.6160    0.2970   -3.0660 hn        1 INR      0.246000
     31 H20         2.0470   -1.1070   -1.6020 ha        1 INR      0.177000
     32 H18         1.5680    2.6690   -3.0480 ha        1 INR      0.162000
     33 H17        -0.7710    2.4170   -2.9080 ha        1 INR      0.122000
@<TRIPOS>BOND
     1    1    3 1   
     2    1    4 1   
     3    2    5 1   
     4    2    6 1   
     5    3   25 1   
     6    4   10 1   
     7    4   26 1   
     8    5   27 1   
     9    6    9 1   
    10    6   10 1   
    11    7    8 1   
    12    7   28 1   
    13    8   29 1   
    14   10   11 1   
    15   11   13 1   
    16   12   14 1   
    17   12   15 1   
    18   13   16 1   
    19   13   17 1   
    20   15   16 1   
    21   15   30 1   
    22   16   21 1   
    23   17   31 1   
    24   18   19 1   
    25   18   20 1   
    26   19   32 1   
    27   20   23 1   
    28   20   24 1   
    29   21   33 1   
@<TRIPOS>SUBSTRUCTURE
     1 INR         1 TEMP              0 ****  ****    0 ROOT
