@<TRIPOS>MOLECULE
INS
   24    24     1     0     0
SMALL
bcc


@<TRIPOS>ATOM
      1 C1         -0.7660    0.7220   -1.0560 c3        1 INS      0.093767
      2 C2          0.7540    0.7220   -1.0560 c3        1 INS      0.093767
      3 C3          1.3360    0.7220    0.3500 c3        1 INS      0.093767
      4 C4          0.7540   -0.3830    1.2200 c3        1 INS      0.093767
      5 C5         -0.7670   -0.3840    1.2200 c3        1 INS      0.093767
      6 C6         -1.3480   -0.3840   -0.1850 c3        1 INS      0.093767
      7 O1         -1.2230    0.5470   -2.3850 oh        1 INS     -0.599467
      8 O2          1.2120   -0.4310   -1.7410 oh        1 INS     -0.599467
      9 O3          1.0650    1.9730    0.9570 oh        1 INS     -0.599467
     10 O4          1.2120   -1.6340    0.7370 oh        1 INS     -0.599467
     11 O5         -1.2250   -1.5370    1.9050 oh        1 INS     -0.599467
     12 O6         -1.0770   -1.6350   -0.7920 oh        1 INS     -0.599467
     13 H1         -1.0810    1.5840   -0.7240 h1        1 INS      0.089533
     14 H2          1.0700    1.5160   -1.5280 h1        1 INS      0.089533
     15 H3          2.3030    0.6020    0.2910 h1        1 INS      0.089533
     16 H4          1.0700   -0.2630    2.1360 h1        1 INS      0.089533
     17 H5         -1.0830    0.4100    1.6920 h1        1 INS      0.089533
     18 H6         -2.3150   -0.2640   -0.1270 h1        1 INS      0.089533
     19 HO1        -1.7010    1.2540   -2.6290 ho        1 INS      0.416333
     20 HO2         1.7620   -0.1890   -2.3950 ho        1 INS      0.416333
     21 HO3         1.8290    2.3780    1.1540 ho        1 INS      0.416333
     22 HO4         1.7620   -1.9970    1.3320 ho        1 INS      0.416333
     23 HO5        -1.7020   -1.2920    2.6120 ho        1 INS      0.416333
     24 HO6        -1.8420   -2.0400   -0.9890 ho        1 INS      0.416333
@<TRIPOS>BOND
     1    1    2 1   
     2    1    6 1   
     3    1    7 1   
     4    1   13 1   
     5    2    3 1   
     6    2    8 1   
     7    2   14 1   
     8    3    4 1   
     9    3    9 1   
    10    3   15 1   
    11    4    5 1   
    12    4   10 1   
    13    4   16 1   
    14    5    6 1   
    15    5   11 1   
    16    5   17 1   
    17    6   12 1   
    18    6   18 1   
    19    7   19 1   
    20    8   20 1   
    21    9   21 1   
    22   10   22 1   
    23   11   23 1   
    24   12   24 1   
@<TRIPOS>SUBSTRUCTURE
     1 INS         1 TEMP              0 ****  ****    0 ROOT
