@<TRIPOS>MOLECULE
INS
   24    24     1     0     0
SMALL
bcc


@<TRIPOS>ATOM
      1 C1          0.1050    0.1040   -0.0890 c3        1 INS      0.109267
      2 C2          1.6450    0.0830   -0.0360 c3        1 INS      0.109267
      3 C3          2.0900    0.0920    1.4350 c3        1 INS      0.109267
      4 C4          1.5190   -1.1420    2.1530 c3        1 INS      0.109267
      5 C5         -0.0170   -1.0810    2.1200 c3        1 INS      0.109267
      6 C6         -0.4910   -1.1030    0.6620 c3        1 INS      0.109267
      7 O1         -0.2410    0.0540   -1.4630 oh        1 INS     -0.593467
      8 O2          2.1470   -1.0920   -0.6480 oh        1 INS     -0.593467
      9 O3          3.5030    0.1030    1.4660 oh        1 INS     -0.593467
     10 O4          1.9620   -1.0910    3.5020 oh        1 INS     -0.593467
     11 O5         -0.5830   -2.2060    2.7680 oh        1 INS     -0.593467
     12 O6         -1.8990   -1.0780    0.5270 oh        1 INS     -0.593467
     13 H1         -0.2840    1.0620    0.3540 h1        1 INS      0.067700
     14 H2          2.0550    0.9890   -0.5600 h1        1 INS      0.067700
     15 H3          1.7010    1.0280    1.9290 h1        1 INS      0.067700
     16 H4          1.8830   -2.0750    1.6400 h1        1 INS      0.067700
     17 H5         -0.3690   -0.1390    2.6300 h1        1 INS      0.067700
     18 H6         -0.1660   -2.0590    0.1580 h1        1 INS      0.067700
     19 HO1        -1.1740   -0.1980   -1.5090 ho        1 INS      0.416500
     20 HO2         1.8300   -1.0750   -1.5620 ho        1 INS      0.416500
     21 HO3         3.7560   -0.0490    2.3870 ho        1 INS      0.416500
     22 HO4         2.1140   -2.0010    3.7820 ho        1 INS      0.416500
     23 HO5        -0.2930   -2.1610    3.6890 ho        1 INS      0.416500
     24 HO6        -2.2660   -0.6270    1.2960 ho        1 INS      0.416500
@<TRIPOS>BOND
     1    1    2 1   
     2    1    6 1   
     3    1    7 1   
     4    1   13 1   
     5    2    3 1   
     6    2    8 1   
     7    2   14 1   
     8    3    4 1   
     9    3    9 1   
    10    3   15 1   
    11    4    5 1   
    12    4   10 1   
    13    4   16 1   
    14    5    6 1   
    15    5   11 1   
    16    5   17 1   
    17    6   12 1   
    18    6   18 1   
    19    7   19 1   
    20    8   20 1   
    21    9   21 1   
    22   10   22 1   
    23   11   23 1   
    24   12   24 1   
@<TRIPOS>SUBSTRUCTURE
     1 INS         1 TEMP              0 ****  ****    0 ROOT
