@<TRIPOS>MOLECULE
INS
   24    24     1     0     0
SMALL
bcc


@<TRIPOS>ATOM
      1 C1          1.2100   -0.8140    0.5690 c3        1 INS      0.114267
      2 C2         -0.0660   -1.5710    0.1660 c3        1 INS      0.114267
      3 C3         -1.2930   -0.7170    0.5420 c3        1 INS      0.114267
      4 C4         -1.2350    0.6540   -0.1550 c3        1 INS      0.114267
      5 C5          0.0610    1.3850    0.2220 c3        1 INS      0.114267
      6 C6          1.2710    0.5280   -0.1790 c3        1 INS      0.114267
      7 O1          2.3190   -1.6330    0.2620 oh        1 INS     -0.600133
      8 O2         -0.0270   -1.8020   -1.2300 oh        1 INS     -0.600133
      9 O3         -2.4270   -1.4460    0.1010 oh        1 INS     -0.600133
     10 O4         -2.3720    1.3760    0.2860 oh        1 INS     -0.600133
     11 O5          0.0550    2.6110   -0.4940 oh        1 INS     -0.600133
     12 O6          2.4710    1.1750    0.2200 oh        1 INS     -0.600133
     13 H1          1.1870   -0.6240    1.6800 h1        1 INS      0.066533
     14 H2         -0.1100   -2.5530    0.7130 h1        1 INS      0.066533
     15 H3         -1.3440   -0.5750    1.6560 h1        1 INS      0.066533
     16 H4         -1.2810    0.5140   -1.2720 h1        1 INS      0.066533
     17 H5          0.0830    1.5930    1.3280 h1        1 INS      0.066533
     18 H6          1.2650    0.3390   -1.2880 h1        1 INS      0.066533
     19 HO1         3.1040   -1.0760    0.3540 ho        1 INS      0.419833
     20 HO2        -0.8490   -2.2640   -1.4500 ho        1 INS      0.419833
     21 HO3        -3.1920   -0.8660    0.2160 ho        1 INS      0.419833
     22 HO4        -2.3050    2.2590   -0.1010 ho        1 INS      0.419833
     23 HO5         0.7990    3.1270   -0.1600 ho        1 INS      0.419833
     24 HO6         2.7400    1.7400   -0.5140 ho        1 INS      0.419833
@<TRIPOS>BOND
     1    1    2 1   
     2    1    6 1   
     3    1    7 1   
     4    1   13 1   
     5    2    3 1   
     6    2    8 1   
     7    2   14 1   
     8    3    4 1   
     9    3    9 1   
    10    3   15 1   
    11    4    5 1   
    12    4   10 1   
    13    4   16 1   
    14    5    6 1   
    15    5   11 1   
    16    5   17 1   
    17    6   12 1   
    18    6   18 1   
    19    7   19 1   
    20    8   20 1   
    21    9   21 1   
    22   10   22 1   
    23   11   23 1   
    24   12   24 1   
@<TRIPOS>SUBSTRUCTURE
     1 INS         1 TEMP              0 ****  ****    0 ROOT
