@<TRIPOS>MOLECULE
INS
   24    24     1     0     0
SMALL
bcc


@<TRIPOS>ATOM
      1 C1          0.0970    0.1000   -0.1060 c3        1 INS      0.114267
      2 C2          1.6370    0.1220   -0.0280 c3        1 INS      0.114267
      3 C3          2.0600    0.0980    1.4500 c3        1 INS      0.114267
      4 C4          1.5320   -1.1820    2.1170 c3        1 INS      0.114267
      5 C5         -0.0030   -1.1840    2.0610 c3        1 INS      0.114267
      6 C6         -0.4640   -1.1480    0.5980 c3        1 INS      0.114267
      7 O1         -0.2240    0.0730   -1.4870 oh        1 INS     -0.600133
      8 O2          2.1860   -1.0150   -0.6690 oh        1 INS     -0.600133
      9 O3          3.4710    0.1690    1.5000 oh        1 INS     -0.600133
     10 O4          1.9630   -1.1570    3.4700 oh        1 INS     -0.600133
     11 O5         -0.5240   -2.3810    2.6190 oh        1 INS     -0.600133
     12 O6         -1.8760   -1.0540    0.5120 oh        1 INS     -0.600133
     13 H1         -0.3320    1.0270    0.3640 h1        1 INS      0.066533
     14 H2          2.0250    1.0590   -0.5160 h1        1 INS      0.066533
     15 H3          1.6270    1.0000    1.9690 h1        1 INS      0.066533
     16 H4          1.9430   -2.0810    1.5810 h1        1 INS      0.066533
     17 H5         -0.4110   -0.2960    2.6200 h1        1 INS      0.066533
     18 H6         -0.1110   -2.0750    0.0650 h1        1 INS      0.066533
     19 HO1        -1.1790   -0.0680   -1.5470 ho        1 INS      0.419833
     20 HO2         1.8870   -0.9760   -1.5890 ho        1 INS      0.419833
     21 HO3         3.7210   -0.0260    2.4140 ho        1 INS      0.419833
     22 HO4         2.0420   -2.0750    3.7550 ho        1 INS      0.419833
     23 HO5        -0.3470   -2.3400    3.5670 ho        1 INS      0.419833
     24 HO6        -2.2330   -1.8040    1.0080 ho        1 INS      0.419833
@<TRIPOS>BOND
     1    1    2 1   
     2    1    6 1   
     3    1    7 1   
     4    1   13 1   
     5    2    3 1   
     6    2    8 1   
     7    2   14 1   
     8    3    4 1   
     9    3    9 1   
    10    3   15 1   
    11    4    5 1   
    12    4   10 1   
    13    4   16 1   
    14    5    6 1   
    15    5   11 1   
    16    5   17 1   
    17    6   12 1   
    18    6   18 1   
    19    7   19 1   
    20    8   20 1   
    21    9   21 1   
    22   10   22 1   
    23   11   23 1   
    24   12   24 1   
@<TRIPOS>SUBSTRUCTURE
     1 INS         1 TEMP              0 ****  ****    0 ROOT
