@<TRIPOS>MOLECULE
INT
   69    70     1     0     0
SMALL
bcc


@<TRIPOS>ATOM
      1 C1          1.5280    0.6120   -0.4090 c3        1 INT      0.107500
      2 C2          0.2780    1.3650   -0.9090 c3        1 INT      0.105400
      3 O1          0.4550    2.7520   -0.7080 oh        1 INT     -0.648800
      4 C3          1.5030    0.4860    1.1210 c3        1 INT     -0.055100
      5 C4          2.7630   -0.0800    1.6680 ca        1 INT     -0.181300
      6 C5          3.7760    0.7770    2.1270 ca        1 INT     -0.140000
      7 C6          4.9250    0.2510    2.7150 ca        1 INT     -0.107500
      8 C7          5.0720   -1.1320    2.8500 ca        1 INT     -0.087000
      9 C8          4.0670   -1.9870    2.3970 ca        1 INT     -0.107500
     10 C9          2.9140   -1.4640    1.8080 ca        1 INT     -0.140000
     11 N1          2.8060    1.3340   -0.8400 n4        1 INT     -0.661800
     12 C10         3.5290    2.3280   -3.1090 c3        1 INT      0.049500
     13 C11         3.1740    1.1000   -2.2510 c         1 INT      0.524100
     14 O2          3.1940   -0.0450   -2.6930 o         1 INT     -0.415100
     15 C12         2.2380    3.1210   -3.4590 c3        1 INT     -0.092700
     16 CG1         2.5940    4.4950   -3.9850 c3        1 INT     -0.133100
     17 CG2         1.3540    2.3680   -4.4270 c3        1 INT     -0.133100
     18 N2          4.2480    1.9100   -4.3710 n4        1 INT     -0.669800
     19 C19         5.7420    1.8030   -4.2670 c         1 INT      0.530100
     20 O4          6.2830    2.1410   -3.2280 o         1 INT     -0.378100
     21 C18         6.4840    1.2600   -5.5050 c3        1 INT      0.094500
     22 C20         7.1510   -0.0570   -5.1120 c3        1 INT     -0.152100
     23 N4          7.4760    2.2740   -5.9910 n4        1 INT     -0.680800
     24 C31         6.7850    3.5530   -6.4880 c         1 INT      0.666100
     25 O8          5.6330    3.7540   -6.0910 o         1 INT     -0.576000
     26 O9          7.5520    4.2350   -7.2790 os        1 INT     -0.398900
     27 CA          7.0230    5.5940   -7.8800 c3        1 INT      0.276700
     28 C           8.0780    5.9580   -8.8070 ca        1 INT     -0.201300
     29 C13         8.0000    5.5700  -10.1610 ca        1 INT     -0.057000
     30 C14         8.9700    5.9900  -11.0630 ca        1 INT     -0.133500
     31 C15        10.0350    6.7870  -10.6290 ca        1 INT     -0.022000
     32 C16        10.1280    7.1640   -9.2840 ca        1 INT     -0.133500
     33 C17         9.1610    6.7500   -8.3750 ca        1 INT     -0.057000
     34 H1          1.5630   -0.4190   -0.8730 hx        1 INT      0.131700
     35 H21         0.1500    1.2140   -2.0180 h1        1 INT      0.094700
     36 H22        -0.6200    0.9550   -0.3740 h1        1 INT      0.094700
     37 HO1        -0.2070    3.0680   -0.0750 ho        1 INT      0.472000
     38 H31         0.6360   -0.1900    1.3730 hc        1 INT      0.106200
     39 H32         1.2870    1.4900    1.5790 hc        1 INT      0.106200
     40 H5          3.6310    1.8680    2.1030 ha        1 INT      0.138500
     41 H6          5.7030    0.9270    3.1060 ha        1 INT      0.167500
     42 H7          5.9700   -1.5450    3.3400 ha        1 INT      0.173000
     43 H8          4.1690   -3.0780    2.5270 ha        1 INT      0.167500
     44 H9          2.1110   -2.1450    1.4850 ha        1 INT      0.138500
     45 HN1         3.5700    0.9810   -0.2190 hn        1 INT      0.495800
     46 H10         4.2290    3.0090   -2.5290 hx        1 INT      0.157700
     47 H12         1.6730    3.2610   -2.4860 hc        1 INT      0.129700
     48 HG11        1.6490    5.0860   -4.1210 hc        1 INT      0.075867
     49 HG12        3.1050    4.4530   -4.9780 hc        1 INT      0.075867
     50 HG13        3.2410    5.0500   -3.2640 hc        1 INT      0.075867
     51 HG21        0.3260    2.8190   -4.4130 hc        1 INT      0.075867
     52 HG22        1.7240    2.4400   -5.4780 hc        1 INT      0.075867
     53 HG23        1.2600    1.2910   -4.1420 hc        1 INT      0.075867
     54 HN2         4.0450    2.6400   -5.0910 hn        1 INT      0.504300
     55 H18         5.7640    1.0800   -6.3640 hx        1 INT      0.142700
     56 H201        6.3630   -0.7990   -4.8210 hc        1 INT      0.114700
     57 H202        7.8560    0.0750   -4.2520 hc        1 INT      0.114700
     58 H203        7.7140   -0.4900   -5.9800 hc        1 INT      0.114700
     59 HN4         8.0230    1.8650   -6.7680 hn        1 INT      0.496300
     60 HA1         6.9250    6.2420   -6.9770 h1        1 INT      0.092200
     61 HA2         6.0440    5.3160   -8.3380 h1        1 INT      0.092200
     62 H13         7.1570    4.9530  -10.5090 ha        1 INT      0.141500
     63 H14         8.8980    5.7020  -12.1260 ha        1 INT      0.175000
     64 H15        10.8010    7.1240  -11.3500 ha        1 INT      0.179000
     65 H16        10.9660    7.7980   -8.9490 ha        1 INT      0.175000
     66 H17         9.2320    7.0570   -7.3200 ha        1 INT      0.141500
     67 H121        2.6620    2.3400   -0.6590 hn        1 INT      0.495800
     68 H221        3.8570    1.0120   -4.6990 hn        1 INT      0.504300
     69 H42         8.1390    2.5230   -5.2420 hn        1 INT      0.496300
@<TRIPOS>BOND
     1    1    2 1   
     2    1    4 1   
     3    1   11 1   
     4    1   34 1   
     5    2    3 1   
     6    2   35 1   
     7    2   36 1   
     8    3   37 1   
     9    4    5 1   
    10    4   38 1   
    11    4   39 1   
    12    5    6 ar  
    13    5   10 ar  
    14    6    7 ar  
    15    6   40 1   
    16    7    8 ar  
    17    7   41 1   
    18    8    9 ar  
    19    8   42 1   
    20    9   10 ar  
    21    9   43 1   
    22   10   44 1   
    23   11   13 1   
    24   11   45 1   
    25   11   67 1   
    26   12   13 1   
    27   12   15 1   
    28   12   18 1   
    29   12   46 1   
    30   13   14 2   
    31   15   16 1   
    32   15   17 1   
    33   15   47 1   
    34   16   48 1   
    35   16   49 1   
    36   16   50 1   
    37   17   51 1   
    38   17   52 1   
    39   17   53 1   
    40   18   19 1   
    41   18   54 1   
    42   18   68 1   
    43   19   20 2   
    44   19   21 1   
    45   21   22 1   
    46   21   23 1   
    47   21   55 1   
    48   22   56 1   
    49   22   57 1   
    50   22   58 1   
    51   23   24 1   
    52   23   59 1   
    53   23   69 1   
    54   24   25 2   
    55   24   26 1   
    56   26   27 1   
    57   27   28 1   
    58   27   60 1   
    59   27   61 1   
    60   28   29 ar  
    61   28   33 ar  
    62   29   30 ar  
    63   29   62 1   
    64   30   31 ar  
    65   30   63 1   
    66   31   32 ar  
    67   31   64 1   
    68   32   33 ar  
    69   32   65 1   
    70   33   66 1   
@<TRIPOS>SUBSTRUCTURE
     1 INT         1 TEMP              0 ****  ****    0 ROOT
