@<TRIPOS>MOLECULE
INT
   66    63     1     0     0
SMALL
bcc


@<TRIPOS>ATOM
      1 C1         -2.1690   -1.3010    3.4300 c3        1 INT     -0.005000
      2 C2         -3.2790   -1.3190    4.3940 c3        1 INT     -0.034000
      3 O1         -3.6710   -2.6430    4.6290 oh        1 INT     -0.326000
      4 C3         -0.8490   -1.5950    4.1630 c3        1 INT     -0.137000
      5 C4         -0.6430   -3.1130    4.2560 c2        1 INT     -0.082000
      6 C5         -0.1920   -3.8260    3.1430 c1        1 INT     -0.137000
      7 C6         -0.0070   -5.2060    3.2270 c1        1 INT     -0.126000
      8 C7         -0.2730   -5.8700    4.4170 c1        1 INT     -0.126000
      9 C8         -0.7250   -5.1560    5.5320 c1        1 INT     -0.124000
     10 C9         -0.9100   -3.7800    5.4480 c2        1 INT     -0.123000
     11 N1         -2.0950    0.0040    2.8030 n         1 INT     -0.363000
     12 C10        -2.6090    1.5900    0.8100 c3        1 INT      0.010000
     13 C11        -2.7540    0.2390    1.5020 c2        1 INT      0.276000
     14 O2         -3.4830   -0.6150    1.0240 o         1 INT     -0.385000
     15 C12        -3.9750    2.2610    0.7130 c3        1 INT     -0.105000
     16 CG1        -3.8360    3.7060    0.9820 c3        1 INT     -0.216000
     17 CG2        -4.5230    2.0640   -0.6380 c3        1 INT     -0.216000
     18 N2         -2.0740    1.4000   -0.5040 n         1 INT     -0.350000
     19 C19        -0.7310    1.8350   -0.8070 c2        1 INT      0.271000
     20 O4         -0.1100    2.5020    0.0010 o         1 INT     -0.373000
     21 C18        -0.0900    1.4670   -2.1590 c3        1 INT      0.005000
     22 C20         0.0170   -0.0140   -2.2700 c3        1 INT     -0.221000
     23 N4          1.2110    2.0470   -2.2420 n         1 INT     -0.309000
     24 C31         1.9090    2.0830   -3.5080 c2        1 INT      0.385000
     25 O8          1.2810    2.2720   -4.5540 o         1 INT     -0.404000
     26 O9          3.3270    2.0150   -3.5370 os        1 INT     -0.270000
     27 CA          3.8840    2.3470   -4.7780 c3        1 INT      0.037000
     28 C           5.1710    1.5630   -4.9860 c2        1 INT     -0.121000
     29 C13         5.2060    0.5130   -5.9070 c2        1 INT     -0.105000
     30 C14         6.3730   -0.2320   -6.0710 c1        1 INT     -0.136000
     31 C15         7.5090    0.0710   -5.3150 c1        1 INT     -0.126000
     32 C16         7.4740    1.1210   -4.3940 c1        1 INT     -0.126000
     33 C17         6.3060    1.8670   -4.2290 c1        1 INT     -0.106000
     34 H1         -2.3200   -1.9820    2.7470 h1        1 INT      0.101000
     35 H21        -2.9890   -0.9150    5.2280 h1        1 INT      0.099000
     36 H22        -4.0330   -0.8160    4.0330 h1        1 INT      0.099000
     37 HO1        -4.2350   -2.6670    5.3110 ho        1 INT      0.202000
     38 H31        -0.1080   -1.1950    3.6720 hc        1 INT      0.107500
     39 H32        -0.8860   -1.2080    5.0810 hc        1 INT      0.107500
     40 H5         -0.0040   -3.3580    2.3040 ha        1 INT      0.126000
     41 H6          0.3090   -5.7050    2.4490 ha        1 INT      0.132750
     42 H7         -0.1440   -6.8350    4.4760 ha        1 INT      0.132750
     43 H8         -0.9100   -5.6190    6.3610 ha        1 INT      0.133000
     44 H9         -1.2250   -3.2820    6.2260 ha        1 INT      0.133000
     45 HN1        -1.7070    0.7110    3.2570 hn        1 INT      0.232000
     46 H10        -1.9990    2.1630    1.3340 h1        1 INT      0.139000
     47 H12        -4.5840    1.8620    1.3750 hc        1 INT      0.095000
     48 HG11       -3.2120    4.0960    0.3460 hc        1 INT      0.082833
     49 HG12       -4.7070    4.1390    0.8910 hc        1 INT      0.082833
     50 HG13       -3.5080    3.8340    1.8720 hc        1 INT      0.082833
     51 HG21       -3.9900    2.5690   -1.2830 hc        1 INT      0.082833
     52 HG22       -5.4490    2.3790   -0.6630 hc        1 INT      0.082833
     53 HG23       -4.4960    1.1250   -0.8630 hc        1 INT      0.082833
     54 HN2        -2.5630    0.9750   -1.1350 hn        1 INT      0.240000
     55 H18        -0.6390    1.8050   -2.8790 h1        1 INT      0.143000
     56 H201       -0.8660   -0.3920   -2.5120 hc        1 INT      0.096000
     57 H202        0.6760   -0.2470   -2.9660 hc        1 INT      0.096000
     58 H203        0.3050   -0.3850   -1.4100 hc        1 INT      0.096000
     59 HN4         1.6000    2.3980   -1.5000 hn        1 INT      0.245000
     60 HA1         4.0790    3.3120   -4.8030 h1        1 INT      0.114000
     61 HA2         3.2510    2.1260   -5.4870 h1        1 INT      0.114000
     62 H13         4.3990    0.2970   -6.4450 ha        1 INT      0.156000
     63 H14         6.3970   -0.9730   -6.7210 ha        1 INT      0.133000
     64 H15         8.3330   -0.4550   -5.4310 ha        1 INT      0.132750
     65 H16         8.2710    1.3330   -3.8630 ha        1 INT      0.132750
     66 H17         6.2810    2.6140   -3.5740 ha        1 INT      0.132000
@<TRIPOS>BOND
     1    1    2 1   
     2    1    4 1   
     3    1   11 1   
     4    1   34 1   
     5    2    3 1   
     6    2   35 1   
     7    2   36 1   
     8    3   37 1   
     9    4    5 1   
    10    4   38 1   
    11    4   39 1   
    12    5    6 1   
    13    5   10 1   
    14    6   40 1   
    15    7    8 1   
    16    7   41 1   
    17    8   42 1   
    18    9   10 1   
    19    9   43 1   
    20   10   44 1   
    21   11   13 1   
    22   11   45 1   
    23   12   13 1   
    24   12   15 1   
    25   12   18 1   
    26   12   46 1   
    27   13   14 1   
    28   15   16 1   
    29   15   17 1   
    30   15   47 1   
    31   16   48 1   
    32   16   49 1   
    33   16   50 1   
    34   17   51 1   
    35   17   52 1   
    36   17   53 1   
    37   18   19 1   
    38   18   54 1   
    39   19   20 1   
    40   19   21 1   
    41   21   22 1   
    42   21   23 1   
    43   21   55 1   
    44   22   56 1   
    45   22   57 1   
    46   22   58 1   
    47   23   24 1   
    48   23   59 1   
    49   24   25 1   
    50   24   26 1   
    51   26   27 1   
    52   27   28 1   
    53   27   60 1   
    54   27   61 1   
    55   28   29 1   
    56   28   33 1   
    57   29   30 1   
    58   29   62 1   
    59   30   63 1   
    60   31   32 1   
    61   31   64 1   
    62   32   65 1   
    63   33   66 1   
@<TRIPOS>SUBSTRUCTURE
     1 INT         1 TEMP              0 ****  ****    0 ROOT
