@<TRIPOS>MOLECULE
INT
   66    67     1     0     0
SMALL
bcc


@<TRIPOS>ATOM
      1 C1          0.3930   -0.2550    5.3740 c3        1 INT      0.108700
      2 C2          1.3930   -0.7760    6.4340 c3        1 INT      0.107400
      3 O1          1.3710   -2.1940    6.4010 oh        1 INT     -0.607800
      4 C3         -1.0170   -0.7290    5.7720 c3        1 INT     -0.048100
      5 C4         -2.0860   -0.1380    4.9260 ca        1 INT     -0.080300
      6 C5         -2.8150   -0.9390    4.0400 ca        1 INT     -0.123000
      7 C6         -3.8310   -0.3840    3.2630 ca        1 INT     -0.127000
      8 C7         -4.1290    0.9750    3.3650 ca        1 INT     -0.132000
      9 C8         -3.4060    1.7780    4.2470 ca        1 INT     -0.127000
     10 C9         -2.3900    1.2260    5.0240 ca        1 INT     -0.123000
     11 N1          0.7600   -0.6510    4.0370 n         1 INT     -0.550900
     12 C10         1.6310   -0.3640    1.7170 c3        1 INT      0.034700
     13 C11         1.2550    0.2270    3.1050 c         1 INT      0.640100
     14 O2          1.4090    1.4420    3.3540 o         1 INT     -0.628100
     15 C12         3.1020   -0.8370    1.8010 c3        1 INT     -0.066700
     16 CG1         3.4290   -1.7500    0.6400 c3        1 INT     -0.097600
     17 CG2         4.0770    0.3180    1.8670 c3        1 INT     -0.097600
     18 N2          1.3940    0.5960    0.6700 n         1 INT     -0.537900
     19 C19         0.3550    0.4620   -0.2270 c         1 INT      0.628100
     20 O4         -0.3160   -0.5860   -0.3140 o         1 INT     -0.611100
     21 C18         0.0750    1.6760   -1.1510 c3        1 INT      0.028700
     22 C20        -0.8450    2.6200   -0.3730 c3        1 INT     -0.103100
     23 N4         -0.5070    1.2730   -2.4140 n         1 INT     -0.497900
     24 C31         0.3260    1.1720   -3.5210 c         1 INT      0.727100
     25 O8          1.4310    1.7100   -3.7030 o         1 INT     -0.586000
     26 O9         -0.2340    0.4340   -4.5430 os        1 INT     -0.434900
     27 CA          0.5240    0.4360   -5.7710 c3        1 INT      0.196700
     28 C          -0.2200   -0.3940   -6.7620 ca        1 INT     -0.096300
     29 C13        -1.6170   -0.4480   -6.7650 ca        1 INT     -0.111500
     30 C14        -2.2840   -1.2050   -7.7280 ca        1 INT     -0.131500
     31 C15        -1.5610   -1.9050   -8.6920 ca        1 INT     -0.125000
     32 C16        -0.1670   -1.8530   -8.6910 ca        1 INT     -0.131500
     33 C17         0.5040   -1.1040   -7.7270 ca        1 INT     -0.111500
     34 H1          0.4220    0.8770    5.4230 h1        1 INT      0.092700
     35 H21         2.4270   -0.4010    6.2150 h1        1 INT      0.033200
     36 H22         1.0740   -0.4100    7.4470 h1        1 INT      0.033200
     37 HO1         2.0200   -2.4950    7.0470 ho        1 INT      0.405000
     38 H31        -1.0540   -1.8510    5.7340 hc        1 INT      0.061700
     39 H32        -1.1830   -0.4260    6.8410 hc        1 INT      0.061700
     40 H5         -2.5850   -2.0110    3.9550 ha        1 INT      0.130500
     41 H6         -4.3970   -1.0200    2.5660 ha        1 INT      0.132000
     42 H7         -4.9310    1.4110    2.7530 ha        1 INT      0.130000
     43 H8         -3.6370    2.8500    4.3300 ha        1 INT      0.132000
     44 H9         -1.8190    1.8630    5.7160 ha        1 INT      0.130500
     45 HN1         0.6900   -1.6180    3.8240 hn        1 INT      0.323500
     46 H10         0.9850   -1.2710    1.5020 h1        1 INT      0.101700
     47 H12         3.1860   -1.4320    2.7550 hc        1 INT      0.052700
     48 HG11        4.4740   -2.1310    0.7410 hc        1 INT      0.043367
     49 HG12        2.7330   -2.6230    0.6170 hc        1 INT      0.043367
     50 HG13        3.3450   -1.2060   -0.3310 hc        1 INT      0.043367
     51 HG21        4.1870    0.8070    0.8690 hc        1 INT      0.043367
     52 HG22        3.7280    1.0830    2.6030 hc        1 INT      0.043367
     53 HG23        5.0820   -0.0520    2.1830 hc        1 INT      0.043367
     54 HN2         1.8030    1.4940    0.8080 hn        1 INT      0.326500
     55 H18         1.0460    2.2160   -1.3760 h1        1 INT      0.103700
     56 H201       -1.8040    2.1150   -0.1050 hc        1 INT      0.057033
     57 H202       -0.3300    2.9370    0.5650 hc        1 INT      0.057033
     58 H203       -1.0740    3.5260   -0.9830 hc        1 INT      0.057033
     59 HN4        -1.2430    0.5990   -2.3520 hn        1 INT      0.330500
     60 HA1         0.6220    1.4970   -6.1270 h1        1 INT      0.064700
     61 HA2         1.5450    0.0210   -5.5600 h1        1 INT      0.064700
     62 H13        -2.1830    0.1020   -5.9980 ha        1 INT      0.139000
     63 H14        -3.3840   -1.2480   -7.7240 ha        1 INT      0.132500
     64 H15        -2.0890   -2.5000   -9.4530 ha        1 INT      0.132000
     65 H16         0.4050   -2.4070   -9.4500 ha        1 INT      0.132500
     66 H17         1.6040   -1.0700   -7.7240 ha        1 INT      0.139000
@<TRIPOS>BOND
     1    1    2 1   
     2    1    4 1   
     3    1   11 1   
     4    1   34 1   
     5    2    3 1   
     6    2   35 1   
     7    2   36 1   
     8    3   37 1   
     9    4    5 1   
    10    4   38 1   
    11    4   39 1   
    12    5    6 ar  
    13    5   10 ar  
    14    6    7 ar  
    15    6   40 1   
    16    7    8 ar  
    17    7   41 1   
    18    8    9 ar  
    19    8   42 1   
    20    9   10 ar  
    21    9   43 1   
    22   10   44 1   
    23   11   13 1   
    24   11   45 1   
    25   12   13 1   
    26   12   15 1   
    27   12   18 1   
    28   12   46 1   
    29   13   14 2   
    30   15   16 1   
    31   15   17 1   
    32   15   47 1   
    33   16   48 1   
    34   16   49 1   
    35   16   50 1   
    36   17   51 1   
    37   17   52 1   
    38   17   53 1   
    39   18   19 1   
    40   18   54 1   
    41   19   20 2   
    42   19   21 1   
    43   21   22 1   
    44   21   23 1   
    45   21   55 1   
    46   22   56 1   
    47   22   57 1   
    48   22   58 1   
    49   23   24 1   
    50   23   59 1   
    51   24   25 2   
    52   24   26 1   
    53   26   27 1   
    54   27   28 1   
    55   27   60 1   
    56   27   61 1   
    57   28   29 ar  
    58   28   33 ar  
    59   29   30 ar  
    60   29   62 1   
    61   30   31 ar  
    62   30   63 1   
    63   31   32 ar  
    64   31   64 1   
    65   32   33 ar  
    66   32   65 1   
    67   33   66 1   
@<TRIPOS>SUBSTRUCTURE
     1 INT         1 TEMP              0 ****  ****    0 ROOT
