@<TRIPOS>MOLECULE
INT
   69    70     1     0     0
SMALL
bcc


@<TRIPOS>ATOM
      1 C1          1.5300    0.6540   -0.3830 c3        1 INT      0.107500
      2 C2          0.2900    1.4390   -0.8590 c3        1 INT      0.105400
      3 O1          0.5000    2.8200   -0.6500 oh        1 INT     -0.648800
      4 C3          1.5240    0.5170    1.1470 c3        1 INT     -0.055100
      5 C4          2.7800   -0.0810    1.6710 ca        1 INT     -0.181300
      6 C5          3.8180    0.7500    2.1200 ca        1 INT     -0.140000
      7 C6          4.9630    0.1950    2.6870 ca        1 INT     -0.107500
      8 C7          5.0820   -1.1920    2.8110 ca        1 INT     -0.087000
      9 C8          4.0510   -2.0210    2.3660 ca        1 INT     -0.107500
     10 C9          2.9020   -1.4690    1.7980 ca        1 INT     -0.140000
     11 N1          2.8170    1.3510   -0.8280 n4        1 INT     -0.661800
     12 C10         3.5300    2.3480   -3.0990 c3        1 INT      0.049500
     13 C11         3.1590    1.1210   -2.2460 c         1 INT      0.524100
     14 O2          3.1460   -0.0200   -2.6970 o         1 INT     -0.415100
     15 C12         2.2530    3.1730   -3.4220 c3        1 INT     -0.092700
     16 CG1         2.6320    4.5430   -3.9420 c3        1 INT     -0.132600
     17 CG2         1.3370    2.4490   -4.3840 c3        1 INT     -0.132600
     18 N2          4.2210    1.9250   -4.3740 n4        1 INT     -0.669800
     19 C19         5.7130    1.7800   -4.2920 c         1 INT      0.530100
     20 O4          6.2770    2.0950   -3.2580 o         1 INT     -0.378100
     21 C18         6.4230    1.2300   -5.5450 c3        1 INT      0.094500
     22 C20         7.0630   -0.1060   -5.1740 c3        1 INT     -0.152100
     23 N4          7.4340    2.2240   -6.0360 n4        1 INT     -0.680800
     24 C31         6.7690    3.5250   -6.5110 c         1 INT      0.666100
     25 O8          5.6280    3.7500   -6.0960 o         1 INT     -0.576000
     26 O9          7.5410    4.1960   -7.3050 os        1 INT     -0.398900
     27 CA          7.0370    5.5730   -7.8860 c3        1 INT      0.276700
     28 C           8.0970    5.9290   -8.8120 ca        1 INT     -0.201300
     29 C13         8.0090    5.5590  -10.1700 ca        1 INT     -0.057000
     30 C14         8.9850    5.9710  -11.0690 ca        1 INT     -0.133500
     31 C15        10.0650    6.7440  -10.6270 ca        1 INT     -0.022000
     32 C16        10.1680    7.1030   -9.2790 ca        1 INT     -0.133500
     33 C17         9.1960    6.6950   -8.3730 ca        1 INT     -0.057000
     34 H1          1.5360   -0.3740   -0.8550 hx        1 INT      0.131700
     35 H21        -0.6090    1.0440   -0.3140 h1        1 INT      0.094700
     36 H22         0.1430    1.3000   -1.9670 h1        1 INT      0.094700
     37 HO1        -0.1450    3.1460   -0.0050 ho        1 INT      0.472000
     38 H31         0.6460   -0.1420    1.4050 hc        1 INT      0.106200
     39 H32         1.3370    1.5220    1.6150 hc        1 INT      0.106200
     40 H5          3.6970    1.8440    2.1060 ha        1 INT      0.138500
     41 H6          5.7610    0.8500    3.0710 ha        1 INT      0.167500
     42 H7          5.9770   -1.6290    3.2840 ha        1 INT      0.173000
     43 H8          4.1320   -3.1150    2.4870 ha        1 INT      0.167500
     44 H9          2.0790   -2.1300    1.4820 ha        1 INT      0.138500
     45 HN1         2.6990    2.3590   -0.6360 hn        1 INT      0.495800
     46 H10         4.2540    3.0080   -2.5230 hx        1 INT      0.157700
     47 H12         1.7050    3.3170   -2.4410 hc        1 INT      0.129700
     48 HG11        3.1280    4.4980   -4.9420 hc        1 INT      0.075867
     49 HG12        1.7000    5.1570   -4.0590 hc        1 INT      0.075867
     50 HG13        3.3030    5.0770   -3.2260 hc        1 INT      0.075867
     51 HG21        0.3200    2.9240   -4.3520 hc        1 INT      0.075867
     52 HG22        1.6950    2.5220   -5.4400 hc        1 INT      0.075867
     53 HG23        1.2220    1.3730   -4.1070 hc        1 INT      0.075867
     54 HN2         3.8030    1.0390   -4.7050 hn        1 INT      0.504300
     55 H18         5.6880    1.0770   -6.3960 hx        1 INT      0.142700
     56 H201        7.6040   -0.5440   -6.0540 hc        1 INT      0.114700
     57 H202        6.2620   -0.8310   -4.8790 hc        1 INT      0.114700
     58 H203        7.7830   -0.0000   -4.3240 hc        1 INT      0.114700
     59 HN4         8.1140    2.4500   -5.2950 hn        1 INT      0.496300
     60 HA1         6.0520    5.3200   -8.3460 h1        1 INT      0.092200
     61 HA2         6.9530    6.2110   -6.9750 h1        1 INT      0.092200
     62 H13         7.1540    4.9620  -10.5240 ha        1 INT      0.141500
     63 H14         8.9060    5.6980  -12.1350 ha        1 INT      0.175000
     64 H15        10.8360    7.0750  -11.3460 ha        1 INT      0.179000
     65 H16        11.0180    7.7170   -8.9380 ha        1 INT      0.175000
     66 H17         9.2740    6.9890   -7.3140 ha        1 INT      0.141500
     67 H121        3.5820    0.9760   -0.2200 hn        1 INT      0.495800
     68 H221        4.0250    2.6660   -5.0850 hn        1 INT      0.504300
     69 H42         7.9600    1.8090   -6.8250 hn        1 INT      0.496300
@<TRIPOS>BOND
     1    1    2 1   
     2    1    4 1   
     3    1   11 1   
     4    1   34 1   
     5    2    3 1   
     6    2   35 1   
     7    2   36 1   
     8    3   37 1   
     9    4    5 1   
    10    4   38 1   
    11    4   39 1   
    12    5    6 ar  
    13    5   10 ar  
    14    6    7 ar  
    15    6   40 1   
    16    7    8 ar  
    17    7   41 1   
    18    8    9 ar  
    19    8   42 1   
    20    9   10 ar  
    21    9   43 1   
    22   10   44 1   
    23   11   13 1   
    24   11   45 1   
    25   11   67 1   
    26   12   13 1   
    27   12   15 1   
    28   12   18 1   
    29   12   46 1   
    30   13   14 2   
    31   15   16 1   
    32   15   17 1   
    33   15   47 1   
    34   16   48 1   
    35   16   49 1   
    36   16   50 1   
    37   17   51 1   
    38   17   52 1   
    39   17   53 1   
    40   18   19 1   
    41   18   54 1   
    42   18   68 1   
    43   19   20 2   
    44   19   21 1   
    45   21   22 1   
    46   21   23 1   
    47   21   55 1   
    48   22   56 1   
    49   22   57 1   
    50   22   58 1   
    51   23   24 1   
    52   23   59 1   
    53   23   69 1   
    54   24   25 2   
    55   24   26 1   
    56   26   27 1   
    57   27   28 1   
    58   27   60 1   
    59   27   61 1   
    60   28   29 ar  
    61   28   33 ar  
    62   29   30 ar  
    63   29   62 1   
    64   30   31 ar  
    65   30   63 1   
    66   31   32 ar  
    67   31   64 1   
    68   32   33 ar  
    69   32   65 1   
    70   33   66 1   
@<TRIPOS>SUBSTRUCTURE
     1 INT         1 TEMP              0 ****  ****    0 ROOT
