@<TRIPOS>MOLECULE
INT
   69    70     1     0     0
SMALL
bcc


@<TRIPOS>ATOM
      1 C1          1.5160    0.6240   -0.4140 c3        1 INT      0.107500
      2 C2          0.2550    1.3290   -0.9580 c3        1 INT      0.105400
      3 O1          0.3930    2.7250   -0.7930 oh        1 INT     -0.648800
      4 C3          1.4660    0.5410    1.1180 c3        1 INT     -0.055100
      5 C4          2.7300    0.0240    1.7030 ca        1 INT     -0.181300
      6 C5          3.7120    0.9200    2.1540 ca        1 INT     -0.140000
      7 C6          4.8630    0.4410    2.7760 ca        1 INT     -0.107500
      8 C7          5.0440   -0.9330    2.9540 ca        1 INT     -0.087000
      9 C8          4.0690   -1.8270    2.5080 ca        1 INT     -0.107500
     10 C9          2.9150   -1.3520    1.8850 ca        1 INT     -0.140000
     11 N1          2.7810    1.3660   -0.8440 ny        1 INT     -0.661800
     12 C10         3.5200    2.3140   -3.1280 c3        1 INT      0.049500
     13 C11         3.1810    1.1020   -2.2420 c         1 INT      0.524100
     14 O2          3.2380   -0.0540   -2.6490 o         1 INT     -0.415100
     15 C12         2.2160    3.0630   -3.5220 c3        1 INT     -0.092700
     16 CG1         2.5460    4.4300   -4.0820 c3        1 INT     -0.133100
     17 CG2         1.3680    2.2600   -4.4830 c3        1 INT     -0.133100
     18 N2          4.2720    1.8790   -4.3650 ny        1 INT     -0.669800
     19 C19         5.7660    1.8120   -4.2320 c         1 INT      0.530100
     20 O4          6.2790    2.1930   -3.1940 o         1 INT     -0.378100
     21 C18         6.5420    1.2520   -5.4400 c3        1 INT      0.094500
     22 C20         7.2340   -0.0360   -4.9980 c3        1 INT     -0.152100
     23 N4          7.5190    2.2760   -5.9380 ny        1 INT     -0.680800
     24 C31         6.8070    3.5230   -6.4840 c         1 INT      0.666100
     25 O8          5.6440    3.7070   -6.1130 o         1 INT     -0.576000
     26 O9          7.5720    4.2020   -7.2800 os        1 INT     -0.398900
     27 CA          7.0210    5.5290   -7.9280 c3        1 INT      0.276700
     28 C           8.0850    5.8940   -8.8460 ca        1 INT     -0.201300
     29 C13         8.0430    5.4680  -10.1890 ca        1 INT     -0.057000
     30 C14         9.0200    5.8860  -11.0840 ca        1 INT     -0.133500
     31 C15        10.0560    6.7220  -10.6520 ca        1 INT     -0.022000
     32 C16        10.1130    7.1380   -9.3170 ca        1 INT     -0.133500
     33 C17         9.1390    6.7250   -8.4150 ca        1 INT     -0.057000
     34 H1          1.5850   -0.4190   -0.8480 hx        1 INT      0.131700
     35 H21        -0.6410    0.9110   -0.4260 h1        1 INT      0.094700
     36 H22         0.1510    1.1430   -2.0630 h1        1 INT      0.094700
     37 HO1        -0.2880    3.0430   -0.1810 ho        1 INT      0.472000
     38 H31         0.6120   -0.1500    1.3740 hc        1 INT      0.106200
     39 H32         1.2160    1.5520    1.5430 hc        1 INT      0.106200
     40 H5          3.5400    2.0050    2.0960 ha        1 INT      0.138500
     41 H6          5.6170    1.1480    3.1610 ha        1 INT      0.167500
     42 H7          5.9430   -1.3090    3.4720 ha        1 INT      0.173000
     43 H8          4.1970   -2.9110    2.6720 ha        1 INT      0.167500
     44 H9          2.1350   -2.0620    1.5680 ha        1 INT      0.138500
     45 HN1         2.6090    2.3730   -0.6940 hn        1 INT      0.495800
     46 H10         4.1920    3.0290   -2.5560 hx        1 INT      0.157700
     47 H12         1.6300    3.2160   -2.5640 hc        1 INT      0.129700
     48 HG11        1.5890    4.9930   -4.2500 hc        1 INT      0.075867
     49 HG12        3.0750    4.3730   -5.0640 hc        1 INT      0.075867
     50 HG13        3.1670    5.0220   -3.3660 hc        1 INT      0.075867
     51 HG21        1.7560    2.3130   -5.5300 hc        1 INT      0.075867
     52 HG22        0.3290    2.6850   -4.5000 hc        1 INT      0.075867
     53 HG23        1.2960    1.1900   -4.1690 hc        1 INT      0.075867
     54 HN2         3.9080    0.9630   -4.6750 hn        1 INT      0.504300
     55 H18         5.8430    1.0300   -6.3060 hx        1 INT      0.142700
     56 H201        7.9200    0.1370   -4.1300 hc        1 INT      0.114700
     57 H202        6.4590   -0.7880   -4.7000 hc        1 INT      0.114700
     58 H203        7.8230   -0.4790   -5.8430 hc        1 INT      0.114700
     59 HN4         8.0900    1.8590   -6.6930 hn        1 INT      0.496300
     60 HA1         6.0590    5.2150   -8.3970 h1        1 INT      0.092200
     61 HA2         6.8890    6.2000   -7.0460 h1        1 INT      0.092200
     62 H13         7.2230    4.8200  -10.5360 ha        1 INT      0.141500
     63 H14         8.9770    5.5680  -12.1390 ha        1 INT      0.175000
     64 H15        10.8280    7.0580  -11.3670 ha        1 INT      0.179000
     65 H16        10.9290    7.8020   -8.9840 ha        1 INT      0.175000
     66 H17         9.1810    7.0630   -7.3680 ha        1 INT      0.141500
     67 H121        3.5430    1.0520   -0.2000 hn        1 INT      0.495800
     68 H221        4.0640    2.5840   -5.1090 hn        1 INT      0.504300
     69 H42         8.1620    2.5630   -5.1860 hn        1 INT      0.496300
@<TRIPOS>BOND
     1    1    2 1   
     2    1    4 1   
     3    1   11 1   
     4    1   34 1   
     5    2    3 1   
     6    2   35 1   
     7    2   36 1   
     8    3   37 1   
     9    4    5 1   
    10    4   38 1   
    11    4   39 1   
    12    5    6 ar  
    13    5   10 ar  
    14    6    7 ar  
    15    6   40 1   
    16    7    8 ar  
    17    7   41 1   
    18    8    9 ar  
    19    8   42 1   
    20    9   10 ar  
    21    9   43 1   
    22   10   44 1   
    23   11   13 1   
    24   11   45 1   
    25   11   67 1   
    26   12   13 1   
    27   12   15 1   
    28   12   18 1   
    29   12   46 1   
    30   13   14 2   
    31   15   16 1   
    32   15   17 1   
    33   15   47 1   
    34   16   48 1   
    35   16   49 1   
    36   16   50 1   
    37   17   51 1   
    38   17   52 1   
    39   17   53 1   
    40   18   19 1   
    41   18   54 1   
    42   18   68 1   
    43   19   20 2   
    44   19   21 1   
    45   21   22 1   
    46   21   23 1   
    47   21   55 1   
    48   22   56 1   
    49   22   57 1   
    50   22   58 1   
    51   23   24 1   
    52   23   59 1   
    53   23   69 1   
    54   24   25 2   
    55   24   26 1   
    56   26   27 1   
    57   27   28 1   
    58   27   60 1   
    59   27   61 1   
    60   28   29 ar  
    61   28   33 ar  
    62   29   30 ar  
    63   29   62 1   
    64   30   31 ar  
    65   30   63 1   
    66   31   32 ar  
    67   31   64 1   
    68   32   33 ar  
    69   32   65 1   
    70   33   66 1   
@<TRIPOS>SUBSTRUCTURE
     1 INT         1 TEMP              0 ****  ****    0 ROOT
