@<TRIPOS>MOLECULE
INU
   63    58     1     0     0
SMALL
bcc


@<TRIPOS>ATOM
      1 CA          1.6070   -0.9050    0.3810 c1        1 INU     -0.225000
      2 CA2         2.9610   -0.5680    0.2810 c1        1 INU      0.360000
      3 OA2         3.4040   -0.1290   -0.7640 o         1 INU     -0.260000
      4 OA3         3.7930   -0.7190    1.3730 o         1 INU     -0.260000
      5 CA4         3.2860   -1.2070    2.5730 c1        1 INU     -0.050000
      6 CA5         1.9410   -1.5420    2.6740 c1        1 INU     -0.050000
      7 CA6         1.1010   -1.3890    1.5720 c1        1 INU      0.171000
      8 OA6        -0.2510   -1.2070    1.9450 oh        1 INU     -0.247000
      9 CB1         0.3770    0.1610   -1.4940 c1        1 INU     -0.039000
     10 CB2         1.3690    1.0670   -1.8580 c1        1 INU     -0.140000
     11 CB3         1.0310    2.2320   -2.5440 c1        1 INU     -0.127000
     12 CB4        -0.3000    2.4910   -2.8660 c1        1 INU     -0.127000
     13 CB5        -1.2930    1.5850   -2.5030 c1        1 INU      0.078000
     14 CB6        -0.9560    0.4200   -1.8160 c1        1 INU     -0.164000
     15 CG1         0.7580   -1.1630   -0.8540 c3        1 INU      0.028000
     16 CG2         1.5490   -2.0000   -1.8490 cx        1 INU     -0.164000
     17 CG3         1.3540   -3.5090   -1.7470 cx        1 INU     -0.207500
     18 CG4         0.7240   -2.7350   -2.8990 cx        1 INU     -0.207500
     19 CD1         3.9120   -1.0110    3.9680 c3        1 INU     -0.120000
     20 CD2         4.3930   -2.3410    4.5380 c3        1 INU     -0.152000
     21 CD3         3.5480   -2.7540    5.7400 c3        1 INU     -0.156500
     22 CD4         2.5440   -1.6630    6.0990 c3        1 INU     -0.156500
     23 CD5         1.3640   -1.6700    5.1310 c3        1 INU     -0.152000
     24 CD6         1.6930   -2.4750    3.8780 c3        1 INU     -0.120000
     25 N          -2.6560    1.8070   -2.9180 n3        1 INU     -0.825000
     26 S          -3.5170    3.0800   -2.2930 s4        1 INU      2.071800
     27 O1         -4.0510    2.7620   -0.9940 o         1 INU     -0.539400
     28 O2         -2.6550    4.1890   -1.9770 o         1 INU     -0.539400
     29 CE1        -4.8130    3.5670   -3.4260 c1        1 INU     -0.834000
     30 CE2        -5.0750    4.9160   -3.6430 c2        1 INU     -0.008000
     31 CE3        -6.1410    5.2960   -4.4510 c1        1 INU     -0.156000
     32 CE4        -6.9450    4.3290   -5.0420 c1        1 INU     -0.127000
     33 CE5        -6.6840    2.9800   -4.8250 c1        1 INU     -0.127000
     34 CE6        -5.6180    2.6000   -4.0170 c1        1 INU     -0.015000
     35 HO6        -0.6440   -2.0010    2.0340 ho        1 INU      0.234000
     36 HB2         2.3030    0.8860   -1.6320 ha        1 INU      0.161000
     37 HB3         1.7310    2.8710   -2.8010 ha        1 INU      0.144750
     38 HB4        -0.5380    3.3110   -3.3500 ha        1 INU      0.144750
     39 HB6        -1.6560   -0.2190   -1.5600 ha        1 INU      0.133000
     40 HG1        -0.0570   -1.6470   -0.5940 hc        1 INU      0.112000
     41 HG2         2.4410   -1.7030   -2.1380 hc        1 INU      0.146000
     42 HG31        0.7350   -3.8120   -1.0480 hc        1 INU      0.109250
     43 HG32        2.1370   -4.0570   -1.9790 hc        1 INU      0.109250
     44 HG41        1.1540   -2.8500   -3.7770 hc        1 INU      0.109250
     45 HG42       -0.2490   -2.6060   -2.8450 hc        1 INU      0.109250
     46 HD11        3.2440   -0.6260    4.5690 hc        1 INU      0.104750
     47 HD12        4.6770   -0.3950    3.8950 hc        1 INU      0.104750
     48 HD21        5.3320   -2.2520    4.8180 hc        1 INU      0.083500
     49 HD22        4.3270   -3.0340    3.8430 hc        1 INU      0.083500
     50 HD31        3.0630   -3.5810    5.5250 hc        1 INU      0.084500
     51 HD32        4.1390   -2.9160    6.5110 hc        1 INU      0.084500
     52 HD41        2.9900   -0.7880    6.0590 hc        1 INU      0.084500
     53 HD42        2.2140   -1.8160    7.0150 hc        1 INU      0.084500
     54 HD51        0.5820   -2.0700    5.5770 hc        1 INU      0.083500
     55 HD52        1.1510   -0.7450    4.8740 hc        1 INU      0.083500
     56 HD61        2.4960   -3.0100    4.0410 hc        1 INU      0.104750
     57 HD62        0.9400   -3.0760    3.6730 hc        1 INU      0.104750
     58 HN         -3.0450    1.2480   -3.5340 hn        1 INU      0.248000
     59 HE2        -4.5080    5.5990   -3.2260 ha        1 INU      0.153000
     60 HE3        -6.3260    6.2480   -4.6040 ha        1 INU      0.143000
     61 HE4        -7.6980    4.5970   -5.6120 ha        1 INU      0.144750
     62 HE5        -7.2520    2.2970   -5.2420 ha        1 INU      0.144750
     63 HE6        -5.4340    1.6490   -3.8650 ha        1 INU      0.154000
@<TRIPOS>BOND
     1    1    7 1   
     2    1   15 1   
     3    2    3 1   
     4    2    4 1   
     5    5    6 1   
     6    5   19 1   
     7    6   24 1   
     8    7    8 1   
     9    8   35 1   
    10    9   10 1   
    11    9   15 1   
    12   10   36 1   
    13   11   12 1   
    14   11   37 1   
    15   12   38 1   
    16   13   14 1   
    17   13   25 1   
    18   14   39 1   
    19   15   16 1   
    20   15   40 1   
    21   16   17 1   
    22   16   18 1   
    23   16   41 1   
    24   17   18 1   
    25   17   42 1   
    26   17   43 1   
    27   18   44 1   
    28   18   45 1   
    29   19   20 1   
    30   19   46 1   
    31   19   47 1   
    32   20   21 1   
    33   20   48 1   
    34   20   49 1   
    35   21   22 1   
    36   21   50 1   
    37   21   51 1   
    38   22   23 1   
    39   22   52 1   
    40   22   53 1   
    41   23   24 1   
    42   23   54 1   
    43   23   55 1   
    44   24   56 1   
    45   24   57 1   
    46   25   26 1   
    47   25   58 1   
    48   26   27 1   
    49   26   28 1   
    50   29   30 1   
    51   29   34 1   
    52   30   31 1   
    53   30   59 1   
    54   31   60 1   
    55   32   33 1   
    56   32   61 1   
    57   33   62 1   
    58   34   63 1   
@<TRIPOS>SUBSTRUCTURE
     1 INU         1 TEMP              0 ****  ****    0 ROOT
