@<TRIPOS>MOLECULE
INU
   64    68     1     0     0
SMALL
bcc


@<TRIPOS>ATOM
      1 CA         -1.3230   -0.8880    0.8320 cc        1 INU     -0.294400
      2 CA2        -1.4940    0.2850    1.6620 c         1 INU      0.745800
      3 OA2        -1.9870    1.3850    1.3750 o         1 INU     -0.651500
      4 OA3        -1.0910    0.2670    2.9940 os        1 INU     -0.316200
      5 CA4        -0.6000   -0.8930    3.5390 cc        1 INU      0.182900
      6 CA5        -0.5180   -2.0610    2.8300 cd        1 INU     -0.248200
      7 CA6        -0.8810   -2.0480    1.4290 cd        1 INU      0.262100
      8 OA6        -0.8150   -3.1840    0.6740 oh        1 INU     -0.486100
      9 CB1        -3.1090   -1.0350   -0.8470 ca        1 INU     -0.033300
     10 CB2        -3.5530   -2.3560   -0.9790 ca        1 INU     -0.072000
     11 CB3        -4.9050   -2.6260   -1.1860 ca        1 INU     -0.104000
     12 CB4        -5.8370   -1.5920   -1.2490 ca        1 INU     -0.104000
     13 CB5        -5.3990   -0.2660   -1.0890 ca        1 INU     -0.042400
     14 CB6        -4.0320    0.0130   -0.9080 ca        1 INU     -0.119000
     15 CG1        -1.6610   -0.6990   -0.6140 c3        1 INU      0.082800
     16 CG2        -0.7540   -1.4450   -1.5530 cx        1 INU     -0.137700
     17 CG3        -0.5170   -0.8950   -2.9370 cx        1 INU     -0.121900
     18 CG4         0.5800   -0.8430   -1.9190 cx        1 INU     -0.121900
     19 CD1        -0.2220   -0.6820    4.9680 c3        1 INU     -0.050200
     20 CD2         1.2770   -0.5540    5.1720 c3        1 INU     -0.074400
     21 CD3         2.0390   -1.8630    5.1230 c3        1 INU     -0.082400
     22 CD4         2.2900   -2.3740    3.7180 c3        1 INU     -0.079400
     23 CD5         1.4320   -3.5600    3.3320 c3        1 INU     -0.079400
     24 CD6        -0.0580   -3.3160    3.4830 c3        1 INU     -0.034200
     25 N          -6.3540    0.8290   -1.1030 n4        1 INU     -0.560300
     26 S          -6.9250    1.4000    0.6640 sy        1 INU      1.484200
     27 O1         -8.2650    1.5980    0.3830 o         1 INU     -0.569300
     28 O2         -6.5360    0.3810    1.5000 o         1 INU     -0.569300
     29 CE1        -6.0480    2.7370    0.7300 ca        1 INU     -0.550500
     30 CE2        -6.6050    3.9920    0.3890 ca        1 INU      0.010000
     31 CE3        -5.8680    5.1590    0.5110 ca        1 INU     -0.145500
     32 CE4        -4.5470    5.1100    0.9750 ca        1 INU     -0.004000
     33 CE5        -3.9740    3.8840    1.3160 ca        1 INU     -0.145500
     34 CE6        -4.7170    2.7160    1.2010 ca        1 INU      0.010000
     35 HO6        -0.2920   -3.8540    1.1460 ho        1 INU      0.448000
     36 HB2        -2.8260   -3.1840   -0.9070 ha        1 INU      0.171000
     37 HB3        -5.2470   -3.6680   -1.3000 ha        1 INU      0.163000
     38 HB4        -6.9010   -1.8290   -1.4140 ha        1 INU      0.151000
     39 HB6        -3.6710    1.0490   -0.7880 ha        1 INU      0.155000
     40 HG1        -1.5260    0.4080   -0.8340 hc        1 INU      0.076700
     41 HG2        -0.8080   -2.5460   -1.4380 hc        1 INU      0.097700
     42 HG31       -0.4390   -1.6030   -3.7810 hc        1 INU      0.076450
     43 HG32       -1.0130    0.0460   -3.2360 hc        1 INU      0.076450
     44 HG41        1.4500   -1.5150   -2.0280 hc        1 INU      0.076450
     45 HG42        0.8660    0.1330   -1.4880 hc        1 INU      0.076450
     46 HD11       -0.7140    0.2640    5.3300 hc        1 INU      0.078700
     47 HD12       -0.6280   -1.5300    5.5820 hc        1 INU      0.078700
     48 HD21        1.6980    0.1620    4.4170 hc        1 INU      0.058200
     49 HD22        1.4340   -0.0940    6.1860 hc        1 INU      0.058200
     50 HD31        3.0320   -1.6940    5.6230 hc        1 INU      0.051200
     51 HD32        1.5020   -2.6380    5.7300 hc        1 INU      0.051200
     52 HD41        2.1320   -1.5470    2.9770 hc        1 INU      0.048700
     53 HD42        3.3660   -2.6870    3.6300 hc        1 INU      0.048700
     54 HD51        1.6600   -3.8320    2.2660 hc        1 INU      0.046200
     55 HD52        1.7080   -4.4440    3.9670 hc        1 INU      0.046200
     56 HD61       -0.6250   -4.1940    3.0680 hc        1 INU      0.057200
     57 HD62       -0.3100   -3.2810    4.5780 hc        1 INU      0.057200
     58 HN         -5.9340    1.6140   -1.6000 hn        1 INU      0.446300
     59 HE2        -7.6520    4.0380    0.0370 ha        1 INU      0.175500
     60 HE3        -6.3230    6.1280    0.2480 ha        1 INU      0.180000
     61 HE4        -3.9620    6.0420    1.0710 ha        1 INU      0.167000
     62 HE5        -2.9300    3.8210    1.6740 ha        1 INU      0.180000
     63 HE6        -4.2460    1.7530    1.4890 ha        1 INU      0.175500
     64 HN3        -7.1790    0.5420   -1.6310 hn        1 INU      0.446300
@<TRIPOS>BOND
     1    1    2 1   
     2    1    7 2   
     3    1   15 1   
     4    2    3 2   
     5    2    4 1   
     6    4    5 1   
     7    5    6 2   
     8    5   19 1   
     9    6    7 1   
    10    6   24 1   
    11    7    8 1   
    12    8   35 1   
    13    9   10 ar  
    14    9   14 ar  
    15    9   15 1   
    16   10   11 ar  
    17   10   36 1   
    18   11   12 ar  
    19   11   37 1   
    20   12   13 ar  
    21   12   38 1   
    22   13   14 ar  
    23   13   25 1   
    24   14   39 1   
    25   15   16 1   
    26   15   40 1   
    27   16   17 1   
    28   16   18 1   
    29   16   41 1   
    30   17   18 1   
    31   17   42 1   
    32   17   43 1   
    33   18   44 1   
    34   18   45 1   
    35   19   20 1   
    36   19   46 1   
    37   19   47 1   
    38   20   21 1   
    39   20   48 1   
    40   20   49 1   
    41   21   22 1   
    42   21   50 1   
    43   21   51 1   
    44   22   23 1   
    45   22   52 1   
    46   22   53 1   
    47   23   24 1   
    48   23   54 1   
    49   23   55 1   
    50   24   56 1   
    51   24   57 1   
    52   25   26 1   
    53   25   58 1   
    54   25   64 1   
    55   26   27 2   
    56   26   28 2   
    57   26   29 1   
    58   29   30 ar  
    59   29   34 ar  
    60   30   31 ar  
    61   30   59 1   
    62   31   32 ar  
    63   31   60 1   
    64   32   33 ar  
    65   32   61 1   
    66   33   34 ar  
    67   33   62 1   
    68   34   63 1   
@<TRIPOS>SUBSTRUCTURE
     1 INU         1 TEMP              0 ****  ****    0 ROOT
