@<TRIPOS>MOLECULE
INU
   63    67     1     0     0
SMALL
bcc


@<TRIPOS>ATOM
      1 CA         -0.1530   -0.3000   -0.0180 cc        1 INU     -0.253400
      2 CA2         0.4050   -1.6350    0.0430 c         1 INU      0.742800
      3 OA2         0.4300   -2.5510   -0.7800 o         1 INU     -0.583500
      4 OA3         1.0450   -2.0570    1.2200 os        1 INU     -0.331200
      5 CA4         1.1750   -1.2030    2.2780 cc        1 INU      0.174900
      6 CA5         0.7010    0.0800    2.2560 cd        1 INU     -0.253200
      7 CA6        -0.0080    0.5220    1.0750 cd        1 INU      0.222100
      8 OA6        -0.5510    1.7780    1.0000 oh        1 INU     -0.486100
      9 CB1        -2.2530   -0.4330   -1.3260 ca        1 INU     -0.047300
     10 CB2        -2.4620   -1.7690   -1.6820 ca        1 INU     -0.138000
     11 CB3        -3.7590   -2.2690   -1.7630 ca        1 INU     -0.104000
     12 CB4        -4.8600   -1.4620   -1.4940 ca        1 INU     -0.183000
     13 CB5        -4.6650   -0.1160   -1.1150 ca        1 INU      0.158600
     14 CB6        -3.3480    0.3860   -1.0380 ca        1 INU     -0.163000
     15 CG1        -0.8700    0.1550   -1.2540 c3        1 INU      0.079800
     16 CG2        -0.0790   -0.1420   -2.5010 cx        1 INU     -0.126700
     17 CG3        -0.2940    0.7050   -3.7280 cx        1 INU     -0.128400
     18 CG4         0.9820    0.8300   -2.9510 cx        1 INU     -0.128400
     19 CD1         1.9050   -1.8630    3.4030 c3        1 INU     -0.048200
     20 CD2         0.9860   -2.3250    4.5180 c3        1 INU     -0.073400
     21 CD3         0.4940   -1.2220    5.4330 c3        1 INU     -0.079400
     22 CD4        -0.6400   -0.4020    4.8480 c3        1 INU     -0.078400
     23 CD5        -0.2290    0.9860    4.4030 c3        1 INU     -0.076400
     24 CD6         0.9150    0.9960    3.4060 c3        1 INU     -0.027200
     25 N          -5.7510    0.7310   -0.8290 nu        1 INU     -0.776500
     26 S          -7.2280    0.3350   -0.2700 sy        1 INU      1.516200
     27 O1         -8.0020    1.5170   -0.2990 o         1 INU     -0.650800
     28 O2         -7.7550   -0.7860   -0.9370 o         1 INU     -0.650800
     29 CE1        -6.9430   -0.0850    1.3380 ca        1 INU     -0.385500
     30 CE2        -7.0890    0.8640    2.3580 ca        1 INU     -0.012000
     31 CE3        -6.8880    0.5150    3.6910 ca        1 INU     -0.158500
     32 CE4        -6.5360   -0.7940    4.0220 ca        1 INU     -0.066000
     33 CE5        -6.3910   -1.7520    3.0180 ca        1 INU     -0.158500
     34 CE6        -6.5940   -1.3960    1.6870 ca        1 INU     -0.012000
     35 HO6        -0.5180    2.1880    1.8770 ho        1 INU      0.434000
     36 HB2        -1.6000   -2.4240   -1.8920 ha        1 INU      0.161000
     37 HB3        -3.9200   -3.3190   -2.0540 ha        1 INU      0.137000
     38 HB4        -5.8760   -1.8820   -1.5930 ha        1 INU      0.164000
     39 HB6        -3.1720    1.4360   -0.7530 ha        1 INU      0.134000
     40 HG1        -0.9770    1.2820   -1.1810 hc        1 INU      0.072700
     41 HG2         0.1150   -1.2260   -2.6400 hc        1 INU      0.106700
     42 HG31       -1.0270    1.5300   -3.6910 hc        1 INU      0.070450
     43 HG32       -0.2790    0.2140   -4.7170 hc        1 INU      0.070450
     44 HG41        1.1600    1.7450   -2.3590 hc        1 INU      0.070450
     45 HG42        1.9170    0.4290   -3.3810 hc        1 INU      0.070450
     46 HD11        2.4480   -2.7600    2.9930 hc        1 INU      0.073700
     47 HD12        2.6790   -1.1550    3.8030 hc        1 INU      0.073700
     48 HD21        0.1120   -2.8730    4.0750 hc        1 INU      0.053700
     49 HD22        1.5600   -3.0660    5.1380 hc        1 INU      0.053700
     50 HD31        0.1320   -1.7050    6.3820 hc        1 INU      0.043200
     51 HD32        1.3500   -0.5550    5.7170 hc        1 INU      0.043200
     52 HD41       -1.4480   -0.2910    5.6210 hc        1 INU      0.046700
     53 HD42       -1.0950   -0.9470    3.9780 hc        1 INU      0.046700
     54 HD51       -1.1230    1.4910    3.9490 hc        1 INU      0.040200
     55 HD52        0.0780    1.5900    5.2980 hc        1 INU      0.040200
     56 HD61        1.0760    2.0460    3.0360 hc        1 INU      0.051200
     57 HD62        1.8640    0.7130    3.9390 hc        1 INU      0.051200
     58 HN         -5.5260    1.6950   -0.9480 hn        1 INU      0.454800
     59 HE2        -7.3850    1.8950    2.0960 ha        1 INU      0.154000
     60 HE3        -7.0110    1.2700    4.4810 ha        1 INU      0.141000
     61 HE4        -6.3780   -1.0720    5.0750 ha        1 INU      0.135000
     62 HE5        -6.1200   -2.7860    3.2750 ha        1 INU      0.141000
     63 HE6        -6.4910   -2.1550    0.8910 ha        1 INU      0.154000
@<TRIPOS>BOND
     1    1    2 1   
     2    1    7 2   
     3    1   15 1   
     4    2    3 2   
     5    2    4 1   
     6    4    5 1   
     7    5    6 2   
     8    5   19 1   
     9    6    7 1   
    10    6   24 1   
    11    7    8 1   
    12    8   35 1   
    13    9   10 ar  
    14    9   14 ar  
    15    9   15 1   
    16   10   11 ar  
    17   10   36 1   
    18   11   12 ar  
    19   11   37 1   
    20   12   13 ar  
    21   12   38 1   
    22   13   14 ar  
    23   13   25 1   
    24   14   39 1   
    25   15   16 1   
    26   15   40 1   
    27   16   17 1   
    28   16   18 1   
    29   16   41 1   
    30   17   18 1   
    31   17   42 1   
    32   17   43 1   
    33   18   44 1   
    34   18   45 1   
    35   19   20 1   
    36   19   46 1   
    37   19   47 1   
    38   20   21 1   
    39   20   48 1   
    40   20   49 1   
    41   21   22 1   
    42   21   50 1   
    43   21   51 1   
    44   22   23 1   
    45   22   52 1   
    46   22   53 1   
    47   23   24 1   
    48   23   54 1   
    49   23   55 1   
    50   24   56 1   
    51   24   57 1   
    52   25   26 1   
    53   25   58 1   
    54   26   27 2   
    55   26   28 2   
    56   26   29 1   
    57   29   30 ar  
    58   29   34 ar  
    59   30   31 ar  
    60   30   59 1   
    61   31   32 ar  
    62   31   60 1   
    63   32   33 ar  
    64   32   61 1   
    65   33   34 ar  
    66   33   62 1   
    67   34   63 1   
@<TRIPOS>SUBSTRUCTURE
     1 INU         1 TEMP              0 ****  ****    0 ROOT
