@<TRIPOS>MOLECULE
INU
   63    67     1     0     0
SMALL
bcc


@<TRIPOS>ATOM
      1 CA         -1.1540   -0.1900    2.2830 cc        1 INU     -0.253400
      2 CA2        -1.1320    1.0130    3.0880 c         1 INU      0.742800
      3 OA2        -1.9210    1.9550    3.1750 o         1 INU     -0.583500
      4 OA3        -0.0490    1.2410    3.9520 os        1 INU     -0.331200
      5 CA4         0.9530    0.3170    4.0610 cc        1 INU      0.174900
      6 CA5         0.9590   -0.8530    3.3520 cd        1 INU     -0.253200
      7 CA6        -0.1200   -1.0870    2.4170 cd        1 INU      0.222100
      8 OA6        -0.1550   -2.2150    1.6390 oh        1 INU     -0.486100
      9 CB1        -2.1380    0.4040    0.0880 ca        1 INU     -0.047300
     10 CB2        -2.4180    1.7740    0.0910 ca        1 INU     -0.138000
     11 CB3        -2.2940    2.5090   -1.0850 ca        1 INU     -0.104000
     12 CB4        -1.8910    1.9050   -2.2720 ca        1 INU     -0.183000
     13 CB5        -1.5870    0.5260   -2.2880 ca        1 INU      0.158600
     14 CB6        -1.7180   -0.2140   -1.0920 ca        1 INU     -0.163000
     15 CG1        -2.2860   -0.4330    1.3300 c3        1 INU      0.079800
     16 CG2        -3.6250   -0.2150    1.9850 cx        1 INU     -0.126700
     17 CG3        -4.8340   -0.9340    1.4460 cx        1 INU     -0.128400
     18 CG4        -4.2550   -1.3370    2.7680 cx        1 INU     -0.128400
     19 CD1         1.9790    0.7640    5.0500 c3        1 INU     -0.048200
     20 CD2         3.2290    1.3220    4.3970 c3        1 INU     -0.073400
     21 CD3         4.1720    0.2780    3.8330 c3        1 INU     -0.079400
     22 CD4         3.7320   -0.2840    2.4950 c3        1 INU     -0.078400
     23 CD5         3.1890   -1.6950    2.5690 c3        1 INU     -0.076400
     24 CD6         2.0360   -1.8590    3.5420 c3        1 INU     -0.027200
     25 N          -1.1710   -0.1200   -3.4650 nh        1 INU     -0.776500
     26 S          -0.3900    0.5090   -4.7480 sy        1 INU      1.516200
     27 O1         -0.3420   -0.5070   -5.7310 o         1 INU     -0.650800
     28 O2         -0.9390    1.7440   -5.1380 o         1 INU     -0.650800
     29 CE1         1.1710    0.7750   -4.1690 ca        1 INU     -0.385500
     30 CE2         2.1720   -0.1870   -4.3520 ca        1 INU     -0.012000
     31 CE3         3.4710    0.0410   -3.9060 ca        1 INU     -0.158500
     32 CE4         3.7870    1.2420   -3.2680 ca        1 INU     -0.066000
     33 CE5         2.8010    2.2120   -3.0820 ca        1 INU     -0.158500
     34 CE6         1.5040    1.9770   -3.5310 ca        1 INU     -0.012000
     35 HO6         0.6950   -2.6750    1.7130 ho        1 INU      0.434000
     36 HB2        -2.7310    2.2690    1.0250 ha        1 INU      0.161000
     37 HB3        -2.5250    3.5850   -1.0810 ha        1 INU      0.137000
     38 HB4        -1.8280    2.5100   -3.1920 ha        1 INU      0.164000
     39 HB6        -1.4940   -1.2930   -1.0830 ha        1 INU      0.134000
     40 HG1        -2.2330   -1.5220    1.0210 hc        1 INU      0.072700
     41 HG2        -3.7570    0.8210    2.3620 hc        1 INU      0.105700
     42 HG31       -5.7980   -0.3970    1.4190 hc        1 INU      0.070450
     43 HG32       -4.7160   -1.6100    0.5810 hc        1 INU      0.070450
     44 HG41       -3.7240   -2.3030    2.8480 hc        1 INU      0.070450
     45 HG42       -4.8030   -1.0920    3.6950 hc        1 INU      0.070450
     46 HD11        1.5230    1.5680    5.6930 hc        1 INU      0.073700
     47 HD12        2.2400   -0.0970    5.7220 hc        1 INU      0.073700
     48 HD21        3.7830    1.9070    5.1820 hc        1 INU      0.053700
     49 HD22        2.9370    2.0460    3.5910 hc        1 INU      0.053700
     50 HD31        4.3070   -0.5510    4.5770 hc        1 INU      0.043200
     51 HD32        5.1780    0.7620    3.7030 hc        1 INU      0.043200
     52 HD41        4.6100   -0.2890    1.7940 hc        1 INU      0.046700
     53 HD42        2.9550    0.3850    2.0380 hc        1 INU      0.046700
     54 HD51        4.0100   -2.3970    2.8740 hc        1 INU      0.040200
     55 HD52        2.8540   -2.0000    1.5410 hc        1 INU      0.040200
     56 HD61        2.4340   -1.7860    4.5910 hc        1 INU      0.051200
     57 HD62        1.6140   -2.8970    3.4480 hc        1 INU      0.051200
     58 HN         -1.3510   -1.1010   -3.4470 hn        1 INU      0.454800
     59 HE2         1.9250   -1.1290   -4.8740 ha        1 INU      0.154000
     60 HE3         4.2480   -0.7220   -4.0620 ha        1 INU      0.141000
     61 HE4         4.8130    1.4250   -2.9160 ha        1 INU      0.135000
     62 HE5         3.0470    3.1620   -2.5850 ha        1 INU      0.141000
     63 HE6         0.7250    2.7480   -3.3950 ha        1 INU      0.154000
@<TRIPOS>BOND
     1    1    2 1   
     2    1    7 2   
     3    1   15 1   
     4    2    3 2   
     5    2    4 1   
     6    4    5 1   
     7    5    6 2   
     8    5   19 1   
     9    6    7 1   
    10    6   24 1   
    11    7    8 1   
    12    8   35 1   
    13    9   10 ar  
    14    9   14 ar  
    15    9   15 1   
    16   10   11 ar  
    17   10   36 1   
    18   11   12 ar  
    19   11   37 1   
    20   12   13 ar  
    21   12   38 1   
    22   13   14 ar  
    23   13   25 1   
    24   14   39 1   
    25   15   16 1   
    26   15   40 1   
    27   16   17 1   
    28   16   18 1   
    29   16   41 1   
    30   17   18 1   
    31   17   42 1   
    32   17   43 1   
    33   18   44 1   
    34   18   45 1   
    35   19   20 1   
    36   19   46 1   
    37   19   47 1   
    38   20   21 1   
    39   20   48 1   
    40   20   49 1   
    41   21   22 1   
    42   21   50 1   
    43   21   51 1   
    44   22   23 1   
    45   22   52 1   
    46   22   53 1   
    47   23   24 1   
    48   23   54 1   
    49   23   55 1   
    50   24   56 1   
    51   24   57 1   
    52   25   26 1   
    53   25   58 1   
    54   26   27 2   
    55   26   28 2   
    56   26   29 1   
    57   29   30 ar  
    58   29   34 ar  
    59   30   31 ar  
    60   30   59 1   
    61   31   32 ar  
    62   31   60 1   
    63   32   33 ar  
    64   32   61 1   
    65   33   34 ar  
    66   33   62 1   
    67   34   63 1   
@<TRIPOS>SUBSTRUCTURE
     1 INU         1 TEMP              0 ****  ****    0 ROOT
