@<TRIPOS>MOLECULE
INV
   34    35     1     0     0
SMALL
bcc


@<TRIPOS>ATOM
      1 C01        -1.7450   -0.5720    1.8210 ca        1 INV     -0.122000
      2 C02        -1.2380   -0.5040    3.1160 ca        1 INV     -0.026000
      3 C03         0.0680   -0.0640    3.3550 ca        1 INV     -0.361500
      4 C04         0.8590    0.3180    2.2660 ca        1 INV     -0.026000
      5 C05         0.3630    0.2620    0.9660 ca        1 INV     -0.122000
      6 C06        -0.9420   -0.1850    0.7430 ca        1 INV     -0.079600
      7 C07        -1.5050   -0.2850   -0.6390 c         1 INV      0.658700
      8 O08        -2.1420   -1.2930   -1.0070 o         1 INV     -0.595100
      9 N09        -1.3410    0.8130   -1.4640 n         1 INV     -0.552900
     10 C10        -1.7450    0.7930   -2.8440 c3        1 INV      0.133300
     11 S11         0.6730    0.0360    4.9390 sy        1 INV      1.525200
     12 NP2         1.2970   -1.4170    5.1800 n3        1 INV     -1.026700
     13 O13        -0.4170    0.2270    5.8120 o         1 INV     -0.654800
     14 O14         1.7060    0.9960    4.9510 o         1 INV     -0.654800
     15 C15        -0.6850    0.3320   -3.8040 ca        1 INV     -0.144300
     16 C16        -0.3500   -1.0260   -3.8620 ca        1 INV     -0.091500
     17 C17         0.6090   -1.4800   -4.7600 ca        1 INV     -0.169000
     18 C18         1.2440   -0.5600   -5.6160 ca        1 INV      0.131900
     19 C19         0.9110    0.8060   -5.5630 ca        1 INV     -0.169000
     20 C20        -0.0510    1.2400   -4.6550 ca        1 INV     -0.091500
     21 F21         2.1800   -0.9920   -6.4950 f         1 INV     -0.139900
     22 H011       -2.7680   -0.9350    1.6350 ha        1 INV      0.152500
     23 H021       -1.8800   -0.7860    3.9700 ha        1 INV      0.158000
     24 H041        1.8850    0.6880    2.4460 ha        1 INV      0.158000
     25 H051        1.0080    0.5570    0.1240 ha        1 INV      0.152500
     26 H091       -0.6940    1.5140   -1.1910 hn        1 INV      0.311500
     27 H101       -2.6400    0.1090   -2.9420 h1        1 INV      0.072700
     28 H102       -2.0670    1.8410   -3.1160 h1        1 INV      0.072700
     29 HP21        2.2380   -1.6490    4.9810 hn        1 INV      0.449800
     30 HP22        0.7910   -2.1740    5.5650 hn        1 INV      0.449800
     31 H161       -0.8590   -1.7370   -3.1870 ha        1 INV      0.148500
     32 H171        0.8750   -2.5460   -4.8110 ha        1 INV      0.151000
     33 H191        1.4100    1.5160   -6.2380 ha        1 INV      0.151000
     34 H201       -0.3130    2.3080   -4.6160 ha        1 INV      0.148500
@<TRIPOS>BOND
     1    1    2 ar  
     2    1    6 ar  
     3    1   22 1   
     4    2    3 ar  
     5    2   23 1   
     6    3    4 ar  
     7    3   11 1   
     8    4    5 ar  
     9    4   24 1   
    10    5    6 ar  
    11    5   25 1   
    12    6    7 1   
    13    7    8 2   
    14    7    9 1   
    15    9   10 1   
    16    9   26 1   
    17   10   15 1   
    18   10   27 1   
    19   10   28 1   
    20   11   12 1   
    21   11   13 2   
    22   11   14 2   
    23   12   29 1   
    24   12   30 1   
    25   15   16 ar  
    26   15   20 ar  
    27   16   17 ar  
    28   16   31 1   
    29   17   18 ar  
    30   17   32 1   
    31   18   19 ar  
    32   18   21 1   
    33   19   20 ar  
    34   19   33 1   
    35   20   34 1   
@<TRIPOS>SUBSTRUCTURE
     1 INV         1 TEMP              0 ****  ****    0 ROOT
