@<TRIPOS>MOLECULE
INV
   36    37     1     0     0
SMALL
bcc


@<TRIPOS>ATOM
      1 C01        -0.1710    0.4350    0.3940 ca        1 INV     -0.098500
      2 C02         1.1150   -0.0510    0.1560 ca        1 INV      0.012500
      3 C03         2.0780   -0.0910    1.1800 ca        1 INV     -0.460500
      4 C04         1.7100    0.3700    2.4590 ca        1 INV      0.012500
      5 C05         0.4260    0.8500    2.7120 ca        1 INV     -0.098500
      6 C06        -0.5150    0.8800    1.6760 ca        1 INV     -0.079600
      7 C07        -1.8730    1.4450    1.8720 c         1 INV      0.536700
      8 O08        -2.4230    2.2460    1.1310 o         1 INV     -0.363100
      9 N09        -2.6440    0.9840    3.0720 ny        1 INV     -0.681800
     10 C10        -3.8680    0.1710    2.6780 c3        1 INV      0.197100
     11 S11         3.5470   -0.7810    0.9270 sy        1 INV      1.462200
     12 NP2         4.5010    0.7350    0.3400 nz        1 INV     -0.801500
     13 O13         3.5840   -1.5610   -0.2040 o         1 INV     -0.533800
     14 O14         4.2090   -1.0660    2.0980 o         1 INV     -0.533800
     15 C15        -4.6970   -0.1160    3.8710 ca        1 INV     -0.241300
     16 C16        -5.6970    0.7880    4.2610 ca        1 INV     -0.063000
     17 C17        -6.5200    0.5030    5.3410 ca        1 INV     -0.162500
     18 C18        -6.3480   -0.7080    6.0480 ca        1 INV      0.213900
     19 C19        -5.3450   -1.6220    5.6530 ca        1 INV     -0.162500
     20 C20        -4.5320   -1.3210    4.5710 ca        1 INV     -0.063000
     21 F21        -7.1400   -0.9930    7.0950 f         1 INV     -0.087900
     22 H011       -0.9060    0.4740   -0.4320 ha        1 INV      0.186000
     23 H021        1.3650   -0.4290   -0.8570 ha        1 INV      0.196000
     24 H041        2.4440    0.3340    3.2900 ha        1 INV      0.196000
     25 H051        0.1840    1.2180    3.7230 ha        1 INV      0.186000
     26 H091       -2.9760    1.8070    3.5980 hn        1 INV      0.465300
     27 H101       -4.4370    0.7870    1.9190 hx        1 INV      0.114200
     28 H102       -3.4970   -0.7750    2.1920 hx        1 INV      0.114200
     29 HP21        5.3000    0.9160    0.9550 hn        1 INV      0.471800
     30 HP22        4.8790    0.5780   -0.5990 hn        1 INV      0.471800
     31 H161       -5.8520    1.7230    3.6980 ha        1 INV      0.144500
     32 H171       -7.3140    1.2040    5.6490 ha        1 INV      0.185500
     33 H191       -5.2300   -2.5710    6.2030 ha        1 INV      0.185500
     34 H201       -3.7680   -2.0480    4.2530 ha        1 INV      0.144500
     35 H092       -2.0530    0.4230    3.6930 hn        1 INV      0.465300
     36 HP23        3.9480    1.5870    0.3040 hn        1 INV      0.471800
@<TRIPOS>BOND
     1    1    2 ar  
     2    1    6 ar  
     3    1   22 1   
     4    2    3 ar  
     5    2   23 1   
     6    3    4 ar  
     7    3   11 1   
     8    4    5 ar  
     9    4   24 1   
    10    5    6 ar  
    11    5   25 1   
    12    6    7 1   
    13    7    8 2   
    14    7    9 1   
    15    9   10 1   
    16    9   26 1   
    17    9   35 1   
    18   10   15 1   
    19   10   27 1   
    20   10   28 1   
    21   11   12 1   
    22   11   13 2   
    23   11   14 2   
    24   12   29 1   
    25   12   30 1   
    26   12   36 1   
    27   15   16 ar  
    28   15   20 ar  
    29   16   17 ar  
    30   16   31 1   
    31   17   18 ar  
    32   17   32 1   
    33   18   19 ar  
    34   18   21 1   
    35   19   20 ar  
    36   19   33 1   
    37   20   34 1   
@<TRIPOS>SUBSTRUCTURE
     1 INV         1 TEMP              0 ****  ****    0 ROOT
