@<TRIPOS>MOLECULE
INV
   36    37     1     0     0
SMALL
bcc


@<TRIPOS>ATOM
      1 C01        -0.1740    0.3990    0.3880 ca        1 INV     -0.098500
      2 C02         1.1170   -0.0760    0.1620 ca        1 INV      0.012500
      3 C03         2.0810   -0.0780    1.1860 ca        1 INV     -0.460500
      4 C04         1.7060    0.4070    2.4540 ca        1 INV      0.012500
      5 C05         0.4160    0.8750    2.6960 ca        1 INV     -0.098500
      6 C06        -0.5250    0.8690    1.6600 ca        1 INV     -0.079600
      7 C07        -1.8900    1.4200    1.8420 c         1 INV      0.536700
      8 O08        -2.4510    2.1960    1.0820 o         1 INV     -0.363100
      9 N09        -2.6550    0.9770    3.0530 n4        1 INV     -0.681800
     10 C10        -3.8680    0.1380    2.6780 c3        1 INV      0.197100
     11 S11         3.5590   -0.7550    0.9490 sy        1 INV      1.462200
     12 NP2         4.4940    0.7590    0.3270 n4        1 INV     -0.801500
     13 O13         3.6080   -1.5600   -0.1630 o         1 INV     -0.533800
     14 O14         4.2250   -1.0030    2.1270 o         1 INV     -0.533800
     15 C15        -4.6930   -0.1330    3.8770 ca        1 INV     -0.241300
     16 C16        -5.7060    0.7660    4.2460 ca        1 INV     -0.063000
     17 C17        -6.5250    0.4960    5.3330 ca        1 INV     -0.162500
     18 C18        -6.3350   -0.6950    6.0680 ca        1 INV      0.213900
     19 C19        -5.3200   -1.6050    5.6960 ca        1 INV     -0.162500
     20 C20        -4.5100   -1.3170    4.6070 ca        1 INV     -0.063000
     21 F21        -7.1240   -0.9670    7.1230 f         1 INV     -0.087900
     22 H011       -0.9100    0.4090   -0.4390 ha        1 INV      0.186000
     23 H021        1.3730   -0.4740   -0.8420 ha        1 INV      0.196000
     24 H041        2.4410    0.4000    3.2850 ha        1 INV      0.196000
     25 H051        0.1690    1.2640    3.6980 ha        1 INV      0.186000
     26 H091       -2.9990    1.8080    3.5590 hn        1 INV      0.465300
     27 H101       -4.4450    0.7280    1.9060 hx        1 INV      0.114200
     28 H102       -3.4830   -0.8140    2.2150 hx        1 INV      0.114200
     29 HP21        5.2900    0.9650    0.9380 hn        1 INV      0.471800
     30 HP22        4.8740    0.5860   -0.6080 hn        1 INV      0.471800
     31 H161       -5.8740    1.6850    3.6610 ha        1 INV      0.144500
     32 H171       -7.3290    1.1920    5.6250 ha        1 INV      0.185500
     33 H191       -5.1910   -2.5380    6.2680 ha        1 INV      0.185500
     34 H201       -3.7360   -2.0410    4.3060 ha        1 INV      0.144500
     35 H092       -2.0570    0.4390    3.6870 hn        1 INV      0.465300
     36 HP23        3.9290    1.6040    0.2720 hn        1 INV      0.471800
@<TRIPOS>BOND
     1    1    2 ar  
     2    1    6 ar  
     3    1   22 1   
     4    2    3 ar  
     5    2   23 1   
     6    3    4 ar  
     7    3   11 1   
     8    4    5 ar  
     9    4   24 1   
    10    5    6 ar  
    11    5   25 1   
    12    6    7 1   
    13    7    8 2   
    14    7    9 1   
    15    9   10 1   
    16    9   26 1   
    17    9   35 1   
    18   10   15 1   
    19   10   27 1   
    20   10   28 1   
    21   11   12 1   
    22   11   13 2   
    23   11   14 2   
    24   12   29 1   
    25   12   30 1   
    26   12   36 1   
    27   15   16 ar  
    28   15   20 ar  
    29   16   17 ar  
    30   16   31 1   
    31   17   18 ar  
    32   17   32 1   
    33   18   19 ar  
    34   18   21 1   
    35   19   20 ar  
    36   19   33 1   
    37   20   34 1   
@<TRIPOS>SUBSTRUCTURE
     1 INV         1 TEMP              0 ****  ****    0 ROOT
