@<TRIPOS>MOLECULE
INV
   36    37     1     0     0
SMALL
bcc


@<TRIPOS>ATOM
      1 C01        -0.1700    0.4230    0.3920 ca        1 INV     -0.098500
      2 C02         1.1200   -0.0520    0.1610 ca        1 INV      0.012500
      3 C03         2.0820   -0.0720    1.1870 ca        1 INV     -0.460500
      4 C04         1.7080    0.3980    2.4600 ca        1 INV      0.012500
      5 C05         0.4190    0.8670    2.7070 ca        1 INV     -0.098500
      6 C06        -0.5210    0.8780    1.6700 ca        1 INV     -0.080600
      7 C07        -1.8850    1.4310    1.8580 c         1 INV      0.536700
      8 O08        -2.4420    2.2180    1.1080 o         1 INV     -0.363100
      9 N09        -2.6520    0.9740    3.0620 n4        1 INV     -0.681800
     10 C10        -3.8690    0.1480    2.6740 c3        1 INV      0.197100
     11 S11         3.5590   -0.7500    0.9430 sy        1 INV      1.462200
     12 NP2         4.4990    0.7690    0.3420 n4        1 INV     -0.801500
     13 O13         3.6060   -1.5400   -0.1800 o         1 INV     -0.533800
     14 O14         4.2220   -1.0160    2.1180 o         1 INV     -0.533800
     15 C15        -4.6970   -0.1360    3.8690 ca        1 INV     -0.241300
     16 C16        -5.7040    0.7630    4.2510 ca        1 INV     -0.063000
     17 C17        -6.5250    0.4820    5.3340 ca        1 INV     -0.162500
     18 C18        -6.3430   -0.7220    6.0510 ca        1 INV      0.213900
     19 C19        -5.3340   -1.6320    5.6650 ca        1 INV     -0.162500
     20 C20        -4.5220   -1.3330    4.5810 ca        1 INV     -0.063000
     21 F21        -7.1340   -1.0030    7.1010 f         1 INV     -0.087900
     22 H011       -0.9050    0.4460   -0.4350 ha        1 INV      0.186000
     23 H021        1.3760   -0.4390   -0.8470 ha        1 INV      0.196000
     24 H041        2.4410    0.3780    3.2930 ha        1 INV      0.196000
     25 H051        0.1720    1.2440    3.7140 ha        1 INV      0.186000
     26 H091       -2.9920    1.7990    3.5810 hn        1 INV      0.465300
     27 H101       -3.4900   -0.8000    2.1980 hx        1 INV      0.114200
     28 H102       -4.4420    0.7510    1.9100 hx        1 INV      0.114200
     29 HP21        5.2950    0.9650    0.9560 hn        1 INV      0.471800
     30 HP22        3.9380    1.6160    0.2960 hn        1 INV      0.471800
     31 H161       -5.8660    1.6920    3.6800 ha        1 INV      0.144500
     32 H171       -7.3250    1.1790    5.6360 ha        1 INV      0.185500
     33 H191       -5.2120   -2.5750    6.2230 ha        1 INV      0.185500
     34 H201       -3.7520   -2.0570    4.2690 ha        1 INV      0.144500
     35 H092       -2.0570    0.4240    3.6880 hn        1 INV      0.465300
     36 HP23        4.8800    0.6070   -0.5950 hn        1 INV      0.471800
@<TRIPOS>BOND
     1    1    2 ar  
     2    1    6 ar  
     3    1   22 1   
     4    2    3 ar  
     5    2   23 1   
     6    3    4 ar  
     7    3   11 1   
     8    4    5 ar  
     9    4   24 1   
    10    5    6 ar  
    11    5   25 1   
    12    6    7 1   
    13    7    8 2   
    14    7    9 1   
    15    9   10 1   
    16    9   26 1   
    17    9   35 1   
    18   10   15 1   
    19   10   27 1   
    20   10   28 1   
    21   11   12 1   
    22   11   13 2   
    23   11   14 2   
    24   12   29 1   
    25   12   30 1   
    26   12   36 1   
    27   15   16 ar  
    28   15   20 ar  
    29   16   17 ar  
    30   16   31 1   
    31   17   18 ar  
    32   17   32 1   
    33   18   19 ar  
    34   18   21 1   
    35   19   20 ar  
    36   19   33 1   
    37   20   34 1   
@<TRIPOS>SUBSTRUCTURE
     1 INV         1 TEMP              0 ****  ****    0 ROOT
