@<TRIPOS>MOLECULE
INW
   36    37     1     0     0
SMALL
bcc


@<TRIPOS>ATOM
      1 C01        -0.2340    0.5250    0.3870 ca        1 INW     -0.096000
      2 C02         1.0240   -0.0400    0.1820 ca        1 INW      0.012500
      3 C03         1.9680   -0.1110    1.2230 ca        1 INW     -0.460500
      4 C04         1.6090    0.4030    2.4830 ca        1 INW      0.012500
      5 C05         0.3520    0.9630    2.7040 ca        1 INW     -0.096000
      6 C06        -0.5720    1.0190    1.6540 ca        1 INW     -0.078600
      7 C07        -1.9020    1.6540    1.8150 c         1 INW      0.539700
      8 O08        -2.4090    2.4610    1.0510 o         1 INW     -0.363100
      9 N09        -2.7080    1.2600    3.0180 ny        1 INW     -0.682800
     10 C10        -3.8330    0.3150    2.6450 c3        1 INW      0.199100
     11 S11         3.3950   -0.8970    1.0120 sy        1 INW      1.462200
     12 NP2         4.4500    0.5440    0.4040 nz        1 INW     -0.801500
     13 O13         3.4030   -1.7050   -0.1000 o         1 INW     -0.533800
     14 O14         4.0220   -1.1900    2.1990 o         1 INW     -0.533800
     15 C15        -4.6250   -0.0670    3.8390 ca        1 INW     -0.263300
     16 C16        -4.0330   -0.8340    4.8720 ca        1 INW      0.160900
     17 C17        -4.7870   -1.2910    5.9560 ca        1 INW     -0.189000
     18 C18        -6.1600   -0.9720    6.0100 ca        1 INW      0.230900
     19 C19        -6.7550   -0.1960    4.9910 ca        1 INW     -0.167000
     20 C20        -5.9870    0.2470    3.9230 ca        1 INW     -0.028000
     21 F21        -6.9010   -1.4080    7.0430 f         1 INW     -0.080900
     22 F22        -2.7040   -1.1100    4.8040 f         1 INW     -0.155900
     23 H011       -0.9540    0.5850   -0.4510 ha        1 INW      0.186000
     24 H021        1.2680   -0.4570   -0.8170 ha        1 INW      0.195500
     25 H041        2.3270    0.3440    3.3270 ha        1 INW      0.195500
     26 H051        0.1180    1.3690    3.7030 ha        1 INW      0.186000
     27 H091       -3.1250    2.1020    3.4410 hn        1 INW      0.471300
     28 H101       -4.4720    0.8380    1.8740 hx        1 INW      0.117200
     29 H102       -3.3540   -0.5980    2.1840 hx        1 INW      0.117200
     30 HP21        4.8310    0.3410   -0.5250 hn        1 INW      0.471800
     31 HP22        5.2480    0.6920    1.0280 hn        1 INW      0.471800
     32 H171       -4.3230   -1.8950    6.7530 ha        1 INW      0.198000
     33 H191       -7.8310    0.0440    5.0510 ha        1 INW      0.194000
     34 H201       -6.4660    0.8420    3.1260 ha        1 INW      0.164000
     35 H092       -2.1150    0.7990    3.7210 hn        1 INW      0.471300
     36 HP23        3.9500    1.4280    0.3380 hn        1 INW      0.471800
@<TRIPOS>BOND
     1    1    2 ar  
     2    1    6 ar  
     3    1   23 1   
     4    2    3 ar  
     5    2   24 1   
     6    3    4 ar  
     7    3   11 1   
     8    4    5 ar  
     9    4   25 1   
    10    5    6 ar  
    11    5   26 1   
    12    6    7 1   
    13    7    8 2   
    14    7    9 1   
    15    9   10 1   
    16    9   27 1   
    17    9   35 1   
    18   10   15 1   
    19   10   28 1   
    20   10   29 1   
    21   11   12 1   
    22   11   13 2   
    23   11   14 2   
    24   12   30 1   
    25   12   31 1   
    26   12   36 1   
    27   15   16 ar  
    28   15   20 ar  
    29   16   17 ar  
    30   16   22 1   
    31   17   18 ar  
    32   17   32 1   
    33   18   19 ar  
    34   18   21 1   
    35   19   20 ar  
    36   19   33 1   
    37   20   34 1   
@<TRIPOS>SUBSTRUCTURE
     1 INW         1 TEMP              0 ****  ****    0 ROOT
