@<TRIPOS>MOLECULE
INW
   36    37     1     0     0
SMALL
bcc


@<TRIPOS>ATOM
      1 C01        -0.2430    0.4670    0.3740 ca        1 INW     -0.096000
      2 C02         1.0230   -0.0860    0.1830 ca        1 INW      0.012500
      3 C03         1.9700   -0.1090    1.2230 ca        1 INW     -0.460500
      4 C04         1.6070    0.4390    2.4670 ca        1 INW      0.012500
      5 C05         0.3420    0.9870    2.6740 ca        1 INW     -0.096000
      6 C06        -0.5850    0.9960    1.6250 ca        1 INW     -0.078600
      7 C07        -1.9240    1.6160    1.7710 c         1 INW      0.539700
      8 O08        -2.4450    2.3900    0.9820 o         1 INW     -0.363100
      9 N09        -2.7210    1.2480    2.9880 n4        1 INW     -0.682800
     10 C10        -3.8370    0.2810    2.6470 c3        1 INW      0.199100
     11 S11         3.4090   -0.8800    1.0330 sy        1 INW      1.462200
     12 NP2         4.4400    0.5570    0.3760 n4        1 INW     -0.801500
     13 O13         3.4260   -1.7220   -0.0530 o         1 INW     -0.533800
     14 O14         4.0430   -1.1260    2.2270 o         1 INW     -0.533800
     15 C15        -4.6210   -0.0730    3.8550 ca        1 INW     -0.263300
     16 C16        -4.0170   -0.8030    4.9090 ca        1 INW      0.160900
     17 C17        -4.7620   -1.2360    6.0080 ca        1 INW     -0.189000
     18 C18        -6.1390   -0.9300    6.0580 ca        1 INW      0.230900
     19 C19        -6.7460   -0.1910    5.0180 ca        1 INW     -0.167000
     20 C20        -5.9860    0.2290    3.9350 ca        1 INW     -0.028000
     21 F21        -6.8710   -1.3430    7.1060 f         1 INW     -0.080900
     22 F22        -2.6860   -1.0670    4.8430 f         1 INW     -0.155900
     23 H011       -0.9660    0.4890   -0.4640 ha        1 INW      0.186000
     24 H021        1.2700   -0.5310   -0.8030 ha        1 INW      0.195500
     25 H041        2.3280    0.4180    3.3110 ha        1 INW      0.195500
     26 H051        0.1050    1.4210    3.6600 ha        1 INW      0.186000
     27 H091       -2.1200    0.8150    3.7010 hn        1 INW      0.471300
     28 H101       -3.3500   -0.6400    2.2120 hx        1 INW      0.117200
     29 H102       -4.4840    0.7730    1.8630 hx        1 INW      0.117200
     30 HP21        3.9260    1.4300    0.2820 hn        1 INW      0.471800
     31 HP22        5.2370    0.7370    0.9930 hn        1 INW      0.471800
     32 H171       -4.2900   -1.8120    6.8220 ha        1 INW      0.198000
     33 H191       -7.8240    0.0400    5.0750 ha        1 INW      0.194000
     34 H201       -6.4740    0.7940    3.1230 ha        1 INW      0.164000
     35 H092       -3.1460    2.0980    3.3880 hn        1 INW      0.471300
     36 HP23        4.8230    0.3290   -0.5470 hn        1 INW      0.471800
@<TRIPOS>BOND
     1    1    2 ar  
     2    1    6 ar  
     3    1   23 1   
     4    2    3 ar  
     5    2   24 1   
     6    3    4 ar  
     7    3   11 1   
     8    4    5 ar  
     9    4   25 1   
    10    5    6 ar  
    11    5   26 1   
    12    6    7 1   
    13    7    8 2   
    14    7    9 1   
    15    9   10 1   
    16    9   27 1   
    17    9   35 1   
    18   10   15 1   
    19   10   28 1   
    20   10   29 1   
    21   11   12 1   
    22   11   13 2   
    23   11   14 2   
    24   12   30 1   
    25   12   31 1   
    26   12   36 1   
    27   15   16 ar  
    28   15   20 ar  
    29   16   17 ar  
    30   16   22 1   
    31   17   18 ar  
    32   17   32 1   
    33   18   19 ar  
    34   18   21 1   
    35   19   20 ar  
    36   19   33 1   
    37   20   34 1   
@<TRIPOS>SUBSTRUCTURE
     1 INW         1 TEMP              0 ****  ****    0 ROOT
