@<TRIPOS>MOLECULE
INW
   36    37     1     0     0
SMALL
bcc


@<TRIPOS>ATOM
      1 C01        -0.2370    0.4890    0.3800 ca        1 INW     -0.096000
      2 C02         1.0300   -0.0620    0.1890 ca        1 INW      0.012500
      3 C03         1.9730   -0.0950    1.2320 ca        1 INW     -0.460500
      4 C04         1.6060    0.4430    2.4790 ca        1 INW      0.012500
      5 C05         0.3400    0.9890    2.6870 ca        1 INW     -0.096000
      6 C06        -0.5830    1.0080    1.6350 ca        1 INW     -0.078600
      7 C07        -1.9230    1.6260    1.7810 c         1 INW      0.539700
      8 O08        -2.4410    2.4070    0.9980 o         1 INW     -0.363100
      9 N09        -2.7250    1.2470    2.9920 n4        1 INW     -0.682800
     10 C10        -3.8350    0.2780    2.6400 c3        1 INW      0.199100
     11 S11         3.4120   -0.8640    1.0400 sy        1 INW      1.462200
     12 NP2         4.4460    0.5790    0.3990 n4        1 INW     -0.801500
     13 O13         3.4330   -1.6960   -0.0530 o         1 INW     -0.533800
     14 O14         4.0430   -1.1210    2.2340 o         1 INW     -0.533800
     15 C15        -4.6230   -0.0870    3.8420 ca        1 INW     -0.263300
     16 C16        -4.0210   -0.8220    4.8930 ca        1 INW      0.160900
     17 C17        -4.7690   -1.2650    5.9870 ca        1 INW     -0.189000
     18 C18        -6.1470   -0.9650    6.0320 ca        1 INW      0.230900
     19 C19        -6.7520   -0.2220    4.9950 ca        1 INW     -0.167000
     20 C20        -5.9890    0.2090    3.9180 ca        1 INW     -0.028000
     21 F21        -6.8820   -1.3880    7.0740 f         1 INW     -0.080900
     22 F22        -2.6880   -1.0800    4.8320 f         1 INW     -0.155900
     23 H011       -0.9570    0.5190   -0.4600 ha        1 INW      0.186000
     24 H021        1.2800   -0.4980   -0.8000 ha        1 INW      0.195500
     25 H041        2.3230    0.4140    3.3250 ha        1 INW      0.195500
     26 H051        0.1000    1.4140    3.6760 ha        1 INW      0.186000
     27 H091       -3.1540    2.0930    3.3960 hn        1 INW      0.471300
     28 H101       -4.4810    0.7730    1.8570 hx        1 INW      0.117200
     29 H102       -3.3430   -0.6380    2.2000 hx        1 INW      0.117200
     30 HP21        4.8310    0.3600   -0.5240 hn        1 INW      0.471800
     31 HP22        5.2410    0.7530    1.0200 hn        1 INW      0.471800
     32 H171       -4.2970   -1.8440    6.7980 ha        1 INW      0.198000
     33 H191       -7.8310    0.0050    5.0480 ha        1 INW      0.194000
     34 H201       -6.4760    0.7780    3.1070 ha        1 INW      0.164000
     35 H092       -2.1250    0.8120    3.7050 hn        1 INW      0.471300
     36 HP23        3.9330    1.4530    0.3130 hn        1 INW      0.471800
@<TRIPOS>BOND
     1    1    2 ar  
     2    1    6 ar  
     3    1   23 1   
     4    2    3 ar  
     5    2   24 1   
     6    3    4 ar  
     7    3   11 1   
     8    4    5 ar  
     9    4   25 1   
    10    5    6 ar  
    11    5   26 1   
    12    6    7 1   
    13    7    8 2   
    14    7    9 1   
    15    9   10 1   
    16    9   27 1   
    17    9   35 1   
    18   10   15 1   
    19   10   28 1   
    20   10   29 1   
    21   11   12 1   
    22   11   13 2   
    23   11   14 2   
    24   12   30 1   
    25   12   31 1   
    26   12   36 1   
    27   15   16 ar  
    28   15   20 ar  
    29   16   17 ar  
    30   16   22 1   
    31   17   18 ar  
    32   17   32 1   
    33   18   19 ar  
    34   18   21 1   
    35   19   20 ar  
    36   19   33 1   
    37   20   34 1   
@<TRIPOS>SUBSTRUCTURE
     1 INW         1 TEMP              0 ****  ****    0 ROOT
