@<TRIPOS>MOLECULE
INW
   34    29     1     0     0
SMALL
bcc


@<TRIPOS>ATOM
      1 C01         1.5600    0.3750   -0.2180 c1        1 INW     -0.135000
      2 C02         2.9560    0.4100   -0.2040 c1        1 INW     -0.026000
      3 C03         3.6720    0.4130   -1.4120 c1        1 INW     -0.806000
      4 C04         3.0010    0.3820   -2.6150 c1        1 INW     -0.067000
      5 C05         1.5920    0.3460   -2.6340 c1        1 INW     -0.067000
      6 C06         0.8760    0.3430   -1.4280 c1        1 INW     -0.058000
      7 C07        -0.6410    0.3660   -1.4440 c2        1 INW      0.336000
      8 O08        -1.2530    0.3370   -2.5310 o         1 INW     -0.355000
      9 N09        -1.3790    0.2980   -0.1990 n         1 INW     -0.367000
     10 C10        -2.7830    0.5670   -0.1920 c3        1 INW      0.014000
     11 S11         5.5340    0.4960   -1.3800 s4        1 INW      2.080800
     12 NP2         6.1600   -0.9950   -1.2380 n2        1 INW     -0.953000
     13 O13         6.0100    1.3890   -0.3020 o         1 INW     -0.542400
     14 O14         6.0390    1.1460   -2.5140 o         1 INW     -0.542400
     15 C15        -3.4230   -0.0110    1.1040 c2        1 INW     -0.158000
     16 C16        -3.4060    0.7270    2.2860 c2        1 INW      0.116000
     17 C17        -4.0760    0.2350    3.4360 c1        1 INW     -0.206000
     18 C18        -4.7480   -0.9820    3.3840 c1        1 INW      0.123000
     19 C19        -4.7640   -1.7150    2.2070 c1        1 INW     -0.179000
     20 C20        -4.0960   -1.2270    1.0550 c1        1 INW     -0.064000
     21 F21        -5.3480   -1.4910    4.5260 f         1 INW     -0.097000
     22 F22        -2.6230    1.8370    2.3810 f         1 INW     -0.107000
     23 H011        1.0500    0.3730    0.6510 ha        1 INW      0.144000
     24 H021        3.4530    0.4330    0.6780 ha        1 INW      0.158000
     25 H041        3.4690    0.3850   -3.3970 ha        1 INW      0.160000
     26 H051        1.1020    0.3230   -3.5090 ha        1 INW      0.160000
     27 H091       -0.9670    0.0050    0.5590 hn        1 INW      0.233000
     28 H101       -2.9390    1.5750   -0.2270 h1        1 INW      0.117000
     29 H102       -3.2070    0.1360   -0.9930 h1        1 INW      0.117000
     30 HP21        6.2850   -1.3470   -0.4360 hn        1 INW      0.245000
     31 HP22        6.3190   -1.4990   -1.9910 hn        1 INW      0.245000
     32 H171       -4.0650    0.7270    4.2290 ha        1 INW      0.167000
     33 H191       -5.2500   -2.5940    2.1700 ha        1 INW      0.158000
     34 H201       -4.1090   -1.7630    0.1980 ha        1 INW      0.154000
@<TRIPOS>BOND
     1    1    6 1   
     2    1   23 1   
     3    2    3 1   
     4    2   24 1   
     5    3   11 1   
     6    4    5 1   
     7    4   25 1   
     8    5   26 1   
     9    6    7 1   
    10    7    8 1   
    11    7    9 1   
    12    9   10 1   
    13    9   27 1   
    14   10   15 1   
    15   10   28 1   
    16   10   29 1   
    17   11   13 1   
    18   11   14 1   
    19   12   30 1   
    20   12   31 1   
    21   15   16 1   
    22   15   20 1   
    23   16   17 1   
    24   16   22 1   
    25   17   32 1   
    26   18   19 1   
    27   18   21 1   
    28   19   33 1   
    29   20   34 1   
@<TRIPOS>SUBSTRUCTURE
     1 INW         1 TEMP              0 ****  ****    0 ROOT
