@<TRIPOS>MOLECULE
INW
   34    35     1     0     0
SMALL
bcc


@<TRIPOS>ATOM
      1 C01        -1.8440   -0.4130    2.0920 ca        1 INW     -0.121000
      2 C02        -1.2930   -0.3300    3.3690 ca        1 INW     -0.026500
      3 C03         0.0720   -0.0810    3.5480 ca        1 INW     -0.361500
      4 C04         0.8780    0.0950    2.4180 ca        1 INW     -0.026500
      5 C05         0.3400    0.0220    1.1350 ca        1 INW     -0.121000
      6 C06        -1.0250   -0.2340    0.9720 ca        1 INW     -0.078600
      7 C07        -1.6420   -0.3490   -0.3850 c         1 INW      0.662700
      8 O08        -2.4660   -1.2470   -0.6470 o         1 INW     -0.594100
      9 N09        -1.3060    0.6210   -1.3110 n         1 INW     -0.557900
     10 C10        -1.7440    0.5570   -2.6780 c3        1 INW      0.137300
     11 S11         0.7320    0.0370    5.1080 sy        1 INW      1.525200
     12 NP2         1.1320   -1.4750    5.4460 n3        1 INW     -1.026700
     13 O13        -0.2880    0.4580    5.9860 o         1 INW     -0.654800
     14 O14         1.9010    0.8220    5.0290 o         1 INW     -0.654800
     15 C15        -0.6900    0.1080   -3.6510 ca        1 INW     -0.165300
     16 C16         0.5000    0.8490   -3.8180 ca        1 INW      0.150900
     17 C17         1.4680    0.4570   -4.7570 ca        1 INW     -0.206000
     18 C18         1.2370   -0.6930   -5.5290 ca        1 INW      0.157900
     19 C19         0.0570   -1.4420   -5.3640 ca        1 INW     -0.179000
     20 C20        -0.8870   -1.0350   -4.4280 ca        1 INW     -0.064000
     21 F21         2.1610   -1.0820   -6.4390 f         1 INW     -0.131900
     22 F22         0.7220    1.9560   -3.0680 f         1 INW     -0.141900
     23 H011       -2.9160   -0.6260    1.9540 ha        1 INW      0.153000
     24 H021       -1.9440   -0.4470    4.2540 ha        1 INW      0.158000
     25 H041        1.9520    0.3150    2.5490 ha        1 INW      0.158000
     26 H051        0.9970    0.1530    0.2620 ha        1 INW      0.153000
     27 H091       -0.5670    1.2520   -1.1040 hn        1 INW      0.319500
     28 H101       -2.6360   -0.1330   -2.7410 h1        1 INW      0.077700
     29 H102       -2.0730    1.5950   -2.9800 h1        1 INW      0.077700
     30 HP21        2.0190   -1.8650    5.2480 hn        1 INW      0.449800
     31 HP22        0.5260   -2.1140    5.8960 hn        1 INW      0.449800
     32 H171        2.3900    1.0420   -4.8850 ha        1 INW      0.167000
     33 H191       -0.1060   -2.3430   -5.9740 ha        1 INW      0.158000
     34 H201       -1.8070   -1.6270   -4.2940 ha        1 INW      0.154000
@<TRIPOS>BOND
     1    1    2 ar  
     2    1    6 ar  
     3    1   23 1   
     4    2    3 ar  
     5    2   24 1   
     6    3    4 ar  
     7    3   11 1   
     8    4    5 ar  
     9    4   25 1   
    10    5    6 ar  
    11    5   26 1   
    12    6    7 1   
    13    7    8 2   
    14    7    9 1   
    15    9   10 1   
    16    9   27 1   
    17   10   15 1   
    18   10   28 1   
    19   10   29 1   
    20   11   12 1   
    21   11   13 2   
    22   11   14 2   
    23   12   30 1   
    24   12   31 1   
    25   15   16 ar  
    26   15   20 ar  
    27   16   17 ar  
    28   16   22 1   
    29   17   18 ar  
    30   17   32 1   
    31   18   19 ar  
    32   18   21 1   
    33   19   20 ar  
    34   19   33 1   
    35   20   34 1   
@<TRIPOS>SUBSTRUCTURE
     1 INW         1 TEMP              0 ****  ****    0 ROOT
