@<TRIPOS>MOLECULE
INX
   77    78     1     0     0
SMALL
bcc


@<TRIPOS>ATOM
      1 C1          1.3010   -1.2760   -0.0700 ca        1 INX      0.175100
      2 C2          2.3770   -0.4120   -0.3460 ca        1 INX     -0.248000
      3 C3          3.0260    0.2710    0.6800 ca        1 INX     -0.120000
      4 C4          2.6150    0.1160    2.0020 ca        1 INX     -0.183300
      5 C5          1.5260   -0.7300    2.2710 ca        1 INX     -0.101000
      6 C6          0.8590   -1.4290    1.2700 ca        1 INX     -0.120600
      7 C7          3.3410    0.7780    3.1160 c3        1 INX     -0.029100
      8 C8          2.6350    2.0620    3.5910 c3        1 INX      0.044700
      9 O9          0.6510   -1.9930   -1.0480 os        1 INX     -0.261900
     10 N10         2.8300    3.2320    2.7690 n         1 INX     -0.537900
     11 C11         3.0090    2.3220    5.0730 c         1 INX      0.649100
     12 C12         4.0330    3.7120    2.3110 c         1 INX      0.644100
     13 N13         4.3320    2.5400    5.3720 n         1 INX     -0.568900
     14 O14         2.1240    2.3200    5.9540 o         1 INX     -0.638100
     15 C15         4.8060    2.7630    6.7050 c3        1 INX      0.096000
     16 C16         5.7620    1.6800    7.2180 c3        1 INX     -0.104400
     17 C17         6.2380    2.0280    8.6110 c3        1 INX     -0.076400
     18 C18         7.1830    0.9730    9.1480 c3        1 INX     -0.081400
     19 C19         7.6620    1.3120   10.5360 c3        1 INX     -0.089100
     20 O20         5.1420    3.2690    2.6850 o         1 INX     -0.650100
     21 C21         3.9840    4.8810    1.2800 c3        1 INX      0.050700
     22 N22         4.7960    5.9790    1.7210 n         1 INX     -0.570900
     23 C23         1.1720   -1.8220   -2.3720 c3        1 INX      0.003400
     24 C24         0.4060   -2.7110   -3.3830 c         1 INX      0.927600
     25 O25        -0.5780   -2.2020   -3.9890 o         1 INX     -0.844300
     26 O26         0.8850   -3.8490   -3.6460 o         1 INX     -0.844300
     27 C27        -0.3000   -2.3110    1.7280 c         1 INX      0.932200
     28 O28        -0.0270   -3.4710    2.1460 o         1 INX     -0.835800
     29 O29        -1.4540   -1.8000    1.7650 o         1 INX     -0.835800
     30 C30         4.4490    4.2530   -0.0520 c3        1 INX     -0.055100
     31 C31         4.1630    5.1200   -1.2250 ca        1 INX     -0.073300
     32 C32         4.9770    6.2210   -1.5170 ca        1 INX     -0.116000
     33 C33         4.7120    7.0160   -2.6310 ca        1 INX     -0.134500
     34 C34         3.6370    6.7130   -3.4680 ca        1 INX     -0.144000
     35 C35         2.8260    5.6150   -3.1850 ca        1 INX     -0.134500
     36 C36         3.0860    4.8210   -2.0690 ca        1 INX     -0.116000
     37 C37         4.2850    7.2170    2.0740 c         1 INX      0.663100
     38 C38         5.2540    8.2850    2.5430 c3        1 INX     -0.132400
     39 C39         6.5920    8.2890    1.8510 c3        1 INX     -0.202400
     40 C40         7.3750    9.5880    2.1270 c         1 INX      0.910600
     41 O41         8.6330    9.5430    1.9980 o         1 INX     -0.851300
     42 O42         6.7410   10.6340    2.4500 o         1 INX     -0.851300
     43 O43         3.0540    7.4280    2.0200 o         1 INX     -0.645100
     44 HC2         2.7310   -0.2650   -1.3750 ha        1 INX      0.122000
     45 HC3         3.8740    0.9280    0.4390 ha        1 INX      0.095000
     46 HC5         1.1880   -0.8580    3.3110 ha        1 INX      0.124000
     47 HC71        4.3960    1.0120    2.8130 hc        1 INX      0.053200
     48 HC72        3.3840    0.0780    3.9930 hc        1 INX      0.053200
     49 HC8         1.5180    1.8500    3.6010 h1        1 INX      0.107700
     50 HN10        2.0020    3.6000    2.3580 hn        1 INX      0.323500
     51 HN13        5.0040    2.5290    4.6360 hn        1 INX      0.344500
     52 H151        5.3480    3.7530    6.7340 h1        1 INX      0.049700
     53 H152        3.9220    2.8280    7.4030 h1        1 INX      0.049700
     54 H161        6.6430    1.5870    6.5300 hc        1 INX      0.047700
     55 H162        5.2420    0.6880    7.2320 hc        1 INX      0.047700
     56 H171        5.3560    2.1250    9.2970 hc        1 INX      0.037700
     57 H172        6.7570    3.0230    8.5970 hc        1 INX      0.037700
     58 H181        6.6620   -0.0210    9.1600 hc        1 INX      0.039700
     59 H182        8.0630    0.8750    8.4580 hc        1 INX      0.039700
     60 H191        8.2040    2.2890   10.5370 hc        1 INX      0.025367
     61 H192        8.3560    0.5230   10.9120 hc        1 INX      0.025367
     62 H193        6.8000    1.3890   11.2420 hc        1 INX      0.025367
     63 HC21        2.9260    5.2620    1.1530 h1        1 INX      0.100700
     64 HN22        5.7670    5.8040    1.8280 hn        1 INX      0.324500
     65 H231        1.0590   -0.7480   -2.6730 h1        1 INX      0.010700
     66 H232        2.2550   -2.1150   -2.3830 h1        1 INX      0.010700
     67 H301        5.5490    4.0320    0.0030 hc        1 INX      0.069200
     68 H302        3.9180    3.2680   -0.1660 hc        1 INX      0.069200
     69 HC32        5.8220    6.4710   -0.8560 ha        1 INX      0.144500
     70 HC33        5.3490    7.8860   -2.8430 ha        1 INX      0.125500
     71 HC34        3.4290    7.3410   -4.3450 ha        1 INX      0.113000
     72 HC35        1.9780    5.3720   -3.8410 ha        1 INX      0.125500
     73 HC36        2.4420    3.9540   -1.8520 ha        1 INX      0.144500
     74 H381        5.3950    8.1490    3.6480 hc        1 INX      0.081200
     75 H382        4.7630    9.2860    2.3890 hc        1 INX      0.081200
     76 H391        6.4580    8.2070    0.7420 hc        1 INX      0.028200
     77 H392        7.2220    7.4260    2.1860 hc        1 INX      0.028200
@<TRIPOS>BOND
     1    1    2 ar  
     2    1    6 ar  
     3    1    9 1   
     4    2    3 ar  
     5    2   44 1   
     6    3    4 ar  
     7    3   45 1   
     8    4    5 ar  
     9    4    7 1   
    10    5    6 ar  
    11    5   46 1   
    12    6   27 1   
    13    7    8 1   
    14    7   47 1   
    15    7   48 1   
    16    8   10 1   
    17    8   11 1   
    18    8   49 1   
    19    9   23 1   
    20   10   12 1   
    21   10   50 1   
    22   11   13 1   
    23   11   14 2   
    24   12   20 2   
    25   12   21 1   
    26   13   15 1   
    27   13   51 1   
    28   15   16 1   
    29   15   52 1   
    30   15   53 1   
    31   16   17 1   
    32   16   54 1   
    33   16   55 1   
    34   17   18 1   
    35   17   56 1   
    36   17   57 1   
    37   18   19 1   
    38   18   58 1   
    39   18   59 1   
    40   19   60 1   
    41   19   61 1   
    42   19   62 1   
    43   21   22 1   
    44   21   30 1   
    45   21   63 1   
    46   22   37 1   
    47   22   64 1   
    48   23   24 1   
    49   23   65 1   
    50   23   66 1   
    51   24   25 1   
    52   24   26 1   
    53   27   28 1   
    54   27   29 1   
    55   30   31 1   
    56   30   67 1   
    57   30   68 1   
    58   31   32 ar  
    59   31   36 ar  
    60   32   33 ar  
    61   32   69 1   
    62   33   34 ar  
    63   33   70 1   
    64   34   35 ar  
    65   34   71 1   
    66   35   36 ar  
    67   35   72 1   
    68   36   73 1   
    69   37   38 1   
    70   37   43 2   
    71   38   39 1   
    72   38   74 1   
    73   38   75 1   
    74   39   40 1   
    75   39   76 1   
    76   39   77 1   
    77   40   41 1   
    78   40   42 1   
@<TRIPOS>SUBSTRUCTURE
     1 INX         1 TEMP              0 ****  ****    0 ROOT
