@<TRIPOS>MOLECULE
INX
   80    81     1     0     0
SMALL
bcc


@<TRIPOS>ATOM
      1 C1          0.0000    0.0000    0.0000 ca        1 INX      0.217100
      2 C2          1.3870    0.0000    0.0000 ca        1 INX     -0.238000
      3 C3          2.0790    0.0000    1.1950 ca        1 INX     -0.102000
      4 C4          1.3960   -0.0000    2.4000 ca        1 INX     -0.273300
      5 C5          0.0190   -0.0060    2.4190 ca        1 INX      0.007000
      6 C6         -0.6940   -0.0000    1.2170 ca        1 INX     -0.148600
      7 C7          2.1640   -0.0010    3.6970 c3        1 INX      0.064900
      8 C8          2.4240    1.4420    4.1360 c3        1 INX     -0.094500
      9 O9         -0.6800   -0.0000   -1.1730 os        1 INX     -0.164900
     10 N10         3.2040    2.1320    3.1060 ny        1 INX      0.135200
     11 C11         3.1910    1.4420    5.4330 c         1 INX      0.243100
     12 C12         3.0610    3.4600    2.9300 c         1 INX      0.110100
     13 N13         4.5380    1.4420    5.4180 ny        1 INX      0.153200
     14 O14         2.5960    1.4420    6.4900 o         1 INX     -0.415100
     15 C15         5.2840    1.4410    6.6790 c3        1 INX     -0.023200
     16 C16         6.7850    1.4420    6.3830 c3        1 INX     -0.035400
     17 C17         7.5650    1.4420    7.7000 c3        1 INX     -0.018400
     18 C18         9.0660    1.4410    7.4050 c3        1 INX     -0.024400
     19 C19         9.8450    1.4410    8.7210 c3        1 INX      0.009900
     20 O20         2.2860    4.0850    3.6240 o         1 INX     -0.574100
     21 C21         3.8640    4.1700    1.8720 c3        1 INX     -0.076500
     22 N22         3.5300    5.5970    1.8800 ny        1 INX      0.138200
     23 C23         0.2960   -0.0010   -2.2160 c3        1 INX      0.055400
     24 C24        -0.3990   -0.0020   -3.5540 c         1 INX      0.925600
     25 O25        -1.6070   -0.0010   -3.6070 o         1 INX     -0.648800
     26 O26         0.3230   -0.0020   -4.6850 o         1 INX     -0.648800
     27 C27        -2.1680    0.0000    1.2290 c         1 INX      0.932200
     28 O28        -2.8330    0.0000    2.4020 o         1 INX     -0.665300
     29 O29        -2.7850   -0.0000    0.1820 o         1 INX     -0.665300
     30 C30         5.3560    3.9940    2.1600 c3        1 INX      0.033900
     31 C31         6.1600    4.7050    1.1010 ca        1 INX     -0.185300
     32 C32         6.5180    6.0280    1.2760 ca        1 INX     -0.098500
     33 C33         7.2540    6.6790    0.3060 ca        1 INX     -0.061500
     34 C34         7.6330    6.0080   -0.8420 ca        1 INX     -0.047000
     35 C35         7.2750    4.6840   -1.0170 ca        1 INX     -0.061500
     36 C36         6.5420    4.0320   -0.0440 ca        1 INX     -0.098500
     37 C37         3.6040    6.3130    0.7410 c         1 INX      0.324100
     38 C38         3.2610    7.7800    0.7500 c3        1 INX     -0.068400
     39 C39         3.4260    8.3520   -0.6600 c3        1 INX     -0.127400
     40 C40         3.0830    9.8190   -0.6520 c         1 INX      0.974600
     41 O41         3.1560   10.5330   -1.7860 o         1 INX     -0.830300
     42 O42         2.7410   10.3530    0.3770 o         1 INX     -0.830300
     43 O43         3.9470    5.7770   -0.2900 o         1 INX     -0.429100
     44 HC2         1.9280    0.0000   -0.9380 ha        1 INX      0.153000
     45 HC3         3.1620   -0.0240    1.1900 ha        1 INX      0.070000
     46 HC5        -0.5110   -0.0060    3.3640 ha        1 INX      0.136000
     47 HC71        3.1090   -0.5120    3.5570 hc        1 INX      0.036700
     48 HC72        1.5870   -0.5110    4.4580 hc        1 INX      0.036700
     49 HC8         1.4790    1.9530    4.2750 hx        1 INX      0.155700
     50 HN10        4.1690    1.9690    3.3140 hn        1 INX      0.200800
     51 HN13        4.8240    0.6270    4.9110 hn        1 INX      0.235800
     52 H151        5.0290    2.3260    7.2500 hx        1 INX      0.091700
     53 H152        5.0290    0.5570    7.2490 hx        1 INX      0.091700
     54 H161        7.0410    0.5570    5.8120 hc        1 INX      0.026200
     55 H162        7.0400    2.3260    5.8120 hc        1 INX      0.026200
     56 H171        7.3100    2.3260    8.2710 hc        1 INX      0.029700
     57 H172        7.3090    0.5570    8.2710 hc        1 INX      0.029700
     58 H181        9.3210    0.5560    6.8340 hc        1 INX      0.015700
     59 H182        9.3220    2.3250    6.8340 hc        1 INX      0.015700
     60 H191       10.9080    1.4400    8.5120 hc        1 INX      0.010700
     61 H192        9.5900    2.3250    9.2920 hc        1 INX      0.010700
     62 H193        9.5890    0.5560    9.2920 hc        1 INX      0.010700
     63 HC21        3.6320    3.7500    0.9000 hx        1 INX      0.118700
     64 HN22        2.5890    5.6740    2.2110 hn        1 INX      0.278300
     65 H231        0.9150   -0.8860   -2.1300 h1        1 INX      0.012700
     66 H232        0.9160    0.8830   -2.1310 h1        1 INX      0.012700
     67 H301        5.5880    4.4140    3.1320 hc        1 INX      0.022200
     68 H302        5.6040    2.9400    2.1540 hc        1 INX      0.022200
     69 HC32        6.2210    6.5550    2.1760 ha        1 INX      0.098000
     70 HC33        7.5350    7.7170    0.4430 ha        1 INX      0.125000
     71 HC34        8.2090    6.5180   -1.6040 ha        1 INX      0.125000
     72 HC35        7.5880    4.1520   -1.9070 ha        1 INX      0.125000
     73 HC36        6.2620    2.9950   -0.1810 ha        1 INX      0.098000
     74 H381        3.9220    8.3020    1.4310 hc        1 INX      0.065200
     75 H382        2.2350    7.9090    1.0730 hc        1 INX      0.065200
     76 H391        2.7640    7.8310   -1.3410 hc        1 INX      0.031200
     77 H392        4.4520    8.2230   -0.9840 hc        1 INX      0.031200
     78 H102        2.9830    1.6970    2.2330 hn        1 INX      0.200800
     79 H132        4.8240    2.2560    4.9110 hn        1 INX      0.235800
     80 H222        4.1420    6.0350    2.5400 hn        1 INX      0.278300
@<TRIPOS>BOND
     1    1    2 ar  
     2    1    6 ar  
     3    1    9 1   
     4    2    3 ar  
     5    2   44 1   
     6    3    4 ar  
     7    3   45 1   
     8    4    5 ar  
     9    4    7 1   
    10    5    6 ar  
    11    5   46 1   
    12    6   27 1   
    13    7    8 1   
    14    7   47 1   
    15    7   48 1   
    16    8   10 1   
    17    8   11 1   
    18    8   49 1   
    19    9   23 1   
    20   10   12 1   
    21   10   50 1   
    22   10   78 1   
    23   11   13 1   
    24   11   14 2   
    25   12   20 2   
    26   12   21 1   
    27   13   15 1   
    28   13   51 1   
    29   13   79 1   
    30   15   16 1   
    31   15   52 1   
    32   15   53 1   
    33   16   17 1   
    34   16   54 1   
    35   16   55 1   
    36   17   18 1   
    37   17   56 1   
    38   17   57 1   
    39   18   19 1   
    40   18   58 1   
    41   18   59 1   
    42   19   60 1   
    43   19   61 1   
    44   19   62 1   
    45   21   22 1   
    46   21   30 1   
    47   21   63 1   
    48   22   37 1   
    49   22   64 1   
    50   22   80 1   
    51   23   24 1   
    52   23   65 1   
    53   23   66 1   
    54   24   25 1   
    55   24   26 1   
    56   27   28 1   
    57   27   29 1   
    58   30   31 1   
    59   30   67 1   
    60   30   68 1   
    61   31   32 ar  
    62   31   36 ar  
    63   32   33 ar  
    64   32   69 1   
    65   33   34 ar  
    66   33   70 1   
    67   34   35 ar  
    68   34   71 1   
    69   35   36 ar  
    70   35   72 1   
    71   36   73 1   
    72   37   38 1   
    73   37   43 2   
    74   38   39 1   
    75   38   74 1   
    76   38   75 1   
    77   39   40 1   
    78   39   76 1   
    79   39   77 1   
    80   40   41 1   
    81   40   42 1   
@<TRIPOS>SUBSTRUCTURE
     1 INX         1 TEMP              0 ****  ****    0 ROOT
