@<TRIPOS>MOLECULE
INX
   77    73     1     0     0
SMALL
bcc


@<TRIPOS>ATOM
      1 C1         -3.5320    2.4460   -0.2160 c1        1 INX      0.096000
      2 C2         -3.3600    2.4350   -1.6070 c1        1 INX     -0.150500
      3 C3         -2.0700    2.2980   -2.1520 c1        1 INX     -0.150500
      4 C4         -0.9680    2.1730   -1.3100 c1        1 INX     -0.153000
      5 C5         -1.1400    2.1840    0.0780 c1        1 INX     -0.136000
      6 C6         -2.4230    2.3210    0.6240 c1        1 INX     -0.107000
      7 C7          0.4890    2.1900   -1.9130 c3        1 INX     -0.098000
      8 C8          1.1430    0.8180   -1.7080 c3        1 INX     -0.003000
      9 O9         -4.8180    2.4220    0.3220 os        1 INX     -0.199000
     10 N10         2.4650    0.9920   -1.2270 n         1 INX     -0.344000
     11 C11         1.1790    0.0700   -3.0300 c2        1 INX      0.282000
     12 C12         2.8930    0.3180    0.0470 c2        1 INX      0.286000
     13 N13         0.6190   -1.2790   -3.1210 n         1 INX     -0.333000
     14 O14         1.8210    0.5390   -3.9880 o         1 INX     -0.443000
     15 C15        -0.3920   -1.5570   -4.0550 c3        1 INX     -0.022000
     16 C16        -1.5790   -2.2450   -3.3340 c3        1 INX     -0.217000
     17 C17        -2.7210   -2.3860   -4.2680 c3        1 INX     -0.136000
     18 C18        -4.0620   -2.1890   -3.4820 c3        1 INX     -0.151000
     19 C19        -4.8790   -3.4430   -3.5700 c3        1 INX     -0.229000
     20 O20         2.0820   -0.2950    0.7100 o         1 INX     -0.357000
     21 C21         4.2990    0.4850    0.5470 c3        1 INX      0.015000
     22 N22         4.2800    1.1040    1.8500 n         1 INX     -0.373000
     23 C23        -5.4310    3.6510    0.3500 c3        1 INX     -0.080000
     24 C24        -6.8580    3.5010    0.9220 c2        1 INX      0.314000
     25 O25        -7.6550    2.6540    0.4210 o         1 INX     -0.590500
     26 O26        -7.2310    4.2260    1.9010 o         1 INX     -0.590500
     27 C27        -2.6210    2.1980    2.1440 c2        1 INX      0.378000
     28 O28        -2.5700    1.0780    2.6900 o         1 INX     -0.577500
     29 O29        -2.9440    3.2340    2.8360 o         1 INX     -0.577500
     30 C30         4.9790   -0.8790    0.6340 c3        1 INX     -0.145000
     31 C31         4.0100   -1.9020    1.2630 c2        1 INX     -0.078000
     32 C32         3.1040   -2.5980    0.4470 c2        1 INX     -0.119000
     33 C33         2.2830   -3.5730    0.9960 c1        1 INX     -0.133000
     34 C34         2.3560   -3.8620    2.3530 c1        1 INX     -0.150500
     35 C35         3.2550   -3.1730    3.1660 c1        1 INX     -0.150500
     36 C36         4.0850   -2.1870    2.6140 c1        1 INX     -0.124000
     37 C37         3.5050    0.4940    2.9460 c2        1 INX      0.304000
     38 C38         3.5530    1.1140    4.3780 c3        1 INX     -0.158000
     39 C39         2.1660    0.8910    5.0940 c3        1 INX     -0.227000
     40 C40         2.2630    1.3450    6.5610 c2        1 INX      0.331000
     41 O41         2.0360    2.5580    6.8630 o         1 INX     -0.587000
     42 O42         2.4480    0.4840    7.4830 o         1 INX     -0.587000
     43 O43         2.8350   -0.4770    2.7370 o         1 INX     -0.419000
     44 HC2        -4.1350    2.6080   -2.2030 ha        1 INX      0.136000
     45 HC3        -1.9420    2.3710   -3.0950 ha        1 INX      0.136000
     46 HC5        -0.3590    1.9930    0.6790 ha        1 INX      0.121000
     47 HC71        1.0260    2.8810   -1.4570 hc        1 INX      0.082000
     48 HC72        0.4450    2.3890   -2.8590 hc        1 INX      0.082000
     49 HC8         0.6290    0.3080   -1.0610 h1        1 INX      0.143000
     50 HN10        3.0990    1.4480   -1.7530 hn        1 INX      0.216000
     51 HN13        0.9860   -1.9450   -2.6530 hn        1 INX      0.258000
     52 H151       -0.0370   -2.1620   -4.7550 h1        1 INX      0.073500
     53 H152       -0.6900   -0.7390   -4.4590 h1        1 INX      0.073500
     54 H161       -1.2910   -3.1680   -3.0120 hc        1 INX      0.138000
     55 H162       -1.8510   -1.7070   -2.5700 hc        1 INX      0.138000
     56 H171       -2.6500   -1.7030   -4.9860 hc        1 INX      0.052500
     57 H172       -2.7070   -3.2640   -4.6580 hc        1 INX      0.052500
     58 H181       -4.5690   -1.4370   -3.8760 hc        1 INX      0.067500
     59 H182       -3.8600   -1.9900   -2.5270 hc        1 INX      0.067500
     60 H191       -5.7410   -3.3060   -3.1230 hc        1 INX      0.084667
     61 H192       -5.0280   -3.6630   -4.4950 hc        1 INX      0.084667
     62 H193       -4.3990   -4.1730   -3.1350 hc        1 INX      0.084667
     63 HC21        4.8020    1.0590   -0.0800 h1        1 INX      0.133000
     64 HN22        4.6920    1.9140    1.9770 hn        1 INX      0.244000
     65 H231       -4.9220    4.2490    0.9070 h1        1 INX      0.071000
     66 H232       -5.4810    4.0140   -0.5600 h1        1 INX      0.071000
     67 H301        5.7940   -0.8060    1.1900 hc        1 INX      0.099500
     68 H302        5.2260   -1.1770   -0.2680 hc        1 INX      0.099500
     69 HC32        3.1400   -2.4780   -0.5710 ha        1 INX      0.165000
     70 HC33        1.6390   -4.0660    0.4150 ha        1 INX      0.127000
     71 HC34        1.7460   -4.5870    2.7590 ha        1 INX      0.136000
     72 HC35        3.3060   -3.3830    4.1470 ha        1 INX      0.136000
     73 HC36        4.8300   -1.7790    3.1780 ha        1 INX      0.147000
     74 H381        3.7370    2.0830    4.3110 hc        1 INX      0.116500
     75 H382        4.2700    0.6780    4.9030 hc        1 INX      0.116500
     76 H391        1.9310   -0.0580    5.0620 hc        1 INX      0.069000
     77 H392        1.4680    1.4200    4.6310 hc        1 INX      0.069000
@<TRIPOS>BOND
     1    1    6 1   
     2    1    9 1   
     3    2    3 1   
     4    2   44 1   
     5    3   45 1   
     6    4    5 1   
     7    4    7 1   
     8    5   46 1   
     9    6   27 1   
    10    7    8 1   
    11    7   47 1   
    12    7   48 1   
    13    8   10 1   
    14    8   11 1   
    15    8   49 1   
    16    9   23 1   
    17   10   12 1   
    18   10   50 1   
    19   11   13 1   
    20   11   14 1   
    21   12   20 1   
    22   12   21 1   
    23   13   15 1   
    24   13   51 1   
    25   15   16 1   
    26   15   52 1   
    27   15   53 1   
    28   16   17 1   
    29   16   54 1   
    30   16   55 1   
    31   17   18 1   
    32   17   56 1   
    33   17   57 1   
    34   18   19 1   
    35   18   58 1   
    36   18   59 1   
    37   19   60 1   
    38   19   61 1   
    39   19   62 1   
    40   21   22 1   
    41   21   30 1   
    42   21   63 1   
    43   22   37 1   
    44   22   64 1   
    45   23   24 1   
    46   23   65 1   
    47   23   66 1   
    48   24   25 1   
    49   24   26 1   
    50   27   28 1   
    51   27   29 1   
    52   30   31 1   
    53   30   67 1   
    54   30   68 1   
    55   31   32 1   
    56   31   36 1   
    57   32   33 1   
    58   32   69 1   
    59   33   70 1   
    60   34   35 1   
    61   34   71 1   
    62   35   72 1   
    63   36   73 1   
    64   37   38 1   
    65   37   43 1   
    66   38   39 1   
    67   38   74 1   
    68   38   75 1   
    69   39   40 1   
    70   39   76 1   
    71   39   77 1   
    72   40   41 1   
    73   40   42 1   
@<TRIPOS>SUBSTRUCTURE
     1 INX         1 TEMP              0 ****  ****    0 ROOT
