@<TRIPOS>MOLECULE
INX
   77    78     1     0     0
SMALL
bcc


@<TRIPOS>ATOM
      1 C1          2.2530    2.0010   -3.9110 ca        1 INX      0.175100
      2 C2          1.3660    2.4220   -2.9030 ca        1 INX     -0.248000
      3 C3          1.4650    1.9170   -1.6080 ca        1 INX     -0.120000
      4 C4          2.4430    0.9780   -1.2880 ca        1 INX     -0.183300
      5 C5          3.3120    0.5440   -2.3030 ca        1 INX     -0.101000
      6 C6          3.2430    1.0300   -3.6040 ca        1 INX     -0.120600
      7 C7          2.6100    0.4840    0.1020 c3        1 INX     -0.029100
      8 C8          1.9520   -0.8930    0.3160 c3        1 INX      0.044700
      9 O9          2.2120    2.4940   -5.1940 os        1 INX     -0.261900
     10 N10         0.5210   -0.8890    0.4900 n         1 INX     -0.537900
     11 C11         2.6790   -1.6220    1.4760 c         1 INX      0.649100
     12 C12        -0.1920   -0.0890    1.3490 c         1 INX      0.644100
     13 N13         2.6460   -1.0400    2.7200 n         1 INX     -0.568900
     14 O14         3.2790   -2.6960    1.2650 o         1 INX     -0.638100
     15 C15         3.3010   -1.6010    3.8630 c3        1 INX      0.096000
     16 C16         4.4210   -0.7240    4.4340 c3        1 INX     -0.104400
     17 C17         5.0190   -1.3810    5.6590 c3        1 INX     -0.076400
     18 C18         6.1330   -0.5390    6.2440 c3        1 INX     -0.081400
     19 C19         6.7350   -1.1860    7.4640 c3        1 INX     -0.089100
     20 O20         0.3400    0.6440    2.2130 o         1 INX     -0.650100
     21 C21        -1.7460   -0.1250    1.2290 c3        1 INX      0.050700
     22 N22        -2.3460   -0.4010    2.5020 n         1 INX     -0.570900
     23 C23         1.2160    3.4980   -5.4240 c3        1 INX      0.003400
     24 C24         1.2900    4.0220   -6.8810 c         1 INX      0.927600
     25 O25         0.5550    3.4690   -7.7450 o         1 INX     -0.844300
     26 O26         1.9800    5.0570   -7.0980 o         1 INX     -0.844300
     27 C27         4.2630    0.4610   -4.5870 c         1 INX      0.932200
     28 O28         5.4110    0.9870   -4.6140 o         1 INX     -0.835800
     29 O29         3.9420   -0.5690   -5.2430 o         1 INX     -0.835800
     30 C30        -2.1290    1.2500    0.6400 c3        1 INX     -0.055100
     31 C31        -3.5310    1.2930    0.1480 ca        1 INX     -0.073300
     32 C32        -4.6000    1.4310    1.0410 ca        1 INX     -0.116000
     33 C33        -5.9100    1.4910    0.5670 ca        1 INX     -0.134500
     34 C34        -6.1630    1.4190   -0.8020 ca        1 INX     -0.144000
     35 C35        -5.1030    1.2850   -1.6980 ca        1 INX     -0.134500
     36 C36        -3.7920    1.2210   -1.2270 ca        1 INX     -0.116000
     37 C37        -3.0540   -1.5590    2.7830 c         1 INX      0.663100
     38 C38        -3.6200   -1.7320    4.1780 c3        1 INX     -0.132400
     39 C39        -4.1200   -0.4710    4.8330 c3        1 INX     -0.202400
     40 C40        -4.9800   -0.7740    6.0770 c         1 INX      0.910600
     41 O41        -5.0810    0.1410    6.9440 o         1 INX     -0.851300
     42 O42        -5.5510   -1.8970    6.1730 o         1 INX     -0.851300
     43 O43        -3.1990   -2.4360    1.9040 o         1 INX     -0.645100
     44 HC2         0.5830    3.1620   -3.1150 ha        1 INX      0.122000
     45 HC3         0.7690    2.2740   -0.8350 ha        1 INX      0.095000
     46 HC5         4.0870   -0.2020   -2.0660 ha        1 INX      0.124000
     47 HC71        2.1920    1.2240    0.8360 hc        1 INX      0.053200
     48 HC72        3.7060    0.3670    0.3210 hc        1 INX      0.053200
     49 HC8         2.1700   -1.5180   -0.6080 h1        1 INX      0.107700
     50 HN10        0.0110   -1.3810   -0.2090 hn        1 INX      0.323500
     51 HN13        2.1570   -0.1800    2.8400 hn        1 INX      0.344500
     52 H151        3.7320   -2.6050    3.5840 h1        1 INX      0.049700
     53 H152        2.5330   -1.7640    4.6750 h1        1 INX      0.049700
     54 H161        4.0180    0.2860    4.7060 hc        1 INX      0.047700
     55 H162        5.2170   -0.5700    3.6590 hc        1 INX      0.047700
     56 H171        5.4180   -2.3940    5.3860 hc        1 INX      0.037700
     57 H172        4.2210   -1.5360    6.4320 hc        1 INX      0.037700
     58 H181        5.7330    0.4740    6.5120 hc        1 INX      0.039700
     59 H182        6.9290   -0.3840    5.4680 hc        1 INX      0.039700
     60 H191        7.5530   -0.5500    7.8800 hc        1 INX      0.025367
     61 H192        5.9610   -1.3270    8.2570 hc        1 INX      0.025367
     62 H193        7.1600   -2.1870    7.2100 hc        1 INX      0.025367
     63 HC21       -2.0750   -0.9340    0.5090 h1        1 INX      0.100700
     64 HN22       -2.1850    0.2590    3.2270 hn        1 INX      0.324500
     65 H231        0.2010    3.0540   -5.2490 h1        1 INX      0.010700
     66 H232        1.3880    4.3570   -4.7230 h1        1 INX      0.010700
     67 H301       -1.9710    2.0460    1.4170 hc        1 INX      0.069200
     68 H302       -1.4200    1.4660   -0.2060 hc        1 INX      0.069200
     69 HC32       -4.4080    1.4800    2.1250 ha        1 INX      0.144500
     70 HC33       -6.7420    1.5870    1.2780 ha        1 INX      0.125500
     71 HC34       -7.1960    1.4650   -1.1750 ha        1 INX      0.113000
     72 HC35       -5.2960    1.2280   -2.7790 ha        1 INX      0.125500
     73 HC36       -2.9580    1.1170   -1.9390 ha        1 INX      0.144500
     74 H381       -4.4680   -2.4700    4.1170 hc        1 INX      0.081200
     75 H382       -2.8180   -2.1990    4.8100 hc        1 INX      0.081200
     76 H391       -3.2700    0.1840    5.1490 hc        1 INX      0.028200
     77 H392       -4.7570    0.1120    4.1190 hc        1 INX      0.028200
@<TRIPOS>BOND
     1    1    2 ar  
     2    1    6 ar  
     3    1    9 1   
     4    2    3 ar  
     5    2   44 1   
     6    3    4 ar  
     7    3   45 1   
     8    4    5 ar  
     9    4    7 1   
    10    5    6 ar  
    11    5   46 1   
    12    6   27 1   
    13    7    8 1   
    14    7   47 1   
    15    7   48 1   
    16    8   10 1   
    17    8   11 1   
    18    8   49 1   
    19    9   23 1   
    20   10   12 1   
    21   10   50 1   
    22   11   13 1   
    23   11   14 2   
    24   12   20 2   
    25   12   21 1   
    26   13   15 1   
    27   13   51 1   
    28   15   16 1   
    29   15   52 1   
    30   15   53 1   
    31   16   17 1   
    32   16   54 1   
    33   16   55 1   
    34   17   18 1   
    35   17   56 1   
    36   17   57 1   
    37   18   19 1   
    38   18   58 1   
    39   18   59 1   
    40   19   60 1   
    41   19   61 1   
    42   19   62 1   
    43   21   22 1   
    44   21   30 1   
    45   21   63 1   
    46   22   37 1   
    47   22   64 1   
    48   23   24 1   
    49   23   65 1   
    50   23   66 1   
    51   24   25 1   
    52   24   26 1   
    53   27   28 1   
    54   27   29 1   
    55   30   31 1   
    56   30   67 1   
    57   30   68 1   
    58   31   32 ar  
    59   31   36 ar  
    60   32   33 ar  
    61   32   69 1   
    62   33   34 ar  
    63   33   70 1   
    64   34   35 ar  
    65   34   71 1   
    66   35   36 ar  
    67   35   72 1   
    68   36   73 1   
    69   37   38 1   
    70   37   43 2   
    71   38   39 1   
    72   38   74 1   
    73   38   75 1   
    74   39   40 1   
    75   39   76 1   
    76   39   77 1   
    77   40   41 1   
    78   40   42 1   
@<TRIPOS>SUBSTRUCTURE
     1 INX         1 TEMP              0 ****  ****    0 ROOT
