@<TRIPOS>MOLECULE
INY
   38    39     1     0     0
SMALL
bcc


@<TRIPOS>ATOM
      1 CL1         1.4000   -0.2200    6.2400 cl        1 INY     -0.092400
      2 C1          0.5550   -0.0280    4.7780 ca        1 INY      0.019400
      3 C2A        -0.2600   -1.0620    4.3060 ca        1 INY     -0.125000
      4 C3A        -0.9490   -0.9000    3.1050 ca        1 INY     -0.111000
      5 C4         -0.8340    0.2880    2.3770 ca        1 INY     -0.108300
      6 C3B        -0.0140    1.3140    2.8580 ca        1 INY     -0.111000
      7 C2B         0.6810    1.1620    4.0550 ca        1 INY     -0.125000
      8 C5         -1.5990    0.4510    1.0820 c3        1 INY      0.142000
      9 C6         -2.5820    1.6180    1.2240 c3        1 INY     -0.102100
     10 N1         -0.7180    0.6140   -0.0560 n         1 INY     -0.564900
     11 C7         -0.5510   -0.3720   -1.0090 c         1 INY      0.692100
     12 O1         -1.2430   -1.4070   -1.0100 o         1 INY     -0.582100
     13 C8          0.5290   -0.1210   -2.0410 cx        1 INY     -0.165000
     14 C9A         0.1140    0.0710   -3.4910 cx        1 INY      0.109800
     15 CL15        1.0880   -0.5960   -4.7520 cl        1 INY     -0.086900
     16 CL16       -1.5630    0.0380   -3.9090 cl        1 INY     -0.086900
     17 C9B         0.6080    1.2520   -2.6830 cx        1 INY     -0.100700
     18 C17         1.7880   -0.8660   -1.6890 c3        1 INY     -0.046400
     19 C12         1.9070    1.9210   -2.9610 c3        1 INY     -0.079100
     20 H2A        -0.3560   -1.9990    4.8740 ha        1 INY      0.148500
     21 H3A        -1.5830   -1.7180    2.7290 ha        1 INY      0.139500
     22 H3B         0.0800    2.2540    2.2930 ha        1 INY      0.139500
     23 H2B         1.3230    1.9740    4.4280 ha        1 INY      0.148500
     24 H5         -2.2070   -0.4910    0.9010 h1        1 INY      0.097700
     25 H61        -2.0470    2.5830    1.3870 hc        1 INY      0.045367
     26 H62        -3.2160    1.7070    0.3100 hc        1 INY      0.045367
     27 H63        -3.2430    1.4240    2.1030 hc        1 INY      0.045367
     28 H99        -0.0690    1.3630   -0.0180 hn        1 INY      0.307500
     29 H9B        -0.1730    1.9900   -2.3870 hc        1 INY      0.099700
     30 H1          2.5590   -2.8610   -1.3970 hc        1 INY      0.049033
     31 H2          0.7670   -2.7040   -1.1350 hc        1 INY      0.049033
     32 H3          1.4400   -2.6880   -2.8150 hc        1 INY      0.049033
     33 H171        2.0870   -0.5690   -0.6460 hc        1 INY      0.052700
     34 H172        2.6190   -0.5470   -2.3740 hc        1 INY      0.052700
     35 H121        1.7380    2.8280   -3.5950 hc        1 INY      0.051033
     36 H122        2.3800    2.2420   -2.0000 hc        1 INY      0.051033
     37 H123        2.6230    1.2540   -3.5000 hc        1 INY      0.051033
     38 C           1.6280   -2.3640   -1.7620 c3        1 INY     -0.101100
@<TRIPOS>BOND
     1    1    2 1   
     2    2    3 ar  
     3    2    7 ar  
     4    3    4 ar  
     5    3   20 1   
     6    4    5 ar  
     7    4   21 1   
     8    5    6 ar  
     9    5    8 1   
    10    6    7 ar  
    11    6   22 1   
    12    7   23 1   
    13    8    9 1   
    14    8   10 1   
    15    8   24 1   
    16    9   25 1   
    17    9   26 1   
    18    9   27 1   
    19   10   11 1   
    20   10   28 1   
    21   11   12 2   
    22   11   13 1   
    23   13   14 1   
    24   13   17 1   
    25   13   18 1   
    26   14   15 1   
    27   14   16 1   
    28   14   17 1   
    29   17   19 1   
    30   17   29 1   
    31   18   33 1   
    32   18   34 1   
    33   18   38 1   
    34   19   35 1   
    35   19   36 1   
    36   19   37 1   
    37   30   38 1   
    38   31   38 1   
    39   32   38 1   
@<TRIPOS>SUBSTRUCTURE
     1 INY         1 TEMP              0 ****  ****    0 ROOT
