@<TRIPOS>MOLECULE
INY
   39    40     1     0     0
SMALL
bcc


@<TRIPOS>ATOM
      1 Cl1         0.0260   -0.9430    0.1940 cl        1 INY     -0.025400
      2 C1          1.6800   -0.6280    0.0750 ca        1 INY      0.053400
      3 C2A         2.3690   -0.0830    1.1660 ca        1 INY     -0.117000
      4 C3A         3.7340    0.1760    1.0620 ca        1 INY     -0.094000
      5 C4          4.4180   -0.1120   -0.1240 ca        1 INY     -0.192300
      6 C3B         3.7250   -0.6590   -1.2110 ca        1 INY     -0.094000
      7 C2B         2.3610   -0.9170   -1.1170 ca        1 INY     -0.117000
      8 C5          5.8920    0.1440   -0.2000 c3        1 INY      0.199800
      9 C6          6.6680   -1.0880   -0.6400 c3        1 INY     -0.130100
     10 N1          6.1430    1.3200   -1.1320 ny        1 INY     -0.687800
     11 C7          7.5330    1.9060   -0.9830 c         1 INY      0.587100
     12 O1          7.8780    2.2000    0.1480 o         1 INY     -0.387100
     13 C8          8.2540    2.1040   -2.2740 cx        1 INY     -0.220000
     14 C9A         9.6440    1.4750   -2.4210 cx        1 INY      0.116800
     15 Cl15       10.8840    2.3470   -3.2170 cl        1 INY     -0.035400
     16 Cl16       10.2550    0.5230   -1.1150 cl        1 INY     -0.035400
     17 C9B         8.4700    0.9090   -3.1880 cx        1 INY     -0.084700
     18 C           7.7260    4.5340   -1.8460 c3        1 INY     -0.111100
     19 C17         7.9320    3.4500   -2.8730 c3        1 INY     -0.063400
     20 C12         8.3550    1.0450   -4.6650 c3        1 INY     -0.092100
     21 H2A         1.8370    0.1370    2.1060 ha        1 INY      0.172500
     22 H3A         4.2700    0.5970    1.9290 ha        1 INY      0.142500
     23 H3B         4.2550   -0.9070   -2.1440 ha        1 INY      0.142500
     24 H2B         1.8200   -1.3520   -1.9730 ha        1 INY      0.172500
     25 H5          6.2780    0.4760    0.8160 hx        1 INY      0.122700
     26 H61         6.4410   -1.9130    0.0840 hc        1 INY      0.078367
     27 H62         6.3680   -1.4320   -1.6600 hc        1 INY      0.078367
     28 H63         7.7690   -0.8980   -0.6220 hc        1 INY      0.078367
     29 H99         5.4540    2.0500   -0.9120 hn        1 INY      0.457300
     30 H9B         8.0910   -0.0780   -2.8320 hc        1 INY      0.094700
     31 H1          7.6050    5.5200   -2.3590 hc        1 INY      0.055367
     32 H2          6.8080    4.3450   -1.2370 hc        1 INY      0.055367
     33 H3          8.6000    4.6030   -1.1530 hc        1 INY      0.055367
     34 H171        8.7700    3.7570   -3.5600 hc        1 INY      0.079200
     35 H172        7.0130    3.3390   -3.5100 hc        1 INY      0.079200
     36 H121        7.2880    0.9340   -4.9800 hc        1 INY      0.069700
     37 H122        8.7300    2.0340   -5.0270 hc        1 INY      0.069700
     38 H123        8.9580    0.2410   -5.1610 hc        1 INY      0.069700
     39 H12         5.9980    1.0180   -2.1000 hn        1 INY      0.457300
@<TRIPOS>BOND
     1    1    2 1   
     2    2    3 ar  
     3    2    7 ar  
     4    3    4 ar  
     5    3   21 1   
     6    4    5 ar  
     7    4   22 1   
     8    5    6 ar  
     9    5    8 1   
    10    6    7 ar  
    11    6   23 1   
    12    7   24 1   
    13    8    9 1   
    14    8   10 1   
    15    8   25 1   
    16    9   26 1   
    17    9   27 1   
    18    9   28 1   
    19   10   11 1   
    20   10   29 1   
    21   10   39 1   
    22   11   12 2   
    23   11   13 1   
    24   13   14 1   
    25   13   17 1   
    26   13   19 1   
    27   14   15 1   
    28   14   16 1   
    29   14   17 1   
    30   17   20 1   
    31   17   30 1   
    32   18   19 1   
    33   18   31 1   
    34   18   32 1   
    35   18   33 1   
    36   19   34 1   
    37   19   35 1   
    38   20   36 1   
    39   20   37 1   
    40   20   38 1   
@<TRIPOS>SUBSTRUCTURE
     1 INY         1 TEMP              0 ****  ****    0 ROOT
