@<TRIPOS>MOLECULE
INY
   39    40     1     0     0
SMALL
bcc


@<TRIPOS>ATOM
      1 CL1         2.1140   -0.5520    0.9560 cl        1 INY     -0.089400
      2 C1          3.1810    0.7310    1.3170 ce        1 INY     -0.019600
      3 C2A         3.3490    1.1650    2.5690 c2        1 INY     -0.155000
      4 C3A         5.0320    0.6110   -0.3250 ce        1 INY      0.125100
      5 C4          5.3910   -0.6640   -0.1060 c2        1 INY     -0.221200
      6 C3B         3.3840    2.4320   -0.4450 c2        1 INY     -0.098000
      7 C2B         3.8490    1.3230    0.1500 ce        1 INY     -0.078000
      8 C5          6.6550   -1.2540   -0.6470 c3        1 INY      0.062200
      9 C6          6.3600   -2.5500   -1.3990 c3        1 INY     -0.122100
     10 N1          7.3850   -0.2830   -1.4810 nh        1 INY     -0.317100
     11 C7          6.9710    0.9650   -1.6790 c2        1 INY      0.598600
     12 O1          5.8480    1.4660   -1.1200 os        1 INY     -0.274700
     13 C8          7.6990    1.9390   -2.5590 cx        1 INY     -0.212300
     14 C9A         8.3930    3.1290   -1.8940 cx        1 INY      0.110800
     15 CL15        8.3550    4.6580   -2.6670 cl        1 INY     -0.040900
     16 CL16        8.3100    3.2650   -0.1720 cl        1 INY     -0.040900
     17 C9B         9.2170    1.9880   -2.4470 cx        1 INY     -0.070700
     18 C17         7.0270    2.0670   -3.9020 c3        1 INY     -0.056400
     19 C12        10.0780    2.1350   -3.6530 c3        1 INY     -0.093100
     20 H2A         4.0290    1.9950    2.8070 ha        1 INY      0.146000
     21 H3A         2.8170    0.7260    3.4260 ha        1 INY      0.146000
     22 H3B         4.7610   -1.3430    0.4930 ha        1 INY      0.209000
     23 H2B         2.4820    2.9480   -0.0830 ha        1 INY      0.146000
     24 H5          3.8750    2.8830   -1.3200 ha        1 INY      0.146000
     25 H61         7.3460   -1.4920    0.2260 h1        1 INY      0.105700
     26 H62         5.8860   -3.2670   -0.6830 hc        1 INY      0.075367
     27 H63         5.6560   -2.3810   -2.2480 hc        1 INY      0.075367
     28 H99         7.3000   -3.0110   -1.7890 hc        1 INY      0.075367
     29 H9B         9.6940    1.3250   -1.6880 hc        1 INY      0.100700
     30 H1          4.9560    2.0730   -3.2270 hc        1 INY      0.055367
     31 H2          5.7090    3.7140   -3.3780 hc        1 INY      0.055367
     32 H3          5.2410    2.7900   -4.8670 hc        1 INY      0.055367
     33 H171        7.6840    2.6900   -4.5710 hc        1 INY      0.076700
     34 H172        6.9590    1.0470   -4.3680 hc        1 INY      0.076700
     35 H121        9.7680    2.9950   -4.2960 hc        1 INY      0.071367
     36 H122       10.0400    1.2010   -4.2670 hc        1 INY      0.071367
     37 H123       11.1370    2.3090   -3.3340 hc        1 INY      0.071367
     38 C           5.6580    2.6950   -3.8340 c3        1 INY     -0.106100
     39 H12         8.2070   -0.6160   -1.9500 hn        1 INY      0.338700
@<TRIPOS>BOND
     1    1    2 1   
     2    2    3 2   
     3    2    7 1   
     4    3   20 1   
     5    3   21 1   
     6    4    5 2   
     7    4    7 1   
     8    4   12 1   
     9    5    8 1   
    10    5   22 1   
    11    6    7 2   
    12    6   23 1   
    13    6   24 1   
    14    8    9 1   
    15    8   10 1   
    16    8   25 1   
    17    9   26 1   
    18    9   27 1   
    19    9   28 1   
    20   10   11 2   
    21   10   39 1   
    22   11   12 1   
    23   11   13 1   
    24   13   14 1   
    25   13   17 1   
    26   13   18 1   
    27   14   15 1   
    28   14   16 1   
    29   14   17 1   
    30   17   19 1   
    31   17   29 1   
    32   18   33 1   
    33   18   34 1   
    34   18   38 1   
    35   19   35 1   
    36   19   36 1   
    37   19   37 1   
    38   30   38 1   
    39   31   38 1   
    40   32   38 1   
@<TRIPOS>SUBSTRUCTURE
     1 INY         1 TEMP              0 ****  ****    0 ROOT
