@<TRIPOS>MOLECULE
INY
   39    40     1     0     0
SMALL
bcc


@<TRIPOS>ATOM
      1 CL1         0.0450   -0.9350    0.2710 cl        1 INY     -0.025400
      2 C1          1.6980   -0.6260    0.1300 ca        1 INY      0.053400
      3 C2A         2.4060   -0.0930    1.2150 ca        1 INY     -0.117000
      4 C3A         3.7690    0.1630    1.0940 ca        1 INY     -0.094000
      5 C4          4.4350   -0.1170   -0.1060 ca        1 INY     -0.193300
      6 C3B         3.7230   -0.6530   -1.1870 ca        1 INY     -0.094000
      7 C2B         2.3600   -0.9060   -1.0740 ca        1 INY     -0.117000
      8 C5          5.9080    0.1340   -0.2010 c3        1 INY      0.199800
      9 C6          6.6730   -1.0970   -0.6640 c3        1 INY     -0.130100
     10 N1          6.1490    1.3170   -1.1260 n4        1 INY     -0.687800
     11 C7          7.5440    1.8970   -0.9940 c         1 INY      0.587100
     12 O1          7.9070    2.1790    0.1350 o         1 INY     -0.387100
     13 C8          8.2450    2.1040   -2.2940 cx        1 INY     -0.220000
     14 C9A         9.6310    1.4710   -2.4680 cx        1 INY      0.116800
     15 CL15       10.8620    2.3450   -3.2760 cl        1 INY     -0.035400
     16 CL16       10.2590    0.5050   -1.1800 cl        1 INY     -0.035400
     17 C9B         8.4420    0.9160   -3.2210 cx        1 INY     -0.084700
     18 C           7.7400    4.5330   -1.8360 c3        1 INY     -0.111100
     19 C17         7.9200    3.4570   -2.8760 c3        1 INY     -0.063400
     20 C12         8.3060    1.0650   -4.6960 c3        1 INY     -0.092100
     21 H2A         1.8880    0.1210    2.1660 ha        1 INY      0.172500
     22 H3A         4.3200    0.5740    1.9560 ha        1 INY      0.142500
     23 H3B         4.2380   -0.8940   -2.1300 ha        1 INY      0.142500
     24 H2B         1.8050   -1.3320   -1.9260 ha        1 INY      0.172500
     25 H5          6.3100    0.4550    0.8120 hx        1 INY      0.122700
     26 H61         6.3560   -1.4300   -1.6820 hc        1 INY      0.078367
     27 H62         6.4540   -1.9270    0.0560 hc        1 INY      0.078367
     28 H63         7.7750   -0.9110   -0.6610 hc        1 INY      0.078367
     29 H99         5.4670    2.0490   -0.8890 hn        1 INY      0.457300
     30 H9B         8.0660   -0.0730   -2.8690 hc        1 INY      0.094700
     31 H1          6.8330    4.3430   -1.2100 hc        1 INY      0.055367
     32 H2          7.6140    5.5240   -2.3390 hc        1 INY      0.055367
     33 H3          8.6280    4.5920   -1.1610 hc        1 INY      0.055367
     34 H171        8.7450    3.7640   -3.5770 hc        1 INY      0.079200
     35 H172        6.9870    3.3550   -3.4950 hc        1 INY      0.079200
     36 H121        8.8970    0.2640   -5.2080 hc        1 INY      0.069700
     37 H122        8.6780    2.0560   -5.0550 hc        1 INY      0.069700
     38 H123        7.2330    0.9610   -4.9950 hc        1 INY      0.069700
     39 H12         5.9890    1.0250   -2.0940 hn        1 INY      0.457300
@<TRIPOS>BOND
     1    1    2 1   
     2    2    3 ar  
     3    2    7 ar  
     4    3    4 ar  
     5    3   21 1   
     6    4    5 ar  
     7    4   22 1   
     8    5    6 ar  
     9    5    8 1   
    10    6    7 ar  
    11    6   23 1   
    12    7   24 1   
    13    8    9 1   
    14    8   10 1   
    15    8   25 1   
    16    9   26 1   
    17    9   27 1   
    18    9   28 1   
    19   10   11 1   
    20   10   29 1   
    21   10   39 1   
    22   11   12 2   
    23   11   13 1   
    24   13   14 1   
    25   13   17 1   
    26   13   19 1   
    27   14   15 1   
    28   14   16 1   
    29   14   17 1   
    30   17   20 1   
    31   17   30 1   
    32   18   19 1   
    33   18   31 1   
    34   18   32 1   
    35   18   33 1   
    36   19   34 1   
    37   19   35 1   
    38   20   36 1   
    39   20   37 1   
    40   20   38 1   
@<TRIPOS>SUBSTRUCTURE
     1 INY         1 TEMP              0 ****  ****    0 ROOT
