@<TRIPOS>MOLECULE
INZ
   72    73     1     0     0
SMALL
bcc


@<TRIPOS>ATOM
      1 C1          0.0000    0.0000    0.0000 c         1 INZ      0.939600
      2 O2          1.2090    0.0000    0.0000 o         1 INZ     -0.575550
      3 O3         -0.6710    0.0000    1.1630 o         1 INZ     -0.575550
      4 C4          0.3310    1.2970   -2.7720 ca        1 INZ      0.033100
      5 C5          1.4740    1.9950   -2.4140 ca        1 INZ     -0.086500
      6 C6         -0.4950    3.2410   -3.9070 ca        1 INZ     -0.049000
      7 C7          0.6490    3.9330   -3.5520 ca        1 INZ     -0.265300
      8 C8          1.6300    3.3110   -2.8040 ca        1 INZ     -0.049000
      9 C9         -0.6530    1.9230   -3.5250 ca        1 INZ     -0.086500
     10 C10        -0.7540    0.0020   -1.3050 c3        1 INZ      0.069100
     11 C11         0.8210    5.3680   -3.9770 c3        1 INZ      0.052900
     12 C12         1.5280    5.4170   -5.3320 c3        1 INZ     -0.071500
     13 O13         0.1750    0.0030   -2.3910 os        1 INZ     -0.224900
     14 C14        -1.6200   -1.2280   -1.3850 c         1 INZ      0.939600
     15 O15        -1.4600   -2.0220   -2.2810 o         1 INZ     -0.575550
     16 O16        -2.5710   -1.4400   -0.4620 o         1 INZ     -0.575550
     17 N17         2.8420    4.7790   -5.2220 ny        1 INZ      0.006200
     18 C18         1.7010    6.8520   -5.7570 c         1 INZ      0.221100
     19 C19         3.3830    4.1630   -6.2890 c         1 INZ     -0.083900
     20 N20         2.8120    7.5300   -5.4060 ny        1 INZ      0.134200
     21 O21         0.8400    7.3980   -6.4130 o         1 INZ     -0.496100
     22 C22         2.9800    8.9260   -5.8190 c3        1 INZ     -0.019200
     23 C23         4.3160    9.4550   -5.2950 c3        1 INZ     -0.038400
     24 C24         4.4910   10.9120   -5.7270 c3        1 INZ     -0.020400
     25 C25         5.8270   11.4420   -5.2020 c3        1 INZ     -0.025400
     26 C26         6.0030   12.9000   -5.6330 c3        1 INZ      0.008900
     27 O27         2.7810    4.1360   -7.3460 o         1 INZ     -0.545100
     28 N28         4.5910    3.5750   -6.1890 ny        1 INZ      0.192200
     29 C29         5.1800    2.9050   -7.3500 c3        1 INZ     -0.159500
     30 C30         6.7050    2.9910   -7.2700 c3        1 INZ      0.038900
     31 C31         4.7600    1.4580   -7.3620 c         1 INZ      0.956600
     32 O32         4.5100    0.8230   -6.2060 o         1 INZ     -0.803300
     33 O33         4.6450    0.8700   -8.4110 o         1 INZ     -0.803300
     34 C34         7.1270    4.4380   -7.2580 ca        1 INZ     -0.119300
     35 C35         7.2570    5.1100   -6.0580 ca        1 INZ     -0.109000
     36 C36         7.6440    6.4370   -6.0460 ca        1 INZ     -0.098000
     37 C37         7.9010    7.0920   -7.2360 ca        1 INZ     -0.105000
     38 C38         7.7720    6.4190   -8.4370 ca        1 INZ     -0.098000
     39 C39         7.3890    5.0910   -8.4470 ca        1 INZ     -0.109000
     40 HC5         1.8470    1.1190   -1.8980 ha        1 INZ      0.175500
     41 HC6        -0.8680    4.1190   -4.4200 ha        1 INZ      0.110500
     42 HC8         2.2180    4.2210   -2.8180 ha        1 INZ      0.110500
     43 HC9        -1.2410    1.0130   -3.5120 ha        1 INZ      0.175500
     44 HC10       -1.3760    0.8870   -1.3610 h1        1 INZ      0.046700
     45 H111        1.4170    5.8940   -3.2400 hc        1 INZ      0.035200
     46 H112       -0.1500    5.8400   -4.0590 hc        1 INZ      0.035200
     47 HC12        0.9330    4.8920   -6.0690 hx        1 INZ      0.138700
     48 HN17        3.4880    5.4890   -4.9380 hn        1 INZ      0.171800
     49 HN20        3.5910    7.0220   -5.7760 hn        1 INZ      0.227800
     50 H221        2.1710    9.5220   -5.4130 hx        1 INZ      0.082700
     51 H222        2.9660    8.9870   -6.9000 hx        1 INZ      0.082700
     52 H231        5.1240    8.8580   -5.7010 hc        1 INZ      0.025700
     53 H232        4.3300    9.3940   -4.2140 hc        1 INZ      0.025700
     54 H241        3.6820   11.5080   -5.3220 hc        1 INZ      0.027200
     55 H242        4.4780   10.9730   -6.8080 hc        1 INZ      0.027200
     56 H251        6.6360   10.8460   -5.6070 hc        1 INZ      0.014700
     57 H252        5.8400   11.3810   -4.1210 hc        1 INZ      0.014700
     58 H261        5.1940   13.4960   -5.2290 hc        1 INZ      0.007700
     59 H262        5.9910   12.9610   -6.7150 hc        1 INZ      0.007700
     60 H263        6.9490   13.2750   -5.2620 hc        1 INZ      0.007700
     61 HN28        5.2370    4.2850   -5.9040 hn        1 INZ      0.230800
     62 HC29        4.8380    3.3880   -8.2570 hx        1 INZ      0.096700
     63 H301        7.1400    2.4960   -8.1290 hc        1 INZ      0.057200
     64 H302        7.0470    2.5080   -6.3630 hc        1 INZ      0.057200
     65 HC35        7.1170    4.5800   -5.1230 ha        1 INZ      0.116000
     66 HC36        7.7450    6.9640   -5.1050 ha        1 INZ      0.108000
     67 HC37        8.2020    8.1320   -7.2270 ha        1 INZ      0.107000
     68 HC38        8.0010    6.9240   -9.3680 ha        1 INZ      0.108000
     69 HC39        7.2880    4.5640   -9.3880 ha        1 INZ      0.116000
     70 H172        2.7730    4.0940   -4.4950 hn        1 INZ      0.171800
     71 H202        2.8600    7.5130   -4.4070 hn        1 INZ      0.227800
     72 H282        4.5220    2.8910   -5.4610 hn        1 INZ      0.230800
@<TRIPOS>BOND
     1    1    2 1   
     2    1    3 1   
     3    1   10 1   
     4    4    5 ar  
     5    4    9 ar  
     6    4   13 1   
     7    5    8 ar  
     8    5   40 1   
     9    6    7 ar  
    10    6    9 ar  
    11    6   41 1   
    12    7    8 ar  
    13    7   11 1   
    14    8   42 1   
    15    9   43 1   
    16   10   13 1   
    17   10   14 1   
    18   10   44 1   
    19   11   12 1   
    20   11   45 1   
    21   11   46 1   
    22   12   17 1   
    23   12   18 1   
    24   12   47 1   
    25   14   15 1   
    26   14   16 1   
    27   17   19 1   
    28   17   48 1   
    29   17   70 1   
    30   18   20 1   
    31   18   21 2   
    32   19   27 2   
    33   19   28 1   
    34   20   22 1   
    35   20   49 1   
    36   20   71 1   
    37   22   23 1   
    38   22   50 1   
    39   22   51 1   
    40   23   24 1   
    41   23   52 1   
    42   23   53 1   
    43   24   25 1   
    44   24   54 1   
    45   24   55 1   
    46   25   26 1   
    47   25   56 1   
    48   25   57 1   
    49   26   58 1   
    50   26   59 1   
    51   26   60 1   
    52   28   29 1   
    53   28   61 1   
    54   28   72 1   
    55   29   30 1   
    56   29   31 1   
    57   29   62 1   
    58   30   34 1   
    59   30   63 1   
    60   30   64 1   
    61   31   32 1   
    62   31   33 1   
    63   34   35 ar  
    64   34   39 ar  
    65   35   36 ar  
    66   35   65 1   
    67   36   37 ar  
    68   36   66 1   
    69   37   38 ar  
    70   37   67 1   
    71   38   39 ar  
    72   38   68 1   
    73   39   69 1   
@<TRIPOS>SUBSTRUCTURE
     1 INZ         1 TEMP              0 ****  ****    0 ROOT
