@<TRIPOS>MOLECULE
INZ
   69    70     1     0     0
SMALL
bcc


@<TRIPOS>ATOM
      1 C1          1.8580   -0.0940   -8.3620 c         1 INZ      0.923100
      2 O2          2.9420   -0.1590   -9.0220 o         1 INZ     -0.859800
      3 O3          0.7930   -0.6440   -8.7540 o         1 INZ     -0.859800
      4 C4          1.0640    0.0680   -4.8270 ca        1 INZ      0.190100
      5 C5          2.0140    0.8550   -4.1390 ca        1 INZ     -0.210500
      6 C6          2.1200    0.7520   -2.7640 ca        1 INZ     -0.105500
      7 C7          1.3030   -0.1180   -2.0170 ca        1 INZ     -0.196300
      8 C8          0.3410   -0.8670   -2.6980 ca        1 INZ     -0.105500
      9 C9          0.2130   -0.7800   -4.0800 ca        1 INZ     -0.210500
     10 C10         1.9380    0.6260   -6.9920 c3        1 INZ     -0.079900
     11 C11         1.5660   -0.1870   -0.5580 c3        1 INZ     -0.017100
     12 C12         0.7120   -1.1670    0.2740 c3        1 INZ      0.064700
     13 O13         0.8830    0.0550   -6.1730 os        1 INZ     -0.271900
     14 C14         1.8410    2.1700   -7.0260 c         1 INZ      0.923100
     15 O15         2.8040    2.8030   -6.4790 o         1 INZ     -0.859800
     16 O16         0.8550    2.7660   -7.5360 o         1 INZ     -0.859800
     17 N17        -0.6250   -0.6790    0.5040 n         1 INZ     -0.586900
     18 C18         1.5350   -1.4420    1.5570 c         1 INZ      0.667100
     19 C19        -1.4160   -1.0960    1.5840 c         1 INZ      0.746100
     20 N20         1.5930   -0.4490    2.5310 n         1 INZ     -0.524900
     21 O21         2.2410   -2.4680    1.6270 o         1 INZ     -0.629100
     22 C22         2.2120   -0.7650    3.7970 c3        1 INZ      0.078000
     23 C23         2.3970    0.4600    4.6920 c3        1 INZ     -0.095400
     24 C24         3.1490    0.0710    5.9470 c3        1 INZ     -0.074400
     25 C25         3.3210    1.2570    6.8720 c3        1 INZ     -0.082400
     26 C26         4.0660    0.8800    8.1260 c3        1 INZ     -0.089100
     27 O27        -0.8990   -1.8010    2.4940 o         1 INZ     -0.687100
     28 N28        -2.7220   -0.5810    1.6870 n         1 INZ     -0.512900
     29 C29        -3.5590   -1.0020    2.7960 c3        1 INZ     -0.049300
     30 C30        -3.9480    0.1840    3.6990 c3        1 INZ     -0.042100
     31 C31        -4.9130   -1.6650    2.3430 c         1 INZ      0.906600
     32 O32        -5.6110   -2.1780    3.2610 o         1 INZ     -0.833800
     33 O33        -5.2270   -1.6370    1.1230 o         1 INZ     -0.833800
     34 C34        -2.8320    0.6950    4.5360 ca        1 INZ     -0.032300
     35 C35        -2.2200    1.9230    4.2510 ca        1 INZ     -0.127500
     36 C36        -1.1940    2.4080    5.0600 ca        1 INZ     -0.140000
     37 C37        -0.7660    1.6740    6.1650 ca        1 INZ     -0.166000
     38 C38        -1.3670    0.4480    6.4550 ca        1 INZ     -0.140000
     39 C39        -2.3900   -0.0400    5.6460 ca        1 INZ     -0.127500
     40 HC5         2.6410    1.5680   -4.7140 ha        1 INZ      0.172000
     41 HC6         2.8640    1.3670   -2.2360 ha        1 INZ      0.101000
     42 HC8        -0.3240   -1.5500   -2.1490 ha        1 INZ      0.101000
     43 HC9        -0.5440   -1.3700   -4.6140 ha        1 INZ      0.172000
     44 HC10        2.9300    0.3520   -6.5350 h1        1 INZ      0.030700
     45 H111        1.4720    0.8440   -0.1190 hc        1 INZ      0.045200
     46 H112        2.6380   -0.5070   -0.4190 hc        1 INZ      0.045200
     47 HC12        0.6610   -2.1630   -0.2640 h1        1 INZ      0.075700
     48 HN17       -1.0360   -0.2040   -0.2670 hn        1 INZ      0.328500
     49 HN20        0.7820    0.1290    2.6040 hn        1 INZ      0.307500
     50 H221        3.2170   -1.2280    3.5800 h1        1 INZ      0.044700
     51 H222        1.6020   -1.5340    4.3560 h1        1 INZ      0.044700
     52 H231        1.3940    0.8850    4.9700 hc        1 INZ      0.050700
     53 H232        2.9630    1.2580    4.1460 hc        1 INZ      0.050700
     54 H241        4.1560   -0.3400    5.6720 hc        1 INZ      0.037200
     55 H242        2.5930   -0.7450    6.4810 hc        1 INZ      0.037200
     56 H251        2.3110    1.6660    7.1420 hc        1 INZ      0.039200
     57 H252        3.8740    2.0720    6.3350 hc        1 INZ      0.039200
     58 H261        4.1820    1.7670    8.7940 hc        1 INZ      0.024033
     59 H262        3.5160    0.0860    8.6870 hc        1 INZ      0.024033
     60 H263        5.0830    0.4910    7.8770 hc        1 INZ      0.024033
     61 HN28       -3.2410   -0.5150    0.8300 hn        1 INZ      0.317500
     62 HC29       -3.0130   -1.7630    3.4250 h1        1 INZ      0.076700
     63 H301       -4.3710    1.0130    3.0730 hc        1 INZ      0.060200
     64 H302       -4.7700   -0.1930    4.3700 hc        1 INZ      0.060200
     65 HC35       -2.5450    2.4960    3.3690 ha        1 INZ      0.138500
     66 HC36       -0.7160    3.3670    4.8190 ha        1 INZ      0.111500
     67 HC37        0.0470    2.0530    6.7990 ha        1 INZ      0.106000
     68 HC38       -1.0220   -0.1410    7.3170 ha        1 INZ      0.111500
     69 HC39       -2.8510   -1.0170    5.8580 ha        1 INZ      0.138500
@<TRIPOS>BOND
     1    1    2 1   
     2    1    3 1   
     3    1   10 1   
     4    4    5 ar  
     5    4    9 ar  
     6    4   13 1   
     7    5    6 ar  
     8    5   40 1   
     9    6    7 ar  
    10    6   41 1   
    11    7    8 ar  
    12    7   11 1   
    13    8    9 ar  
    14    8   42 1   
    15    9   43 1   
    16   10   13 1   
    17   10   14 1   
    18   10   44 1   
    19   11   12 1   
    20   11   45 1   
    21   11   46 1   
    22   12   17 1   
    23   12   18 1   
    24   12   47 1   
    25   14   15 1   
    26   14   16 1   
    27   17   19 1   
    28   17   48 1   
    29   18   20 1   
    30   18   21 2   
    31   19   27 2   
    32   19   28 1   
    33   20   22 1   
    34   20   49 1   
    35   22   23 1   
    36   22   50 1   
    37   22   51 1   
    38   23   24 1   
    39   23   52 1   
    40   23   53 1   
    41   24   25 1   
    42   24   54 1   
    43   24   55 1   
    44   25   26 1   
    45   25   56 1   
    46   25   57 1   
    47   26   58 1   
    48   26   59 1   
    49   26   60 1   
    50   28   29 1   
    51   28   61 1   
    52   29   30 1   
    53   29   31 1   
    54   29   62 1   
    55   30   34 1   
    56   30   63 1   
    57   30   64 1   
    58   31   32 1   
    59   31   33 1   
    60   34   35 ar  
    61   34   39 ar  
    62   35   36 ar  
    63   35   65 1   
    64   36   37 ar  
    65   36   66 1   
    66   37   38 ar  
    67   37   67 1   
    68   38   39 ar  
    69   38   68 1   
    70   39   69 1   
@<TRIPOS>SUBSTRUCTURE
     1 INZ         1 TEMP              0 ****  ****    0 ROOT
