@<TRIPOS>MOLECULE
INZ
   69    70     1     0     0
SMALL
bcc


@<TRIPOS>ATOM
      1 C1          1.5820    0.3700   -0.8260 c         1 INZ      0.923100
      2 O2          2.7450    0.7300   -1.1890 o         1 INZ     -0.859800
      3 O3          1.2440    0.2930    0.3870 o         1 INZ     -0.859800
      4 C4         -1.7340    0.7580   -2.2430 ca        1 INZ      0.190100
      5 C5         -1.6880    0.6530   -3.6510 ca        1 INZ     -0.210500
      6 C6         -2.7460    1.1250   -4.4070 ca        1 INZ     -0.105500
      7 C7         -3.8800    1.7130   -3.8140 ca        1 INZ     -0.196300
      8 C8         -3.9360    1.7820   -2.4210 ca        1 INZ     -0.105500
      9 C9         -2.8860    1.3120   -1.6390 ca        1 INZ     -0.210500
     10 C10         0.5630    0.1160   -1.9660 c3        1 INZ     -0.079900
     11 C11        -4.9120    2.2450   -4.7390 c3        1 INZ     -0.017100
     12 C12        -6.1430    2.9340   -4.1130 c3        1 INZ      0.064700
     13 O13        -0.7500    0.3600   -1.3960 os        1 INZ     -0.271900
     14 C14         0.6270   -1.2740   -2.6410 c         1 INZ      0.923100
     15 O15         0.7840   -1.2750   -3.9060 o         1 INZ     -0.859800
     16 O16         0.5000   -2.3420   -1.9840 o         1 INZ     -0.859800
     17 N17        -7.0800    1.9920   -3.5550 n         1 INZ     -0.586900
     18 C18        -6.7170    3.8430   -5.2270 c         1 INZ      0.667100
     19 C19        -8.4420    2.2800   -3.3810 c         1 INZ      0.746100
     20 N20        -7.4120    3.2450   -6.2750 n         1 INZ     -0.524900
     21 O21        -6.4230    5.0550   -5.2470 o         1 INZ     -0.629100
     22 C22        -8.0940    4.0980   -7.2200 c3        1 INZ      0.078000
     23 C23        -8.6380    3.3340   -8.4270 c3        1 INZ     -0.095400
     24 C24        -9.2370    4.3040   -9.4220 c3        1 INZ     -0.074400
     25 C25        -9.8150    3.5750  -10.6170 c3        1 INZ     -0.082400
     26 C26       -10.4170    4.5320  -11.6130 c3        1 INZ     -0.089100
     27 O27        -8.9180    3.3390   -3.8750 o         1 INZ     -0.687100
     28 N28        -9.2570    1.2960   -2.7890 n         1 INZ     -0.512900
     29 C29       -10.6690    1.5750   -2.5970 c3        1 INZ     -0.049300
     30 C30       -11.5570    0.6010   -3.3950 c3        1 INZ     -0.042100
     31 C31       -11.1330    1.4570   -1.0980 c         1 INZ      0.906600
     32 O32       -12.3140    1.8290   -0.8540 o         1 INZ     -0.833800
     33 O33       -10.3270    0.9980   -0.2450 o         1 INZ     -0.833800
     34 C34       -11.5520    0.8430   -4.8610 ca        1 INZ     -0.032300
     35 C35       -10.8910   -0.0300   -5.7330 ca        1 INZ     -0.127500
     36 C36       -10.9180    0.1890   -7.1100 ca        1 INZ     -0.140000
     37 C37       -11.6070    1.2830   -7.6320 ca        1 INZ     -0.166000
     38 C38       -12.2640    2.1610   -6.7700 ca        1 INZ     -0.140000
     39 C39       -12.2360    1.9450   -5.3940 ca        1 INZ     -0.127500
     40 HC5        -0.8150    0.1620   -4.1270 ha        1 INZ      0.172000
     41 HC6        -2.7020    1.0410   -5.5040 ha        1 INZ      0.101000
     42 HC8        -4.8090    2.2240   -1.9200 ha        1 INZ      0.101000
     43 HC9        -2.9320    1.3670   -0.5430 ha        1 INZ      0.172000
     44 HC10        0.7560    0.8940   -2.7570 h1        1 INZ      0.030700
     45 H111       -4.4180    3.0180   -5.3940 hc        1 INZ      0.045200
     46 H112       -5.2610    1.4170   -5.4150 hc        1 INZ      0.045200
     47 HC12       -5.7960    3.6450   -3.3000 h1        1 INZ      0.075700
     48 HN17       -6.6680    1.2130   -3.0940 hn        1 INZ      0.328500
     49 HN20       -7.9100    2.4130   -6.0400 hn        1 INZ      0.307500
     50 H221       -7.3590    4.8780   -7.5690 h1        1 INZ      0.044700
     51 H222       -8.9490    4.6410   -6.7210 h1        1 INZ      0.044700
     52 H231       -9.4230    2.6010   -8.0940 hc        1 INZ      0.050700
     53 H232       -7.8170    2.7490   -8.9180 hc        1 INZ      0.050700
     54 H241       -8.4510    5.0260   -9.7670 hc        1 INZ      0.037200
     55 H242      -10.0430    4.9050   -8.9230 hc        1 INZ      0.037200
     56 H251      -10.5990    2.8520  -10.2670 hc        1 INZ      0.039200
     57 H252       -9.0090    2.9730  -11.1130 hc        1 INZ      0.039200
     58 H261      -10.8370    3.9760  -12.4860 hc        1 INZ      0.024033
     59 H262      -11.2390    5.1240  -11.1430 hc        1 INZ      0.024033
     60 H263       -9.6450    5.2470  -11.9890 hc        1 INZ      0.024033
     61 HN28       -8.8630    0.8050   -2.0080 hn        1 INZ      0.317500
     62 HC29      -10.9050    2.6260   -2.9340 h1        1 INZ      0.076700
     63 H301      -11.2470   -0.4550   -3.1780 hc        1 INZ      0.060200
     64 H302      -12.6020    0.7400   -3.0000 hc        1 INZ      0.060200
     65 HC35      -10.3330   -0.8850   -5.3230 ha        1 INZ      0.138500
     66 HC36      -10.3860   -0.4970   -7.7830 ha        1 INZ      0.111500
     67 HC37      -11.6220    1.4600   -8.7160 ha        1 INZ      0.106000
     68 HC38      -12.7960    3.0330   -7.1760 ha        1 INZ      0.111500
     69 HC39      -12.7360    2.6470   -4.7090 ha        1 INZ      0.138500
@<TRIPOS>BOND
     1    1    2 1   
     2    1    3 1   
     3    1   10 1   
     4    4    5 ar  
     5    4    9 ar  
     6    4   13 1   
     7    5    6 ar  
     8    5   40 1   
     9    6    7 ar  
    10    6   41 1   
    11    7    8 ar  
    12    7   11 1   
    13    8    9 ar  
    14    8   42 1   
    15    9   43 1   
    16   10   13 1   
    17   10   14 1   
    18   10   44 1   
    19   11   12 1   
    20   11   45 1   
    21   11   46 1   
    22   12   17 1   
    23   12   18 1   
    24   12   47 1   
    25   14   15 1   
    26   14   16 1   
    27   17   19 1   
    28   17   48 1   
    29   18   20 1   
    30   18   21 2   
    31   19   27 2   
    32   19   28 1   
    33   20   22 1   
    34   20   49 1   
    35   22   23 1   
    36   22   50 1   
    37   22   51 1   
    38   23   24 1   
    39   23   52 1   
    40   23   53 1   
    41   24   25 1   
    42   24   54 1   
    43   24   55 1   
    44   25   26 1   
    45   25   56 1   
    46   25   57 1   
    47   26   58 1   
    48   26   59 1   
    49   26   60 1   
    50   28   29 1   
    51   28   61 1   
    52   29   30 1   
    53   29   31 1   
    54   29   62 1   
    55   30   34 1   
    56   30   63 1   
    57   30   64 1   
    58   31   32 1   
    59   31   33 1   
    60   34   35 ar  
    61   34   39 ar  
    62   35   36 ar  
    63   35   65 1   
    64   36   37 ar  
    65   36   66 1   
    66   37   38 ar  
    67   37   67 1   
    68   38   39 ar  
    69   38   68 1   
    70   39   69 1   
@<TRIPOS>SUBSTRUCTURE
     1 INZ         1 TEMP              0 ****  ****    0 ROOT
