@<TRIPOS>MOLECULE
INZ
   69    64     1     0     0
SMALL
bcc


@<TRIPOS>ATOM
      1 C1          6.5070    3.3610    0.4580 c1        1 INZ      0.324000
      2 O2          6.7540    4.1390   -0.5120 os        1 INZ     -0.596000
      3 O3          6.5520    3.7950    1.6400 o         1 INZ     -0.602000
      4 C4          3.9190    1.0320    0.0110 c1        1 INZ      0.177000
      5 C5          3.6910   -0.3210    0.0310 c1        1 INZ     -0.154500
      6 C6          2.6360   -0.8630   -0.7190 c1        1 INZ     -0.154500
      7 C7          1.8290   -0.0300   -1.4760 c1        1 INZ     -0.209000
      8 C8          2.0650    1.3390   -1.4910 c1        1 INZ     -0.093000
      9 C9          3.0990    1.8700   -0.7570 c1        1 INZ     -0.218000
     10 C10         6.1340    1.9090    0.1940 c3        1 INZ     -0.088000
     11 C11         0.7460   -0.6300   -2.3810 c3        1 INZ     -0.094000
     12 C12        -0.6380   -0.2410   -1.8640 c3        1 INZ     -0.007000
     13 O13         4.9260    1.6020    0.8610 os        1 INZ     -0.160000
     14 C14         7.2350    1.0030    0.7040 c2        1 INZ      0.361000
     15 O15         7.9670    0.3980   -0.1050 o         1 INZ     -0.586500
     16 O16         7.4500    0.9040    1.9570 o         1 INZ     -0.586500
     17 N17        -1.3210   -1.3890   -1.4770 n         1 INZ     -0.338000
     18 C18        -1.4260    0.4680   -2.9880 c2        1 INZ      0.268000
     19 C19        -1.7550   -1.5440   -0.1200 c2        1 INZ      0.359000
     20 N20        -1.0980    1.8530   -3.3540 n         1 INZ     -0.338000
     21 O21        -2.2740   -0.1460   -3.6180 o         1 INZ     -0.430000
     22 C22        -2.1380    2.7370   -3.8580 c3        1 INZ     -0.025000
     23 C23        -2.3150    3.9520   -2.8860 c3        1 INZ     -0.194000
     24 C24        -3.7570    4.5020   -2.9980 c3        1 INZ     -0.127000
     25 C25        -4.3510    4.6950   -1.5780 c3        1 INZ     -0.197000
     26 C26        -5.8370    5.0750   -1.6970 c3        1 INZ     -0.189000
     27 O27        -2.0680   -0.5600    0.5390 o         1 INZ     -0.422000
     28 N28        -1.9240   -2.8830    0.4440 n         1 INZ     -0.334000
     29 C29        -1.6610   -3.1100    1.8350 c3        1 INZ     -0.059000
     30 C30        -1.2690   -4.5850    2.0520 c3        1 INZ     -0.116000
     31 C31        -0.5490   -2.2360    2.2760 c2        1 INZ      0.323000
     32 O32        -0.7590   -1.3350    3.1150 o         1 INZ     -0.575000
     33 O33         0.5920   -2.3490    1.7430 o         1 INZ     -0.575000
     34 C34        -0.8020   -4.7800    3.4700 c2        1 INZ     -0.038000
     35 C35        -1.5840   -5.5320    4.3680 c2        1 INZ     -0.135000
     36 C36        -1.1230   -5.7820    5.6380 c1        1 INZ     -0.150000
     37 C37         0.1100   -5.2950    6.0340 c1        1 INZ     -0.154500
     38 C38         0.8830   -4.5500    5.1430 c1        1 INZ     -0.154500
     39 C39         0.4170   -4.2970    3.8610 c1        1 INZ     -0.123000
     40 HC5         4.2670   -0.9080    0.5660 ha        1 INZ      0.114000
     41 HC6         2.4650   -1.8590   -0.7070 ha        1 INZ      0.114000
     42 HC8         1.4850    1.9380   -2.0360 ha        1 INZ      0.108000
     43 HC9         3.2600    2.8240   -0.7700 ha        1 INZ      0.165000
     44 HC10        6.0190    1.7710   -0.7750 h1        1 INZ      0.069000
     45 H111        0.8290   -1.6250   -2.3820 hc        1 INZ      0.082500
     46 H112        0.8630   -0.2800   -3.3210 hc        1 INZ      0.082500
     47 HC12       -0.5460    0.3630   -1.0940 h1        1 INZ      0.148000
     48 HN17       -1.5820   -2.0040   -2.1150 hn        1 INZ      0.209000
     49 HN20       -0.2460    2.1350   -3.3200 hn        1 INZ      0.248000
     50 H221       -1.8860    3.0630   -4.7400 h1        1 INZ      0.066000
     51 H222       -2.9910    2.2400   -3.9210 h1        1 INZ      0.066000
     52 H231       -1.6680    4.6680   -3.1330 hc        1 INZ      0.126500
     53 H232       -2.1480    3.6630   -1.9660 hc        1 INZ      0.126500
     54 H241       -4.3220    3.8580   -3.5100 hc        1 INZ      0.046000
     55 H242       -3.7400    5.3750   -3.4710 hc        1 INZ      0.046000
     56 H251       -4.2660    3.8480   -1.0640 hc        1 INZ      0.134000
     57 H252       -3.8570    5.4220   -1.1080 hc        1 INZ      0.134000
     58 H261       -6.3040    4.4000   -2.2380 hc        1 INZ      0.047667
     59 H262       -6.2470    5.1130   -0.7900 hc        1 INZ      0.047667
     60 H263       -5.9180    5.9690   -2.1390 hc        1 INZ      0.047667
     61 HN28       -2.2950   -3.5520   -0.0660 hn        1 INZ      0.229000
     62 HC29       -2.4790   -2.9010    2.3660 h1        1 INZ      0.115000
     63 H301       -2.0310   -5.1450    1.8870 hc        1 INZ      0.087000
     64 H302       -0.5380   -4.8290    1.4270 hc        1 INZ      0.087000
     65 HC35       -2.4800   -5.8860    4.0800 ha        1 INZ      0.125000
     66 HC36       -1.6550   -6.3870    6.2610 ha        1 INZ      0.106000
     67 HC37        0.4340   -5.4700    6.9240 ha        1 INZ      0.114000
     68 HC38        1.7510   -4.2060    5.4220 ha        1 INZ      0.114000
     69 HC39        0.9630   -3.7750    3.2350 ha        1 INZ      0.204000
@<TRIPOS>BOND
     1    1    3 1   
     2    1   10 1   
     3    4    9 1   
     4    4   13 1   
     5    5    6 1   
     6    5   40 1   
     7    6   41 1   
     8    7    8 1   
     9    7   11 1   
    10    8   42 1   
    11    9   43 1   
    12   10   13 1   
    13   10   14 1   
    14   10   44 1   
    15   11   12 1   
    16   11   45 1   
    17   11   46 1   
    18   12   17 1   
    19   12   18 1   
    20   12   47 1   
    21   14   15 1   
    22   14   16 1   
    23   17   19 1   
    24   17   48 1   
    25   18   20 1   
    26   18   21 1   
    27   19   27 1   
    28   19   28 1   
    29   20   22 1   
    30   20   49 1   
    31   22   23 1   
    32   22   50 1   
    33   22   51 1   
    34   23   24 1   
    35   23   52 1   
    36   23   53 1   
    37   24   25 1   
    38   24   54 1   
    39   24   55 1   
    40   25   26 1   
    41   25   56 1   
    42   25   57 1   
    43   26   58 1   
    44   26   59 1   
    45   26   60 1   
    46   28   29 1   
    47   28   61 1   
    48   29   30 1   
    49   29   31 1   
    50   29   62 1   
    51   30   34 1   
    52   30   63 1   
    53   30   64 1   
    54   31   32 1   
    55   31   33 1   
    56   34   35 1   
    57   34   39 1   
    58   35   36 1   
    59   35   65 1   
    60   36   66 1   
    61   37   38 1   
    62   37   67 1   
    63   38   68 1   
    64   39   69 1   
@<TRIPOS>SUBSTRUCTURE
     1 INZ         1 TEMP              0 ****  ****    0 ROOT
