@<TRIPOS>MOLECULE
IO3
   27    32     1     0     0
SMALL
bcc


@<TRIPOS>ATOM
      1 I1          0.0000    0.0000    0.0000 i         1 IO3      0.078000
      2 I2          5.2120   -0.0020   -3.0170 i         1 IO3      0.055000
      3 I3          5.2120   -0.0010    3.0170 i         1 IO3      0.177000
      4 O1          6.2220    0.0010   -0.0010 oh        1 IO3     -0.343000
      5 O2          2.8670   -2.6770    4.0770 o         1 IO3     -0.590000
      6 O3          3.1300   -2.9460    1.8990 o         1 IO3     -0.590000
      7 C1          2.7860    0.0000    1.1980 c3        1 IO3      0.013000
      8 C2          2.0950    0.0000    0.0000 c2        1 IO3     -0.290000
      9 C3          2.7850   -0.0000   -1.1990 c2        1 IO3     -0.082000
     10 C4          4.1680   -0.0000   -1.2010 c2        1 IO3      0.098000
     11 C5          4.8620   -0.0000   -0.0000 c3        1 IO3      0.097000
     12 C6          4.1680    0.0000    1.2010 c2        1 IO3     -0.266000
     13 C8          1.4220   -1.3760    2.7460 DU        1 IO3     -0.406000
     14 C9          2.5270   -2.3810    2.9570 c2        1 IO3      0.428000
     15 C10         0.5320   -1.3300    3.9890 DU        1 IO3     -0.427000
     16 C11        -0.1740   -2.6760    4.1620 c3        1 IO3     -0.487000
     17 H1          5.4190   -0.0310    0.4940 DU        1 IO3      0.321000
     18 H3          3.8540   -0.1270   -1.0770 ha        1 IO3     -0.023000
     19 H4          2.0790    0.0080    1.4200 DU        1 IO3      0.412000
     20 H5          2.6070    0.0050    3.4190 ha        1 IO3      0.190000
     21 H6          1.2710   -0.3040    2.7030 DU        1 IO3      0.288000
     22 H7          0.6840   -1.4780    2.9270 DU        1 IO3      0.230000
     23 H8          1.1410   -1.1270    4.8620 ha        1 IO3      0.102000
     24 H9         -0.1930   -1.6030    4.0170 DU        1 IO3      0.234000
     25 H10        -1.2280   -2.4330    4.2270 hc        1 IO3      0.038000
     26 H11         0.2050   -3.0730    5.0960 hc        1 IO3      0.038000
     27 C7          2.0300    0.0070    2.5020 DU        1 IO3     -0.297000
@<TRIPOS>BOND
     1    1    8 1   
     2    2   10 1   
     3    3   12 1   
     4    4   11 1   
     5    4   17 1   
     6    5   14 1   
     7    6   14 1   
     8    7    8 1   
     9    7   12 1   
    10    7   19 1   
    11    7   27 1   
    12    8    9 1   
    13    9   10 1   
    14    9   18 1   
    15   10   11 1   
    16   11   12 1   
    17   11   17 1   
    18   13   14 1   
    19   13   15 1   
    20   13   21 1   
    21   13   22 1   
    22   13   27 1   
    23   15   16 1   
    24   15   22 1   
    25   15   23 1   
    26   15   24 1   
    27   16   24 1   
    28   16   25 1   
    29   16   26 1   
    30   19   27 1   
    31   20   27 1   
    32   21   27 1   
@<TRIPOS>SUBSTRUCTURE
     1 IO3         1 TEMP              0 ****  ****    0 ROOT
