@<TRIPOS>MOLECULE
IO3
   27    27     1     0     0
SMALL
bcc


@<TRIPOS>ATOM
      1 I1          1.7960    2.1220   -2.3900 i         1 IO3     -0.139900
      2 I2         -3.4940    1.9280   -0.0620 i         1 IO3     -0.146900
      3 I3          0.1710   -2.7320    0.7980 i         1 IO3     -0.124900
      4 O1         -2.4360   -0.8670    0.9680 oh        1 IO3     -0.494100
      5 O2          4.7310   -1.7710   -0.8620 o         1 IO3     -0.836800
      6 O3          4.9130   -1.9380    1.3590 o         1 IO3     -0.836800
      7 C1          0.8520   -0.1710   -0.6220 ca        1 IO3      0.097700
      8 C2          0.5290    1.0680   -1.2080 ca        1 IO3     -0.027100
      9 C3         -0.7280    1.6370   -1.0260 ca        1 IO3     -0.029000
     10 C4         -1.7140    0.9940   -0.2830 ca        1 IO3     -0.041100
     11 C5         -1.4210   -0.2670    0.2640 ca        1 IO3      0.205100
     12 C6         -0.1550   -0.8580    0.0790 ca        1 IO3     -0.075100
     13 C8          3.0690   -0.6420    0.4980 c3        1 IO3     -0.184700
     14 C9          4.3430   -1.5210    0.3130 c         1 IO3      0.919600
     15 C10         3.4720    0.7900    0.7970 c3        1 IO3     -0.055400
     16 C11         4.0130    0.9310    2.1970 c3        1 IO3     -0.096100
     17 H1         -2.1080   -1.7100    1.3260 ho        1 IO3      0.434000
     18 H3         -0.9530    2.6180   -1.4790 ha        1 IO3      0.147000
     19 H4          2.1470   -1.8350   -1.0410 hc        1 IO3      0.085700
     20 H5          2.7830   -0.2500   -1.5990 hc        1 IO3      0.085700
     21 H6          2.5020   -1.0520    1.3750 hc        1 IO3      0.043700
     22 H7          4.2540    1.1090    0.0570 hc        1 IO3      0.020700
     23 H8          2.5890    1.4710    0.6660 hc        1 IO3      0.020700
     24 H9          3.1960    0.8100    2.9490 hc        1 IO3      0.032033
     25 H10         4.7820    0.1370    2.3830 hc        1 IO3      0.032033
     26 H11         4.4760    1.9360    2.3390 hc        1 IO3      0.032033
     27 C7          2.2190   -0.7470   -0.7620 c3        1 IO3     -0.068100
@<TRIPOS>BOND
     1    1    8 1   
     2    2   10 1   
     3    3   12 1   
     4    4   11 1   
     5    4   17 1   
     6    5   14 1   
     7    6   14 1   
     8    7    8 ar  
     9    7   12 ar  
    10    7   27 1   
    11    8    9 ar  
    12    9   10 ar  
    13    9   18 1   
    14   10   11 ar  
    15   11   12 ar  
    16   13   14 1   
    17   13   15 1   
    18   13   21 1   
    19   13   27 1   
    20   15   16 1   
    21   15   22 1   
    22   15   23 1   
    23   16   24 1   
    24   16   25 1   
    25   16   26 1   
    26   19   27 1   
    27   20   27 1   
@<TRIPOS>SUBSTRUCTURE
     1 IO3         1 TEMP              0 ****  ****    0 ROOT
