@<TRIPOS>MOLECULE
IO3
   27    25     1     0     0
SMALL
bcc


@<TRIPOS>ATOM
      1 I1         -2.4030    0.8810   -1.8060 i         1 IO3      0.134000
      2 I2          2.8420    0.9740   -4.8200 i         1 IO3      0.116000
      3 I3          3.4060    1.0430    0.7120 i         1 IO3      0.199000
      4 O1          3.8830    0.8250   -1.7980 oh        1 IO3     -0.235000
      5 O2          0.9340   -2.1870    0.7470 o         1 IO3     -0.570000
      6 O3          0.7870   -1.2570    2.7130 o         1 IO3     -0.570000
      7 C1          0.3950    0.8100   -0.6030 c1        1 IO3      0.104000
      8 C2         -0.2960    0.8750   -1.8030 c2        1 IO3     -0.308000
      9 C3          0.3990    0.9090   -3.0020 c2        1 IO3     -0.028000
     10 C4          1.7850    0.8780   -3.0000 c1        1 IO3     -0.378000
     11 C5          2.4750    0.8130   -1.8010 c1        1 IO3      0.158000
     12 C6          1.7800    0.7790   -0.6020 c2        1 IO3     -0.294000
     13 C7         -0.3620    0.8360    0.7070 c2        1 IO3     -0.151000
     14 C8         -0.8130   -0.5660    1.0570 c3        1 IO3     -0.175000
     15 C9          0.3760   -1.3750    1.5290 c2        1 IO3      0.333000
     16 C10        -1.8480   -0.5020    2.1580 c3        1 IO3     -0.137000
     17 C11        -2.7340   -1.7250    2.0880 c3        1 IO3     -0.206000
     18 H1          4.1740    1.5480   -2.2250 ho        1 IO3      0.222000
     19 H3         -0.0870    0.9780   -3.8460 ha        1 IO3      0.144000
     20 H4          0.2220    1.1770    1.4140 ha        1 IO3      0.112000
     21 H5         -1.1430    1.4170    0.6210 ha        1 IO3      0.112000
     22 H6         -1.2020   -0.9890    0.2690 hc        1 IO3      0.084000
     23 H7         -2.3940    0.3020    2.0460 hc        1 IO3      0.066000
     24 H8         -1.4000   -0.4740    3.0270 hc        1 IO3      0.066000
     25 H9         -2.2810   -2.4820    2.5160 hc        1 IO3      0.067000
     26 H10        -2.9170   -1.9430    1.1490 hc        1 IO3      0.067000
     27 H11        -3.5780   -1.5450    2.5510 hc        1 IO3      0.067000
@<TRIPOS>BOND
     1    1    8 1   
     2    2   10 1   
     3    3   12 1   
     4    4   11 1   
     5    4   18 1   
     6    5   15 1   
     7    6   15 1   
     8    7    8 1   
     9    7   12 1   
    10    8    9 1   
    11    9   10 1   
    12    9   19 1   
    13   11   12 1   
    14   13   14 1   
    15   13   20 1   
    16   13   21 1   
    17   14   15 1   
    18   14   16 1   
    19   14   22 1   
    20   16   17 1   
    21   16   23 1   
    22   16   24 1   
    23   17   25 1   
    24   17   26 1   
    25   17   27 1   
@<TRIPOS>SUBSTRUCTURE
     1 IO3         1 TEMP              0 ****  ****    0 ROOT
