@<TRIPOS>MOLECULE
IOA
   34    35     1     0     0
SMALL
bcc


@<TRIPOS>ATOM
      1 C01        -1.8180   -0.4490    1.9920 ca        1 IOA     -0.120500
      2 C02        -1.3250   -0.3960    3.2940 ca        1 IOA     -0.026000
      3 C03         0.0230   -0.1130    3.5410 ca        1 IOA     -0.361500
      4 C04         0.8710    0.1250    2.4540 ca        1 IOA     -0.026000
      5 C05         0.3900    0.0810    1.1470 ca        1 IOA     -0.120500
      6 C06        -0.9580   -0.2080    0.9160 ca        1 IOA     -0.078600
      7 C07        -1.5120   -0.2940   -0.4700 c         1 IOA      0.663700
      8 O08        -2.2960   -1.2060   -0.7980 o         1 IOA     -0.593100
      9 N09        -1.1670    0.7170   -1.3470 n         1 IOA     -0.558900
     10 C10        -1.5440    0.6890   -2.7320 c3        1 IOA      0.134300
     11 S11         0.6130   -0.0310    5.1310 sy        1 IOA      1.525200
     12 NP2         1.0360   -1.5440    5.4380 n3        1 IOA     -1.026700
     13 O13        -0.4540    0.3360    5.9760 o         1 IOA     -0.654800
     14 O14         1.7640    0.7830    5.1280 o         1 IOA     -0.654800
     15 C15        -0.4270    0.3370   -3.6780 ca        1 IOA     -0.123300
     16 C16        -0.5520   -0.7650   -4.5200 ca        1 IOA     -0.127000
     17 C17         0.4700   -1.0700   -5.4380 ca        1 IOA      0.115900
     18 C18         1.6270   -0.2720   -5.5080 ca        1 IOA     -0.139000
     19 C19         1.7590    0.8230   -4.6640 ca        1 IOA     -0.138000
     20 C20         0.7370    1.1310   -3.7470 ca        1 IOA      0.107900
     21 F21         0.8810    2.2030   -2.9280 f         1 IOA     -0.143900
     22 F22         0.3400   -2.1400   -6.2570 f         1 IOA     -0.132900
     23 H011       -2.8760   -0.6890    1.8010 ha        1 IOA      0.153000
     24 H021       -2.0090   -0.5620    4.1450 ha        1 IOA      0.158000
     25 H041        1.9320    0.3710    2.6390 ha        1 IOA      0.158000
     26 H051        1.0790    0.2620    0.3080 ha        1 IOA      0.153000
     27 H091       -0.4620    1.3660   -1.0840 hn        1 IOA      0.320500
     28 H101       -2.3960   -0.0400   -2.8630 h1        1 IOA      0.079700
     29 H102       -1.9120    1.7220   -3.0090 h1        1 IOA      0.079700
     30 HP21        1.9390   -1.9060    5.2660 hn        1 IOA      0.449800
     31 HP22        0.4280   -2.2110    5.8410 hn        1 IOA      0.449800
     32 H161       -1.4470   -1.4050   -4.4730 ha        1 IOA      0.164000
     33 H181        2.4190   -0.5210   -6.2290 ha        1 IOA      0.157000
     34 H191        2.6580    1.4560   -4.7070 ha        1 IOA      0.156000
@<TRIPOS>BOND
     1    1    2 ar  
     2    1    6 ar  
     3    1   23 1   
     4    2    3 ar  
     5    2   24 1   
     6    3    4 ar  
     7    3   11 1   
     8    4    5 ar  
     9    4   25 1   
    10    5    6 ar  
    11    5   26 1   
    12    6    7 1   
    13    7    8 2   
    14    7    9 1   
    15    9   10 1   
    16    9   27 1   
    17   10   15 1   
    18   10   28 1   
    19   10   29 1   
    20   11   12 1   
    21   11   13 2   
    22   11   14 2   
    23   12   30 1   
    24   12   31 1   
    25   15   16 ar  
    26   15   20 ar  
    27   16   17 ar  
    28   16   32 1   
    29   17   18 ar  
    30   17   22 1   
    31   18   19 ar  
    32   18   33 1   
    33   19   20 ar  
    34   19   34 1   
    35   20   21 1   
@<TRIPOS>SUBSTRUCTURE
     1 IOA         1 TEMP              0 ****  ****    0 ROOT
