@<TRIPOS>MOLECULE
IOA
   36    37     1     0     0
SMALL
bcc


@<TRIPOS>ATOM
      1 C01        -0.2360    0.4850    0.3780 ca        1 IOA     -0.096000
      2 C02         1.0330   -0.0610    0.1860 ca        1 IOA      0.012500
      3 C03         1.9770   -0.0910    1.2270 ca        1 IOA     -0.459500
      4 C04         1.6090    0.4460    2.4750 ca        1 IOA      0.012500
      5 C05         0.3420    0.9880    2.6840 ca        1 IOA     -0.096000
      6 C06        -0.5820    1.0030    1.6330 ca        1 IOA     -0.078600
      7 C07        -1.9230    1.6180    1.7800 c         1 IOA      0.540700
      8 O08        -2.4460    2.3960    0.9970 o         1 IOA     -0.361100
      9 N09        -2.7220    1.2390    2.9940 n4        1 IOA     -0.680800
     10 C10        -3.8350    0.2780    2.6440 c3        1 IOA      0.189100
     11 S11         3.4190   -0.8550    1.0340 sy        1 IOA      1.462200
     12 NP2         4.4470    0.5900    0.3900 n4        1 IOA     -0.801500
     13 O13         3.4410   -1.6890   -0.0580 o         1 IOA     -0.533300
     14 O14         4.0520   -1.1080    2.2280 o         1 IOA     -0.533300
     15 C15        -4.6260   -0.0900    3.8490 ca        1 IOA     -0.202300
     16 C16        -5.9910    0.1910    3.9000 ca        1 IOA     -0.111000
     17 C17        -6.7530   -0.2490    5.0010 ca        1 IOA      0.154900
     18 C18        -6.1420   -0.9660    6.0510 ca        1 IOA     -0.090000
     19 C19        -4.7790   -1.2340    6.0080 ca        1 IOA     -0.107000
     20 C20        -4.0170   -0.7950    4.9130 ca        1 IOA      0.103900
     21 F21        -2.6800   -1.0340    4.8680 f         1 IOA     -0.158900
     22 F22        -8.0730    0.0190    5.0440 f         1 IOA     -0.090900
     23 H011       -0.9560    0.5130   -0.4610 ha        1 IOA      0.186500
     24 H021        1.2830   -0.4970   -0.8040 ha        1 IOA      0.195500
     25 H041        2.3280    0.4200    3.3210 ha        1 IOA      0.195500
     26 H051        0.1020    1.4130    3.6740 ha        1 IOA      0.186500
     27 H091       -3.1460    2.0870    3.4010 hn        1 IOA      0.473300
     28 H101       -3.3530   -0.6440    2.2040 hx        1 IOA      0.120200
     29 H102       -4.4820    0.7750    1.8630 hx        1 IOA      0.120200
     30 HP21        5.2420    0.7670    1.0100 hn        1 IOA      0.471800
     31 HP22        3.9310    1.4620    0.3030 hn        1 IOA      0.471800
     32 H161       -6.4920    0.7370    3.0840 ha        1 IOA      0.174000
     33 H181       -6.7550   -1.3110    6.9030 ha        1 IOA      0.195000
     34 H191       -4.2920   -1.7940    6.8250 ha        1 IOA      0.188000
     35 H092       -2.1200    0.8000    3.7050 hn        1 IOA      0.473300
     36 HP23        4.8320    0.3710   -0.5330 hn        1 IOA      0.471800
@<TRIPOS>BOND
     1    1    2 ar  
     2    1    6 ar  
     3    1   23 1   
     4    2    3 ar  
     5    2   24 1   
     6    3    4 ar  
     7    3   11 1   
     8    4    5 ar  
     9    4   25 1   
    10    5    6 ar  
    11    5   26 1   
    12    6    7 1   
    13    7    8 2   
    14    7    9 1   
    15    9   10 1   
    16    9   27 1   
    17    9   35 1   
    18   10   15 1   
    19   10   28 1   
    20   10   29 1   
    21   11   12 1   
    22   11   13 2   
    23   11   14 2   
    24   12   30 1   
    25   12   31 1   
    26   12   36 1   
    27   15   16 ar  
    28   15   20 ar  
    29   16   17 ar  
    30   16   32 1   
    31   17   18 ar  
    32   17   22 1   
    33   18   19 ar  
    34   18   33 1   
    35   19   20 ar  
    36   19   34 1   
    37   20   21 1   
@<TRIPOS>SUBSTRUCTURE
     1 IOA         1 TEMP              0 ****  ****    0 ROOT
