@<TRIPOS>MOLECULE
IOA
   36    37     1     0     0
SMALL
bcc


@<TRIPOS>ATOM
      1 C01        -0.2330    0.5280    0.3850 ca        1 IOA     -0.096000
      2 C02         1.0240   -0.0370    0.1740 ca        1 IOA      0.012500
      3 C03         1.9700   -0.1130    1.2120 ca        1 IOA     -0.459500
      4 C04         1.6140    0.3940    2.4760 ca        1 IOA      0.012500
      5 C05         0.3580    0.9530    2.7030 ca        1 IOA     -0.096000
      6 C06        -0.5680    1.0160    1.6550 ca        1 IOA     -0.078600
      7 C07        -1.8970    1.6510    1.8220 c         1 IOA      0.540700
      8 O08        -2.4070    2.4600    1.0630 o         1 IOA     -0.361100
      9 N09        -2.7000    1.2530    3.0280 n4        1 IOA     -0.680800
     10 C10        -3.8340    0.3240    2.6530 c3        1 IOA      0.189100
     11 S11         3.3970   -0.8980    0.9940 sy        1 IOA      1.462200
     12 NP2         4.4500    0.5450    0.3900 n4        1 IOA     -0.801500
     13 O13         3.4010   -1.7010   -0.1220 o         1 IOA     -0.533300
     14 O14         4.0270   -1.1980    2.1790 o         1 IOA     -0.533300
     15 C15        -4.6290   -0.0620    3.8490 ca        1 IOA     -0.202300
     16 C16        -5.9880    0.2440    3.9120 ca        1 IOA     -0.111000
     17 C17        -6.7560   -0.2120    5.0010 ca        1 IOA      0.154900
     18 C18        -6.1570   -0.9710    6.0290 ca        1 IOA     -0.090000
     19 C19        -4.8000   -1.2650    5.9740 ca        1 IOA     -0.107000
     20 C20        -4.0320   -0.8090    4.8910 ca        1 IOA      0.103900
     21 F21        -2.7000   -1.0740    4.8350 f         1 IOA     -0.158900
     22 F22        -8.0710    0.0810    5.0560 f         1 IOA     -0.090900
     23 H011       -0.9550    0.5930   -0.4510 ha        1 IOA      0.186500
     24 H021        1.2650   -0.4480   -0.8280 ha        1 IOA      0.196000
     25 H041        2.3340    0.3300    3.3190 ha        1 IOA      0.196000
     26 H051        0.1270    1.3540    3.7050 ha        1 IOA      0.186500
     27 H091       -3.1060    2.0960    3.4610 hn        1 IOA      0.473300
     28 H101       -3.3710   -0.5930    2.1850 hx        1 IOA      0.120200
     29 H102       -4.4720    0.8570    1.8880 hx        1 IOA      0.120200
     30 HP21        3.9510    1.4290    0.3300 hn        1 IOA      0.471800
     31 HP22        4.8290    0.3460   -0.5410 hn        1 IOA      0.471800
     32 H161       -6.4800    0.8240    3.1140 ha        1 IOA      0.174000
     33 H181       -6.7750   -1.3280    6.8730 ha        1 IOA      0.195000
     34 H191       -4.3220   -1.8580    6.7730 ha        1 IOA      0.188000
     35 H092       -2.1060    0.7810    3.7230 hn        1 IOA      0.473300
     36 HP23        5.2500    0.6890    1.0130 hn        1 IOA      0.471800
@<TRIPOS>BOND
     1    1    2 ar  
     2    1    6 ar  
     3    1   23 1   
     4    2    3 ar  
     5    2   24 1   
     6    3    4 ar  
     7    3   11 1   
     8    4    5 ar  
     9    4   25 1   
    10    5    6 ar  
    11    5   26 1   
    12    6    7 1   
    13    7    8 2   
    14    7    9 1   
    15    9   10 1   
    16    9   27 1   
    17    9   35 1   
    18   10   15 1   
    19   10   28 1   
    20   10   29 1   
    21   11   12 1   
    22   11   13 2   
    23   11   14 2   
    24   12   30 1   
    25   12   31 1   
    26   12   36 1   
    27   15   16 ar  
    28   15   20 ar  
    29   16   17 ar  
    30   16   32 1   
    31   17   18 ar  
    32   17   22 1   
    33   18   19 ar  
    34   18   33 1   
    35   19   20 ar  
    36   19   34 1   
    37   20   21 1   
@<TRIPOS>SUBSTRUCTURE
     1 IOA         1 TEMP              0 ****  ****    0 ROOT
