@<TRIPOS>MOLECULE
IOA
   36    37     1     0     0
SMALL
bcc


@<TRIPOS>ATOM
      1 C01        -0.2290    0.5210    0.3870 ca        1 IOA     -0.096000
      2 C02         1.0320   -0.0380    0.1820 ca        1 IOA      0.012500
      3 C03         1.9750   -0.1050    1.2230 ca        1 IOA     -0.459500
      4 C04         1.6140    0.4080    2.4830 ca        1 IOA      0.012500
      5 C05         0.3540    0.9620    2.7040 ca        1 IOA     -0.096000
      6 C06        -0.5690    1.0140    1.6530 ca        1 IOA     -0.078600
      7 C07        -1.9020    1.6440    1.8130 c         1 IOA      0.540700
      8 O08        -2.4130    2.4470    1.0490 o         1 IOA     -0.361100
      9 N09        -2.7060    1.2480    3.0190 ny        1 IOA     -0.680800
     10 C10        -3.8350    0.3130    2.6450 c3        1 IOA      0.189100
     11 S11         3.4070   -0.8840    1.0130 sy        1 IOA      1.462200
     12 NP2         4.4540    0.5610    0.4030 nz        1 IOA     -0.801500
     13 O13         3.4180   -1.6930   -0.0980 o         1 IOA     -0.533300
     14 O14         4.0350   -1.1730    2.2000 o         1 IOA     -0.533300
     15 C15        -4.6310   -0.0720    3.8420 ca        1 IOA     -0.202300
     16 C16        -5.9920    0.2290    3.9000 ca        1 IOA     -0.111000
     17 C17        -6.7610   -0.2250    4.9890 ca        1 IOA      0.154900
     18 C18        -6.1610   -0.9770    6.0220 ca        1 IOA     -0.090000
     19 C19        -4.8030   -1.2650    5.9720 ca        1 IOA     -0.107000
     20 C20        -4.0340   -0.8110    4.8880 ca        1 IOA      0.103900
     21 F21        -2.7010   -1.0710    4.8370 f         1 IOA     -0.158900
     22 F22        -8.0770    0.0630    5.0390 f         1 IOA     -0.090900
     23 H011       -0.9490    0.5780   -0.4520 ha        1 IOA      0.186500
     24 H021        1.2770   -0.4550   -0.8170 ha        1 IOA      0.196000
     25 H041        2.3320    0.3520    3.3280 ha        1 IOA      0.196000
     26 H051        0.1190    1.3670    3.7030 ha        1 IOA      0.186500
     27 H091       -3.1170    2.0920    3.4460 hn        1 IOA      0.473300
     28 H101       -3.3660   -0.6050    2.1830 hx        1 IOA      0.120200
     29 H102       -4.4730    0.8390    1.8760 hx        1 IOA      0.120200
     30 HP21        5.2520    0.7140    1.0270 hn        1 IOA      0.471800
     31 HP22        3.9500    1.4430    0.3360 hn        1 IOA      0.471800
     32 H161       -6.4840    0.8030    3.0970 ha        1 IOA      0.174000
     33 H181       -6.7800   -1.3330    6.8650 ha        1 IOA      0.195000
     34 H191       -4.3250   -1.8520    6.7750 ha        1 IOA      0.188000
     35 H092       -2.1120    0.7820    3.7180 hn        1 IOA      0.473300
     36 HP23        4.8370    0.3590   -0.5250 hn        1 IOA      0.471800
@<TRIPOS>BOND
     1    1    2 ar  
     2    1    6 ar  
     3    1   23 1   
     4    2    3 ar  
     5    2   24 1   
     6    3    4 ar  
     7    3   11 1   
     8    4    5 ar  
     9    4   25 1   
    10    5    6 ar  
    11    5   26 1   
    12    6    7 1   
    13    7    8 2   
    14    7    9 1   
    15    9   10 1   
    16    9   27 1   
    17    9   35 1   
    18   10   15 1   
    19   10   28 1   
    20   10   29 1   
    21   11   12 1   
    22   11   13 2   
    23   11   14 2   
    24   12   30 1   
    25   12   31 1   
    26   12   36 1   
    27   15   16 ar  
    28   15   20 ar  
    29   16   17 ar  
    30   16   32 1   
    31   17   18 ar  
    32   17   22 1   
    33   18   19 ar  
    34   18   33 1   
    35   19   20 ar  
    36   19   34 1   
    37   20   21 1   
@<TRIPOS>SUBSTRUCTURE
     1 IOA         1 TEMP              0 ****  ****    0 ROOT
