@<TRIPOS>MOLECULE
IOB
   16    16     1     0     0
SMALL
bcc


@<TRIPOS>ATOM
      1 CG         -0.1300   -0.0030   -0.0100 ca        1 IOB     -0.134300
      2 CD2         1.2480   -0.2330   -0.0680 ca        1 IOB     -0.102000
      3 CD1        -0.7470    0.1960    1.2290 ca        1 IOB     -0.090000
      4 CE2         2.0000   -0.2670    1.1050 ca        1 IOB     -0.132000
      5 CE1         0.0070    0.1640    2.4010 ca        1 IOB      0.022900
      6 CZ          1.3820   -0.0680    2.3400 ca        1 IOB     -0.094000
      7 I          -0.8920    0.4540    4.1880 i         1 IOB     -0.141900
      8 O          -0.3730   -0.6510   -2.3390 oh        1 IOB     -0.593800
      9 CB         -0.9470    0.0600   -1.2600 c3        1 IOB      0.171700
     10 HD2         1.7310   -0.3820   -1.0470 ha        1 IOB      0.149000
     11 HD1        -1.8330    0.3780    1.2690 ha        1 IOB      0.144000
     12 HE2         3.0840   -0.4480    1.0590 ha        1 IOB      0.139000
     13 HZ          1.9860   -0.0960    3.2600 ha        1 IOB      0.145000
     14 H          -0.2710   -1.5680   -2.0580 ho        1 IOB      0.402000
     15 HB2        -1.0070    1.1230   -1.6290 h1        1 IOB      0.057200
     16 HB1        -1.9870   -0.3210   -1.0640 h1        1 IOB      0.057200
@<TRIPOS>BOND
     1    1    2 ar  
     2    1    3 ar  
     3    1    9 1   
     4    2    4 ar  
     5    2   10 1   
     6    3    5 ar  
     7    3   11 1   
     8    4    6 ar  
     9    4   12 1   
    10    5    6 ar  
    11    5    7 1   
    12    6   13 1   
    13    8    9 1   
    14    8   14 1   
    15    9   15 1   
    16    9   16 1   
@<TRIPOS>SUBSTRUCTURE
     1 IOB         1 TEMP              0 ****  ****    0 ROOT
