@<TRIPOS>MOLECULE
IOB
   16    16     1     0     0
SMALL
bcc


@<TRIPOS>ATOM
      1 CG         -0.0850   -0.1220    0.0410 ca        1 IOB     -0.092300
      2 CD2         1.2570   -0.5100    0.0600 ca        1 IOB     -0.084000
      3 CD1        -0.6910    0.3430    1.2160 ca        1 IOB     -0.099000
      4 CE2         1.9860   -0.4330    1.2460 ca        1 IOB     -0.136000
      5 CE1         0.0430    0.4180    2.3980 ca        1 IOB      0.022900
      6 CZ          1.3830    0.0300    2.4140 ca        1 IOB     -0.096000
      7 I          -0.8370    1.0900    4.0890 i         1 IOB     -0.146900
      8 O          -0.1170   -0.6860   -2.2700 oh        1 IOB     -0.599800
      9 CB         -0.9090   -0.1860   -1.2030 c3        1 IOB      0.176700
     10 HD2         1.7300   -0.8760   -0.8660 ha        1 IOB      0.158000
     11 HD1        -1.7490    0.6470    1.1930 ha        1 IOB      0.141000
     12 HE2         3.0430   -0.7390    1.2600 ha        1 IOB      0.138000
     13 HZ          1.9700    0.0860    3.3440 ha        1 IOB      0.143000
     14 H          -0.6920   -0.7070   -3.0440 ho        1 IOB      0.405000
     15 HB2        -1.2860    0.8440   -1.4610 h1        1 IOB      0.034700
     16 HB1        -1.7930   -0.8630   -1.0380 h1        1 IOB      0.034700
@<TRIPOS>BOND
     1    1    2 ar  
     2    1    3 ar  
     3    1    9 1   
     4    2    4 ar  
     5    2   10 1   
     6    3    5 ar  
     7    3   11 1   
     8    4    6 ar  
     9    4   12 1   
    10    5    6 ar  
    11    5    7 1   
    12    6   13 1   
    13    8    9 1   
    14    8   14 1   
    15    9   15 1   
    16    9   16 1   
@<TRIPOS>SUBSTRUCTURE
     1 IOB         1 TEMP              0 ****  ****    0 ROOT
