@<TRIPOS>MOLECULE
IOB
   16    16     1     0     0
SMALL
bcc


@<TRIPOS>ATOM
      1 CG          0.1060    0.1880    2.4350 ca        1 IOB     -0.092300
      2 CD2        -1.1570   -0.3200    2.7510 ca        1 IOB     -0.084000
      3 CD1         0.4080    0.5230    1.1090 ca        1 IOB     -0.099000
      4 CE2        -2.1080   -0.4920    1.7460 ca        1 IOB     -0.136000
      5 CE1        -0.5460    0.3500    0.1090 ca        1 IOB      0.022900
      6 CZ         -1.8070   -0.1590    0.4270 ca        1 IOB     -0.096000
      7 I          -0.1020    0.8350   -1.8020 i         1 IOB     -0.146900
      8 O           0.6560   -0.0060    4.7420 oh        1 IOB     -0.599800
      9 CB          1.1590    0.3910    3.4740 c3        1 IOB      0.176700
     10 HD2        -1.3920   -0.5830    3.7950 ha        1 IOB      0.158000
     11 HD1         1.4060    0.9230    0.8680 ha        1 IOB      0.141000
     12 HE2        -3.1020   -0.8920    1.9960 ha        1 IOB      0.138000
     13 HZ         -2.5670   -0.2990   -0.3570 ha        1 IOB      0.143000
     14 H           1.3700    0.1430    5.3730 ho        1 IOB      0.405000
     15 HB2         1.4540    1.4770    3.5090 h1        1 IOB      0.034700
     16 HB1         2.0670   -0.2240    3.2190 h1        1 IOB      0.034700
@<TRIPOS>BOND
     1    1    2 ar  
     2    1    3 ar  
     3    1    9 1   
     4    2    4 ar  
     5    2   10 1   
     6    3    5 ar  
     7    3   11 1   
     8    4    6 ar  
     9    4   12 1   
    10    5    6 ar  
    11    5    7 1   
    12    6   13 1   
    13    8    9 1   
    14    8   14 1   
    15    9   15 1   
    16    9   16 1   
@<TRIPOS>SUBSTRUCTURE
     1 IOB         1 TEMP              0 ****  ****    0 ROOT
