@<TRIPOS>MOLECULE
IOC
   34    35     1     0     0
SMALL
bcc


@<TRIPOS>ATOM
      1 C01        -1.9190   -0.2220    2.4160 ca        1 IOC     -0.120000
      2 C02        -1.3280   -0.1880    3.6770 ca        1 IOC     -0.026500
      3 C03         0.0600   -0.0820    3.8170 ca        1 IOC     -0.359500
      4 C04         0.8490   -0.0010    2.6650 ca        1 IOC     -0.026500
      5 C05         0.2710   -0.0280    1.3970 ca        1 IOC     -0.120000
      6 C06        -1.1170   -0.1390    1.2730 ca        1 IOC     -0.080600
      7 C07        -1.7810   -0.1990   -0.0650 c         1 IOC      0.664700
      8 O08        -2.7130   -0.9950   -0.2910 o         1 IOC     -0.594100
      9 N09        -1.3580    0.7100   -1.0170 n         1 IOC     -0.559900
     10 C10        -1.8500    0.6860   -2.3660 c3        1 IOC      0.136300
     11 S11         0.7710   -0.0210    5.3590 sy        1 IOC      1.524200
     12 NP2         1.0330   -1.5630    5.6970 n3        1 IOC     -1.027700
     13 O13        -0.1800    0.5000    6.2590 o         1 IOC     -0.654300
     14 O14         2.0080    0.6470    5.2420 o         1 IOC     -0.654300
     15 C15        -0.9130    0.0610   -3.3630 ca        1 IOC     -0.140300
     16 C16         0.3660    0.6100   -3.5790 ca        1 IOC      0.114900
     17 C17         1.2340    0.0460   -4.5480 ca        1 IOC      0.057900
     18 C18         0.7970   -1.0800   -5.2920 ca        1 IOC      0.122900
     19 C19        -0.4790   -1.6200   -5.0610 ca        1 IOC     -0.156000
     20 C20        -1.3130   -1.0520   -4.1050 ca        1 IOC     -0.078000
     21 F21         1.6130   -1.6270   -6.2190 f         1 IOC     -0.116900
     22 F22         0.7840    1.6830   -2.8670 f         1 IOC     -0.126900
     23 F23         2.4590    0.5730   -4.7560 f         1 IOC     -0.109900
     24 H011       -3.0110   -0.3220    2.3090 ha        1 IOC      0.153000
     25 H021       -1.9630   -0.2280    4.5800 ha        1 IOC      0.159000
     26 H041        1.9440    0.1060    2.7650 ha        1 IOC      0.159000
     27 H051        0.9150    0.0260    0.5070 ha        1 IOC      0.153000
     28 H091       -0.5450    1.2540   -0.8420 hn        1 IOC      0.320500
     29 H101       -2.8370    0.1370   -2.3820 h1        1 IOC      0.080200
     30 H102       -2.0290    1.7560   -2.6860 h1        1 IOC      0.080200
     31 HP21        1.8740   -2.0360    5.4800 hn        1 IOC      0.449800
     32 HP22        0.3810   -2.1390    6.1670 hn        1 IOC      0.449800
     33 H191       -0.8040   -2.4960   -5.6430 ha        1 IOC      0.163000
     34 H201       -2.3090   -1.4900   -3.9260 ha        1 IOC      0.159000
@<TRIPOS>BOND
     1    1    2 ar  
     2    1    6 ar  
     3    1   24 1   
     4    2    3 ar  
     5    2   25 1   
     6    3    4 ar  
     7    3   11 1   
     8    4    5 ar  
     9    4   26 1   
    10    5    6 ar  
    11    5   27 1   
    12    6    7 1   
    13    7    8 2   
    14    7    9 1   
    15    9   10 1   
    16    9   28 1   
    17   10   15 1   
    18   10   29 1   
    19   10   30 1   
    20   11   12 1   
    21   11   13 2   
    22   11   14 2   
    23   12   31 1   
    24   12   32 1   
    25   15   16 ar  
    26   15   20 ar  
    27   16   17 ar  
    28   16   22 1   
    29   17   18 ar  
    30   17   23 1   
    31   18   19 ar  
    32   18   21 1   
    33   19   20 ar  
    34   19   33 1   
    35   20   34 1   
@<TRIPOS>SUBSTRUCTURE
     1 IOC         1 TEMP              0 ****  ****    0 ROOT
