@<TRIPOS>MOLECULE
IOC
   36    37     1     0     0
SMALL
bcc


@<TRIPOS>ATOM
      1 C01        -0.2430    0.5520    0.3800 ca        1 IOC     -0.096000
      2 C02         1.0090   -0.0280    0.1750 ca        1 IOC      0.013000
      3 C03         1.9480   -0.1180    1.2180 ca        1 IOC     -0.458500
      4 C04         1.5920    0.3930    2.4810 ca        1 IOC      0.013000
      5 C05         0.3410    0.9670    2.7010 ca        1 IOC     -0.096000
      6 C06        -0.5790    1.0420    1.6490 ca        1 IOC     -0.079600
      7 C07        -1.9030    1.6880    1.8110 c         1 IOC      0.541700
      8 O08        -2.4070    2.4990    1.0500 o         1 IOC     -0.361100
      9 N09        -2.7100    1.2980    3.0180 ny        1 IOC     -0.681800
     10 C10        -3.8610    0.3900    2.6420 c3        1 IOC      0.193100
     11 S11         3.3650   -0.9240    1.0070 sy        1 IOC      1.462200
     12 NP2         4.4430    0.5050    0.4150 nz        1 IOC     -0.801500
     13 O13         3.3640   -1.7230   -0.1100 o         1 IOC     -0.533300
     14 O14         3.9820   -1.2360    2.1960 o         1 IOC     -0.533300
     15 C15        -4.6250   -0.0370    3.8420 ca        1 IOC     -0.230300
     16 C16        -3.9960   -0.8390    4.8240 ca        1 IOC      0.103900
     17 C17        -4.7300   -1.3390    5.9220 ca        1 IOC      0.089900
     18 C18        -6.1180   -1.0190    6.0240 ca        1 IOC      0.192900
     19 C19        -6.7240   -0.2130    5.0440 ca        1 IOC     -0.144000
     20 C20        -5.9810    0.2710    3.9720 ca        1 IOC     -0.042000
     21 F21        -6.8290   -1.4910    7.0590 f         1 IOC     -0.067900
     22 F22        -2.6740   -1.1190    4.7090 f         1 IOC     -0.142900
     23 F23        -4.1290   -2.1000    6.8540 f         1 IOC     -0.075900
     24 H011       -0.9590    0.6270   -0.4600 ha        1 IOC      0.186000
     25 H021        1.2500   -0.4410   -0.8270 ha        1 IOC      0.196500
     26 H041        2.3050    0.3180    3.3270 ha        1 IOC      0.196500
     27 H051        0.1110    1.3700    3.7030 ha        1 IOC      0.186000
     28 H091       -2.1200    0.8120    3.7070 hn        1 IOC      0.472300
     29 H101       -4.5160    0.9560    1.9150 hx        1 IOC      0.120200
     30 H102       -3.4160   -0.5100    2.1250 hx        1 IOC      0.120200
     31 HP21        4.8260    0.3030   -0.5140 hn        1 IOC      0.471800
     32 HP22        5.2420    0.6360    1.0430 hn        1 IOC      0.471800
     33 H191       -7.7990    0.0250    5.1350 ha        1 IOC      0.199000
     34 H201       -6.4830    0.8930    3.2110 ha        1 IOC      0.169000
     35 H092       -3.0990    2.1460    3.4570 hn        1 IOC      0.472300
     36 HP23        3.9580    1.3970    0.3530 hn        1 IOC      0.471800
@<TRIPOS>BOND
     1    1    2 ar  
     2    1    6 ar  
     3    1   24 1   
     4    2    3 ar  
     5    2   25 1   
     6    3    4 ar  
     7    3   11 1   
     8    4    5 ar  
     9    4   26 1   
    10    5    6 ar  
    11    5   27 1   
    12    6    7 1   
    13    7    8 2   
    14    7    9 1   
    15    9   10 1   
    16    9   28 1   
    17    9   35 1   
    18   10   15 1   
    19   10   29 1   
    20   10   30 1   
    21   11   12 1   
    22   11   13 2   
    23   11   14 2   
    24   12   31 1   
    25   12   32 1   
    26   12   36 1   
    27   15   16 ar  
    28   15   20 ar  
    29   16   17 ar  
    30   16   22 1   
    31   17   18 ar  
    32   17   23 1   
    33   18   19 ar  
    34   18   21 1   
    35   19   20 ar  
    36   19   33 1   
    37   20   34 1   
@<TRIPOS>SUBSTRUCTURE
     1 IOC         1 TEMP              0 ****  ****    0 ROOT
