@<TRIPOS>MOLECULE
IOC
   34    29     1     0     0
SMALL
bcc


@<TRIPOS>ATOM
      1 C01         1.5160    0.1320   -0.2830 c1        1 IOC     -0.134000
      2 C02         2.9190    0.1130   -0.2890 c1        1 IOC     -0.026000
      3 C03         3.6010    0.0490   -1.4810 c1        1 IOC     -0.804000
      4 C04         2.9060    0.0060   -2.6640 c1        1 IOC     -0.066500
      5 C05         1.4850    0.0260   -2.6580 c1        1 IOC     -0.066500
      6 C06         0.8150    0.0870   -1.4950 c1        1 IOC     -0.060000
      7 C07        -0.7020    0.1930   -1.5040 c2        1 IOC      0.338000
      8 O08        -1.3330    0.1510   -2.6080 o         1 IOC     -0.355000
      9 N09        -1.4430    0.2630   -0.2280 n         1 IOC     -0.369000
     10 C10        -2.8220    0.5350   -0.2260 c3        1 IOC      0.013000
     11 S11         5.4090    0.1130   -1.4930 s4        1 IOC      2.079800
     12 NP2         6.0150   -1.3780   -1.5340 n2        1 IOC     -0.954000
     13 O13         5.8920    0.8220   -0.4030 o         1 IOC     -0.541900
     14 O14         5.9110    0.9250   -2.6010 o         1 IOC     -0.541900
     15 C15        -3.3990    0.2470    1.1730 c2        1 IOC     -0.133000
     16 C16        -3.4310    1.2470    2.1230 c2        1 IOC      0.080000
     17 C17        -3.9580    0.9910    3.3810 c1        1 IOC      0.023000
     18 C18        -4.4590   -0.2830    3.6890 c1        1 IOC      0.088000
     19 C19        -4.4270   -1.2830    2.7370 c1        1 IOC     -0.156000
     20 C20        -3.8980   -1.0270    1.4760 c1        1 IOC     -0.078000
     21 F21        -5.0130   -0.5300    4.9340 f         1 IOC     -0.082000
     22 F22        -2.9260    2.4200    1.8550 f         1 IOC     -0.092000
     23 F23        -3.9300    1.9260    4.3050 f         1 IOC     -0.075000
     24 H011        1.0130    0.1790    0.5930 ha        1 IOC      0.144000
     25 H021        3.4180    0.1440    0.5660 ha        1 IOC      0.159000
     26 H041        3.4010   -0.0410   -3.5310 ha        1 IOC      0.160500
     27 H051        0.9550   -0.0070   -3.5670 ha        1 IOC      0.160500
     28 H091       -1.0600    0.0660    0.4840 hn        1 IOC      0.234000
     29 H101       -2.9770    1.5200   -0.4620 h1        1 IOC      0.119500
     30 H102       -3.2900   -0.0660   -0.9200 h1        1 IOC      0.119500
     31 HP21        6.2130   -1.8320   -0.7200 hn        1 IOC      0.245000
     32 HP22        6.2450   -1.7800   -2.3760 hn        1 IOC      0.245000
     33 H191       -4.7760   -2.1720    2.9490 ha        1 IOC      0.163000
     34 H201       -3.8720   -1.7570    0.7800 ha        1 IOC      0.159000
@<TRIPOS>BOND
     1    1    6 1   
     2    1   24 1   
     3    2    3 1   
     4    2   25 1   
     5    3   11 1   
     6    4    5 1   
     7    4   26 1   
     8    5   27 1   
     9    6    7 1   
    10    7    8 1   
    11    7    9 1   
    12    9   10 1   
    13    9   28 1   
    14   10   15 1   
    15   10   29 1   
    16   10   30 1   
    17   11   13 1   
    18   11   14 1   
    19   12   31 1   
    20   12   32 1   
    21   15   16 1   
    22   15   20 1   
    23   16   17 1   
    24   16   22 1   
    25   17   23 1   
    26   18   19 1   
    27   18   21 1   
    28   19   33 1   
    29   20   34 1   
@<TRIPOS>SUBSTRUCTURE
     1 IOC         1 TEMP              0 ****  ****    0 ROOT
