@<TRIPOS>MOLECULE
IOC
   36    37     1     0     0
SMALL
bcc


@<TRIPOS>ATOM
      1 C01        -0.2340    0.5120    0.3770 ca        1 IOC     -0.096000
      2 C02         1.0290   -0.0510    0.1950 ca        1 IOC      0.013000
      3 C03         1.9620   -0.1000    1.2460 ca        1 IOC     -0.458500
      4 C04         1.5890    0.4370    2.4930 ca        1 IOC      0.013000
      5 C05         0.3280    0.9950    2.6910 ca        1 IOC     -0.096000
      6 C06        -0.5860    1.0270    1.6320 ca        1 IOC     -0.079600
      7 C07        -1.9220    1.6550    1.7700 c         1 IOC      0.541700
      8 O08        -2.4350    2.4380    0.9850 o         1 IOC     -0.361100
      9 N09        -2.7300    1.2820    2.9810 n4        1 IOC     -0.681800
     10 C10        -3.8660    0.3490    2.6210 c3        1 IOC      0.193100
     11 S11         3.3940   -0.8860    1.0630 sy        1 IOC      1.462200
     12 NP2         4.4520    0.5460    0.4410 n4        1 IOC     -0.801500
     13 O13         3.4140   -1.7130   -0.0340 o         1 IOC     -0.533300
     14 O14         4.0090   -1.1570    2.2630 o         1 IOC     -0.533300
     15 C15        -4.6300   -0.0610    3.8270 ca        1 IOC     -0.230300
     16 C16        -3.9950   -0.8290    4.8320 ca        1 IOC      0.103900
     17 C17        -4.7270   -1.3120    5.9380 ca        1 IOC      0.089900
     18 C18        -6.1200   -1.0110    6.0240 ca        1 IOC      0.192900
     19 C19        -6.7330   -0.2380    5.0210 ca        1 IOC     -0.144000
     20 C20        -5.9910    0.2310    3.9420 ca        1 IOC     -0.042000
     21 F21        -6.8310   -1.4680    7.0670 f         1 IOC     -0.067900
     22 F22        -2.6680   -1.0920    4.7310 f         1 IOC     -0.142900
     23 F23        -4.1210   -2.0420    6.8920 f         1 IOC     -0.075900
     24 H011       -0.9460    0.5530   -0.4690 ha        1 IOC      0.186000
     25 H021        1.2830   -0.4850   -0.7950 ha        1 IOC      0.196500
     26 H041        2.2990    0.3960    3.3450 ha        1 IOC      0.196500
     27 H051        0.0850    1.4190    3.6800 ha        1 IOC      0.186000
     28 H091       -3.1340    2.1340    3.3980 hn        1 IOC      0.472300
     29 H101       -3.4050   -0.5580    2.1290 hx        1 IOC      0.120200
     30 H102       -4.5250    0.8860    1.8770 hx        1 IOC      0.120200
     31 HP21        5.2440    0.7060    1.0710 hn        1 IOC      0.471800
     32 HP22        4.8440    0.3260   -0.4800 hn        1 IOC      0.471800
     33 H191       -7.8120   -0.0140    5.1010 ha        1 IOC      0.199000
     34 H201       -6.4980    0.8260    3.1630 ha        1 IOC      0.169000
     35 H092       -2.1370    0.8220    3.6850 hn        1 IOC      0.472300
     36 HP23        3.9520    1.4270    0.3540 hn        1 IOC      0.471800
@<TRIPOS>BOND
     1    1    2 ar  
     2    1    6 ar  
     3    1   24 1   
     4    2    3 ar  
     5    2   25 1   
     6    3    4 ar  
     7    3   11 1   
     8    4    5 ar  
     9    4   26 1   
    10    5    6 ar  
    11    5   27 1   
    12    6    7 1   
    13    7    8 2   
    14    7    9 1   
    15    9   10 1   
    16    9   28 1   
    17    9   35 1   
    18   10   15 1   
    19   10   29 1   
    20   10   30 1   
    21   11   12 1   
    22   11   13 2   
    23   11   14 2   
    24   12   31 1   
    25   12   32 1   
    26   12   36 1   
    27   15   16 ar  
    28   15   20 ar  
    29   16   17 ar  
    30   16   22 1   
    31   17   18 ar  
    32   17   23 1   
    33   18   19 ar  
    34   18   21 1   
    35   19   20 ar  
    36   19   33 1   
    37   20   34 1   
@<TRIPOS>SUBSTRUCTURE
     1 IOC         1 TEMP              0 ****  ****    0 ROOT
