@<TRIPOS>MOLECULE
IOC
   36    37     1     0     0
SMALL
bcc


@<TRIPOS>ATOM
      1 C01        -0.2330    0.4810    0.3730 ca        1 IOC     -0.096000
      2 C02         1.0340   -0.0770    0.2040 ca        1 IOC      0.013000
      3 C03         1.9650   -0.1020    1.2570 ca        1 IOC     -0.458500
      4 C04         1.5860    0.4540    2.4940 ca        1 IOC      0.013000
      5 C05         0.3210    1.0080    2.6800 ca        1 IOC     -0.096000
      6 C06        -0.5910    1.0160    1.6180 ca        1 IOC     -0.079600
      7 C07        -1.9310    1.6380    1.7420 c         1 IOC      0.541700
      8 O08        -2.4470    2.4040    0.9430 o         1 IOC     -0.361100
      9 N09        -2.7400    1.2820    2.9580 n4        1 IOC     -0.681800
     10 C10        -3.8650    0.3310    2.6120 c3        1 IOC      0.193100
     11 S11         3.4020   -0.8830    1.0930 sy        1 IOC      1.462200
     12 NP2         4.4530    0.5440    0.4480 n4        1 IOC     -0.801500
     13 O13         3.4290   -1.7290    0.0100 o         1 IOC     -0.533300
     14 O14         4.0150   -1.1290    2.2980 o         1 IOC     -0.533300
     15 C15        -4.6290   -0.0630    3.8240 ca        1 IOC     -0.230300
     16 C16        -3.9900   -0.8060    4.8440 ca        1 IOC      0.103900
     17 C17        -4.7210   -1.2750    5.9580 ca        1 IOC      0.089900
     18 C18        -6.1170   -0.9850    6.0340 ca        1 IOC      0.192900
     19 C19        -6.7340   -0.2380    5.0160 ca        1 IOC     -0.144000
     20 C20        -5.9930    0.2180    3.9290 ca        1 IOC     -0.042000
     21 F21        -6.8260   -1.4290    7.0840 f         1 IOC     -0.067900
     22 F22        -2.6600   -1.0580    4.7520 f         1 IOC     -0.143900
     23 F23        -4.1110   -1.9800    6.9270 f         1 IOC     -0.075900
     24 H011       -0.9430    0.5040   -0.4750 ha        1 IOC      0.186000
     25 H021        1.2930   -0.5270   -0.7770 ha        1 IOC      0.196500
     26 H041        2.2940    0.4320    3.3490 ha        1 IOC      0.196500
     27 H051        0.0730    1.4480    3.6610 ha        1 IOC      0.186000
     28 H091       -2.1450    0.8410    3.6720 hn        1 IOC      0.472300
     29 H101       -4.5270    0.8480    1.8570 hx        1 IOC      0.120200
     30 H102       -3.3940   -0.5800    2.1390 hx        1 IOC      0.120200
     31 HP21        4.8490    0.3110   -0.4680 hn        1 IOC      0.471800
     32 HP22        5.2420    0.7200    1.0770 hn        1 IOC      0.471800
     33 H191       -7.8150   -0.0220    5.0880 ha        1 IOC      0.199000
     34 H201       -6.5040    0.7940    3.1380 ha        1 IOC      0.169000
     35 H092       -3.1520    2.1380    3.3560 hn        1 IOC      0.472300
     36 HP23        3.9480    1.4210    0.3440 hn        1 IOC      0.471800
@<TRIPOS>BOND
     1    1    2 ar  
     2    1    6 ar  
     3    1   24 1   
     4    2    3 ar  
     5    2   25 1   
     6    3    4 ar  
     7    3   11 1   
     8    4    5 ar  
     9    4   26 1   
    10    5    6 ar  
    11    5   27 1   
    12    6    7 1   
    13    7    8 2   
    14    7    9 1   
    15    9   10 1   
    16    9   28 1   
    17    9   35 1   
    18   10   15 1   
    19   10   29 1   
    20   10   30 1   
    21   11   12 1   
    22   11   13 2   
    23   11   14 2   
    24   12   31 1   
    25   12   32 1   
    26   12   36 1   
    27   15   16 ar  
    28   15   20 ar  
    29   16   17 ar  
    30   16   22 1   
    31   17   18 ar  
    32   17   23 1   
    33   18   19 ar  
    34   18   21 1   
    35   19   20 ar  
    36   19   33 1   
    37   20   34 1   
@<TRIPOS>SUBSTRUCTURE
     1 IOC         1 TEMP              0 ****  ****    0 ROOT
