@<TRIPOS>MOLECULE
IOE
   34    29     1     0     0
SMALL
bcc


@<TRIPOS>ATOM
      1 C01         1.5440    0.0910   -2.6210 c1        1 IOE     -0.106000
      2 C02         2.9320    0.0940   -2.6250 c1        1 IOE     -0.027000
      3 C03         3.6300    0.0890   -1.4260 c1        1 IOE     -0.805000
      4 C04         2.9410    0.0810   -0.2240 c1        1 IOE     -0.081000
      5 C05         1.5520    0.0790   -0.2200 c1        1 IOE     -0.081000
      6 C06         0.8550    0.0840   -1.4190 c1        1 IOE     -0.059000
      7 C07        -0.6770    0.1020   -1.4140 c2        1 IOE      0.335000
      8 O08        -1.2880    0.1240   -2.4660 o         1 IOE     -0.344000
      9 N09        -1.3910    0.1480   -0.1690 n         1 IOE     -0.370000
     10 C10        -2.8330    0.2440   -0.1660 c3        1 IOE      0.015000
     11 S11         5.4080    0.1730   -1.4300 s4        1 IOE      2.079800
     12 NP2         5.9060    1.7180   -1.7150 n2        1 IOE     -0.954000
     13 O13         5.9720   -0.7430   -2.3880 o         1 IOE     -0.541400
     14 O14         5.9570   -0.3340   -0.2020 o         1 IOE     -0.541400
     15 C15        -3.3730   -0.2170    1.1920 c2        1 IOE     -0.196000
     16 C16        -3.6390   -1.5600    1.4120 c2        1 IOE      0.163000
     17 C17        -4.2010   -1.9690    2.6160 c1        1 IOE     -0.222000
     18 C18        -4.4940   -1.0370    3.5940 c1        1 IOE      0.151000
     19 C19        -4.2290    0.3060    3.3750 c1        1 IOE     -0.222000
     20 C20        -3.6670    0.7150    2.1720 c1        1 IOE      0.141000
     21 F21        -3.4450    2.0130    1.9470 f         1 IOE     -0.102000
     22 F22        -5.0850   -1.4270    4.7370 f         1 IOE     -0.089000
     23 F23        -3.4120   -2.4520    0.4450 f         1 IOE     -0.082000
     24 H011        1.0550    0.0950   -3.4610 ha        1 IOE      0.164000
     25 H021        3.4170    0.0990   -3.4720 ha        1 IOE      0.159000
     26 H041        3.4300    0.0780    0.6170 ha        1 IOE      0.150500
     27 H051        1.0660    0.0730    0.6290 ha        1 IOE      0.150500
     28 H091       -0.9320    0.1550    0.6180 hn        1 IOE      0.230000
     29 H101       -3.1990   -0.3250   -0.8720 h1        1 IOE      0.124000
     30 H102       -3.0980    1.1710   -0.3240 h1        1 IOE      0.124000
     31 HP21        6.2740    1.9380   -2.5240 hn        1 IOE      0.244500
     32 HP22        5.8480    2.3450   -1.0540 hn        1 IOE      0.244500
     33 H171       -4.3880   -2.9160    2.7710 ha        1 IOE      0.174000
     34 H191       -4.4370    0.9660    4.0680 ha        1 IOE      0.172000
@<TRIPOS>BOND
     1    1    6 1   
     2    1   24 1   
     3    2    3 1   
     4    2   25 1   
     5    3   11 1   
     6    4    5 1   
     7    4   26 1   
     8    5   27 1   
     9    6    7 1   
    10    7    8 1   
    11    7    9 1   
    12    9   10 1   
    13    9   28 1   
    14   10   15 1   
    15   10   29 1   
    16   10   30 1   
    17   11   13 1   
    18   11   14 1   
    19   12   31 1   
    20   12   32 1   
    21   15   16 1   
    22   15   20 1   
    23   16   17 1   
    24   16   23 1   
    25   17   33 1   
    26   18   19 1   
    27   18   22 1   
    28   19   34 1   
    29   20   21 1   
@<TRIPOS>SUBSTRUCTURE
     1 IOE         1 TEMP              0 ****  ****    0 ROOT
