@<TRIPOS>MOLECULE
IOE
   36    37     1     0     0
SMALL
bcc


@<TRIPOS>ATOM
      1 C01        -0.2200    0.3600    0.3990 ca        1 IOE     -0.097500
      2 C02         1.0640   -0.1500    0.2100 ca        1 IOE      0.013000
      3 C03         2.0320   -0.0780    1.2280 ca        1 IOE     -0.460500
      4 C04         1.6700    0.5200    2.4500 ca        1 IOE      0.013000
      5 C05         0.3870    1.0240    2.6560 ca        1 IOE     -0.097500
      6 C06        -0.5590    0.9420    1.6280 ca        1 IOE     -0.078600
      7 C07        -1.9150    1.5240    1.7690 c         1 IOE      0.538700
      8 O08        -2.4650    2.2620    0.9660 o         1 IOE     -0.356100
      9 N09        -2.6910    1.1620    3.0030 n4        1 IOE     -0.680800
     10 C10        -3.8120    0.1950    2.6830 c3        1 IOE      0.199100
     11 S11         3.4990   -0.7930    1.0450 sy        1 IOE      1.462200
     12 NP2         4.4520    0.6500    0.2930 n4        1 IOE     -0.801500
     13 O13         3.5320   -1.6910    0.0050 o         1 IOE     -0.533800
     14 O14         4.1670   -0.9500    2.2370 o         1 IOE     -0.533800
     15 C15        -4.5900   -0.1360    3.8990 ca        1 IOE     -0.316300
     16 C16        -5.4520    0.8290    4.4780 ca        1 IOE      0.214400
     17 C17        -6.2990    0.5090    5.5400 ca        1 IOE     -0.208500
     18 C18        -6.2880   -0.8080    6.0490 ca        1 IOE      0.258900
     19 C19        -5.4240   -1.7830    5.5120 ca        1 IOE     -0.208500
     20 C20        -4.5800   -1.4400    4.4480 ca        1 IOE      0.214400
     21 F21        -3.7440   -2.3670    3.9310 f         1 IOE     -0.123400
     22 F22        -7.1060   -1.1320    7.0630 f         1 IOE     -0.073900
     23 F23        -5.4240    2.0910    3.9850 f         1 IOE     -0.123400
     24 H011       -0.9590    0.3090   -0.4230 ha        1 IOE      0.186000
     25 H021        1.3100   -0.6360   -0.7570 ha        1 IOE      0.196000
     26 H041        2.4080    0.5740    3.2770 ha        1 IOE      0.196000
     27 H051        0.1500    1.5020    3.6220 ha        1 IOE      0.186000
     28 H091       -3.1230    2.0160    3.3960 hn        1 IOE      0.469300
     29 H101       -3.3540   -0.7300    2.2280 hx        1 IOE      0.125200
     30 H102       -4.4700    0.7090    1.9190 hx        1 IOE      0.125200
     31 HP21        3.8980    1.4940    0.1670 hn        1 IOE      0.471800
     32 HP22        4.8250    0.3920   -0.6260 hn        1 IOE      0.471800
     33 H171       -6.9750    1.2670    5.9730 ha        1 IOE      0.206500
     34 H191       -5.4190   -2.8080    5.9210 ha        1 IOE      0.206500
     35 H092       -2.0760    0.7500    3.7110 hn        1 IOE      0.469300
     36 HP23        5.2530    0.8960    0.8810 hn        1 IOE      0.471800
@<TRIPOS>BOND
     1    1    2 ar  
     2    1    6 ar  
     3    1   24 1   
     4    2    3 ar  
     5    2   25 1   
     6    3    4 ar  
     7    3   11 1   
     8    4    5 ar  
     9    4   26 1   
    10    5    6 ar  
    11    5   27 1   
    12    6    7 1   
    13    7    8 2   
    14    7    9 1   
    15    9   10 1   
    16    9   28 1   
    17    9   35 1   
    18   10   15 1   
    19   10   29 1   
    20   10   30 1   
    21   11   12 1   
    22   11   13 2   
    23   11   14 2   
    24   12   31 1   
    25   12   32 1   
    26   12   36 1   
    27   15   16 ar  
    28   15   20 ar  
    29   16   17 ar  
    30   16   23 1   
    31   17   18 ar  
    32   17   33 1   
    33   18   19 ar  
    34   18   22 1   
    35   19   20 ar  
    36   19   34 1   
    37   20   21 1   
@<TRIPOS>SUBSTRUCTURE
     1 IOE         1 TEMP              0 ****  ****    0 ROOT
