@<TRIPOS>MOLECULE
IOE
   34    35     1     0     0
SMALL
bcc


@<TRIPOS>ATOM
      1 C01        -1.7230   -0.5890    2.3290 ca        1 IOE     -0.121000
      2 C02        -1.2130   -0.3810    3.6080 ca        1 IOE     -0.026000
      3 C03         0.0870    0.0980    3.7940 ca        1 IOE     -0.361500
      4 C04         0.8700    0.3770    2.6690 ca        1 IOE     -0.026000
      5 C05         0.3710    0.1790    1.3830 ca        1 IOE     -0.121000
      6 C06        -0.9280   -0.3050    1.2130 ca        1 IOE     -0.079600
      7 C07        -1.4960   -0.5600   -0.1470 c         1 IOE      0.663700
      8 O08        -2.1500   -1.5920   -0.3930 o         1 IOE     -0.586100
      9 N09        -1.3130    0.4290   -1.0950 n         1 IOE     -0.562900
     10 C10        -1.7270    0.2740   -2.4610 c3        1 IOE      0.140300
     11 S11         0.6950    0.3680    5.3570 sy        1 IOE      1.525200
     12 NP2         1.3270   -1.0490    5.7480 n3        1 IOE     -1.026700
     13 O13        -0.3930    0.6450    6.2090 o         1 IOE     -0.654800
     14 O14         1.7240    1.3280    5.2650 o         1 IOE     -0.654800
     15 C15        -0.6000    0.0710   -3.4360 ca        1 IOE     -0.202300
     16 C16        -0.5530   -1.0660   -4.2690 ca        1 IOE      0.186900
     17 C17         0.4790   -1.2430   -5.2060 ca        1 IOE     -0.222500
     18 C18         1.4830   -0.2690   -5.3110 ca        1 IOE      0.184900
     19 C19         1.4650    0.8760   -4.4970 ca        1 IOE     -0.222500
     20 C20         0.4240    1.0320   -3.5680 ca        1 IOE      0.186900
     21 F21         0.4100    2.1390   -2.7870 f         1 IOE     -0.125900
     22 F22         2.4820   -0.4320   -6.2080 f         1 IOE     -0.123900
     23 F23        -1.5170   -2.0110   -4.1830 f         1 IOE     -0.125900
     24 H011       -2.7420   -0.9830    2.1860 ha        1 IOE      0.153000
     25 H021       -1.8490   -0.5810    4.4890 ha        1 IOE      0.158000
     26 H041        1.8910    0.7760    2.8050 ha        1 IOE      0.158000
     27 H051        1.0100    0.3960    0.5130 ha        1 IOE      0.153000
     28 H091       -0.7200    1.1980   -0.8850 hn        1 IOE      0.319500
     29 H101       -2.4450   -0.5970   -2.5270 h1        1 IOE      0.084700
     30 H102       -2.2740    1.2150   -2.7660 h1        1 IOE      0.084700
     31 HP21        2.2670   -1.2980    5.5720 hn        1 IOE      0.449800
     32 HP22        0.8240   -1.7630    6.2130 hn        1 IOE      0.449800
     33 H171        0.4980   -2.1370   -5.8470 ha        1 IOE      0.173000
     34 H191        2.2520    1.6380   -4.5850 ha        1 IOE      0.173000
@<TRIPOS>BOND
     1    1    2 ar  
     2    1    6 ar  
     3    1   24 1   
     4    2    3 ar  
     5    2   25 1   
     6    3    4 ar  
     7    3   11 1   
     8    4    5 ar  
     9    4   26 1   
    10    5    6 ar  
    11    5   27 1   
    12    6    7 1   
    13    7    8 2   
    14    7    9 1   
    15    9   10 1   
    16    9   28 1   
    17   10   15 1   
    18   10   29 1   
    19   10   30 1   
    20   11   12 1   
    21   11   13 2   
    22   11   14 2   
    23   12   31 1   
    24   12   32 1   
    25   15   16 ar  
    26   15   20 ar  
    27   16   17 ar  
    28   16   23 1   
    29   17   18 ar  
    30   17   33 1   
    31   18   19 ar  
    32   18   22 1   
    33   19   20 ar  
    34   19   34 1   
    35   20   21 1   
@<TRIPOS>SUBSTRUCTURE
     1 IOE         1 TEMP              0 ****  ****    0 ROOT
