@<TRIPOS>MOLECULE
IOE
   36    37     1     0     0
SMALL
bcc


@<TRIPOS>ATOM
      1 C01        -0.2140    0.3270    0.3980 ca        1 IOE     -0.097500
      2 C02         1.0760   -0.1720    0.2200 ca        1 IOE      0.013000
      3 C03         2.0410   -0.0710    1.2380 ca        1 IOE     -0.460500
      4 C04         1.6700    0.5430    2.4490 ca        1 IOE      0.013000
      5 C05         0.3820    1.0370    2.6440 ca        1 IOE     -0.097500
      6 C06        -0.5610    0.9260    1.6160 ca        1 IOE     -0.078600
      7 C07        -1.9250    1.4940    1.7440 c         1 IOE      0.538700
      8 O08        -2.4820    2.2110    0.9270 o         1 IOE     -0.356100
      9 N09        -2.6980    1.1460    2.9840 n4        1 IOE     -0.680800
     10 C10        -3.8190    0.1740    2.6780 c3        1 IOE      0.199100
     11 S11         3.5180   -0.7730    1.0700 sy        1 IOE      1.462200
     12 NP2         4.4540    0.6680    0.2940 n4        1 IOE     -0.801500
     13 O13         3.5620   -1.6870    0.0450 o         1 IOE     -0.533800
     14 O14         4.1850   -0.9000    2.2650 o         1 IOE     -0.533800
     15 C15        -4.5950   -0.1420    3.8980 ca        1 IOE     -0.315300
     16 C16        -5.4560    0.8300    4.4680 ca        1 IOE      0.214400
     17 C17        -6.3020    0.5220    5.5350 ca        1 IOE     -0.208500
     18 C18        -6.2900   -0.7890    6.0580 ca        1 IOE      0.258900
     19 C19        -5.4270   -1.7700    5.5320 ca        1 IOE     -0.208500
     20 C20        -4.5850   -1.4390    4.4630 ca        1 IOE      0.214400
     21 F21        -3.7490   -2.3730    3.9560 f         1 IOE     -0.123900
     22 F22        -7.1070   -1.1010    7.0780 f         1 IOE     -0.073900
     23 F23        -5.4280    2.0850    3.9600 f         1 IOE     -0.123900
     24 H011       -0.9510    0.2530   -0.4240 ha        1 IOE      0.186000
     25 H021        1.3290   -0.6720   -0.7380 ha        1 IOE      0.196000
     26 H041        2.4060    0.6200    3.2760 ha        1 IOE      0.196000
     27 H051        0.1370    1.5280    3.6010 ha        1 IOE      0.186000
     28 H091       -3.1300    2.0040    3.3680 hn        1 IOE      0.469300
     29 H101       -4.4780    0.6780    1.9080 hx        1 IOE      0.125200
     30 H102       -3.3610   -0.7560    2.2340 hx        1 IOE      0.125200
     31 HP21        4.8320    0.3990   -0.6190 hn        1 IOE      0.471800
     32 HP22        3.8920    1.5040    0.1530 hn        1 IOE      0.471800
     33 H171       -6.9770    1.2850    5.9590 ha        1 IOE      0.206500
     34 H191       -5.4220   -2.7910    5.9520 ha        1 IOE      0.206500
     35 H092       -2.0810    0.7440    3.6960 hn        1 IOE      0.469300
     36 HP23        5.2520    0.9340    0.8800 hn        1 IOE      0.471800
@<TRIPOS>BOND
     1    1    2 ar  
     2    1    6 ar  
     3    1   24 1   
     4    2    3 ar  
     5    2   25 1   
     6    3    4 ar  
     7    3   11 1   
     8    4    5 ar  
     9    4   26 1   
    10    5    6 ar  
    11    5   27 1   
    12    6    7 1   
    13    7    8 2   
    14    7    9 1   
    15    9   10 1   
    16    9   28 1   
    17    9   35 1   
    18   10   15 1   
    19   10   29 1   
    20   10   30 1   
    21   11   12 1   
    22   11   13 2   
    23   11   14 2   
    24   12   31 1   
    25   12   32 1   
    26   12   36 1   
    27   15   16 ar  
    28   15   20 ar  
    29   16   17 ar  
    30   16   23 1   
    31   17   18 ar  
    32   17   33 1   
    33   18   19 ar  
    34   18   22 1   
    35   19   20 ar  
    36   19   34 1   
    37   20   21 1   
@<TRIPOS>SUBSTRUCTURE
     1 IOE         1 TEMP              0 ****  ****    0 ROOT
