@<TRIPOS>MOLECULE
IOE
   36    37     1     0     0
SMALL
bcc


@<TRIPOS>ATOM
      1 C01        -0.2150    0.3280    0.3990 ca        1 IOE     -0.097500
      2 C02         1.0770   -0.1660    0.2240 ca        1 IOE      0.013000
      3 C03         2.0410   -0.0580    1.2430 ca        1 IOE     -0.460500
      4 C04         1.6660    0.5610    2.4510 ca        1 IOE      0.013000
      5 C05         0.3750    1.0500    2.6420 ca        1 IOE     -0.097500
      6 C06        -0.5660    0.9310    1.6140 ca        1 IOE     -0.078600
      7 C07        -1.9320    1.4940    1.7390 c         1 IOE      0.538700
      8 O08        -2.4910    2.2060    0.9190 o         1 IOE     -0.356100
      9 N09        -2.7050    1.1470    2.9790 ny        1 IOE     -0.680800
     10 C10        -3.8150    0.1600    2.6760 c3        1 IOE      0.199100
     11 S11         3.5200   -0.7540    1.0790 sy        1 IOE      1.462200
     12 NP2         4.4520    0.6870    0.2980 nz        1 IOE     -0.801500
     13 O13         3.5690   -1.6730    0.0590 o         1 IOE     -0.533800
     14 O14         4.1860   -0.8740    2.2750 o         1 IOE     -0.533800
     15 C15        -4.5910   -0.1560    3.8970 ca        1 IOE     -0.315300
     16 C16        -5.4640    0.8090    4.4570 ca        1 IOE      0.214400
     17 C17        -6.3090    0.4990    5.5240 ca        1 IOE     -0.208500
     18 C18        -6.2840   -0.8080    6.0560 ca        1 IOE      0.258900
     19 C19        -5.4080   -1.7820    5.5390 ca        1 IOE     -0.208500
     20 C20        -4.5670   -1.4490    4.4700 ca        1 IOE      0.214400
     21 F21        -3.7200   -2.3770    3.9710 f         1 IOE     -0.123400
     22 F22        -7.1000   -1.1220    7.0760 f         1 IOE     -0.073900
     23 F23        -5.4500    2.0620    3.9400 f         1 IOE     -0.123400
     24 H011       -0.9510    0.2480   -0.4230 ha        1 IOE      0.186000
     25 H021        1.3330   -0.6690   -0.7310 ha        1 IOE      0.196000
     26 H041        2.4010    0.6440    3.2780 ha        1 IOE      0.196000
     27 H051        0.1290    1.5440    3.5980 ha        1 IOE      0.186000
     28 H091       -3.1480    2.0020    3.3550 hn        1 IOE      0.469300
     29 H101       -3.3450   -0.7680    2.2390 hx        1 IOE      0.125200
     30 H102       -4.4780    0.6520    1.9010 hx        1 IOE      0.125200
     31 HP21        3.8860    1.5200    0.1520 hn        1 IOE      0.471800
     32 HP22        4.8320    0.4150   -0.6140 hn        1 IOE      0.471800
     33 H171       -6.9940    1.2580    5.9410 ha        1 IOE      0.206500
     34 H191       -5.3930   -2.8000    5.9660 ha        1 IOE      0.206500
     35 H092       -2.0870    0.7560    3.6960 hn        1 IOE      0.469300
     36 HP23        5.2480    0.9580    0.8830 hn        1 IOE      0.471800
@<TRIPOS>BOND
     1    1    2 ar  
     2    1    6 ar  
     3    1   24 1   
     4    2    3 ar  
     5    2   25 1   
     6    3    4 ar  
     7    3   11 1   
     8    4    5 ar  
     9    4   26 1   
    10    5    6 ar  
    11    5   27 1   
    12    6    7 1   
    13    7    8 2   
    14    7    9 1   
    15    9   10 1   
    16    9   28 1   
    17    9   35 1   
    18   10   15 1   
    19   10   29 1   
    20   10   30 1   
    21   11   12 1   
    22   11   13 2   
    23   11   14 2   
    24   12   31 1   
    25   12   32 1   
    26   12   36 1   
    27   15   16 ar  
    28   15   20 ar  
    29   16   17 ar  
    30   16   23 1   
    31   17   18 ar  
    32   17   33 1   
    33   18   19 ar  
    34   18   22 1   
    35   19   20 ar  
    36   19   34 1   
    37   20   21 1   
@<TRIPOS>SUBSTRUCTURE
     1 IOE         1 TEMP              0 ****  ****    0 ROOT
