@<TRIPOS>MOLECULE
IOF
   34    35     1     0     0
SMALL
bcc


@<TRIPOS>ATOM
      1 C01        -1.7400   -0.6470    2.5000 ca        1 IOF     -0.121000
      2 C02        -1.1970   -0.5760    3.7810 ca        1 IOF     -0.025000
      3 C03         0.0940   -0.0800    3.9880 ca        1 IOF     -0.357500
      4 C04         0.8330    0.3550    2.8830 ca        1 IOF     -0.025000
      5 C05         0.3010    0.2960    1.5970 ca        1 IOF     -0.121000
      6 C06        -0.9890   -0.2060    1.4060 ca        1 IOF     -0.081600
      7 C07        -1.5900   -0.3120    0.0420 c         1 IOF      0.662700
      8 O08        -2.2060   -1.3340   -0.3220 o         1 IOF     -0.594100
      9 N09        -1.4820    0.7950   -0.7800 n         1 IOF     -0.558900
     10 C10        -1.9610    0.7880   -2.1340 c3        1 IOF      0.133300
     11 S11         0.7410    0.0250    5.5560 sy        1 IOF      1.524200
     12 NP2         1.4410   -1.3990    5.7530 n3        1 IOF     -1.027700
     13 O13        -0.3310    0.1500    6.4630 o         1 IOF     -0.653800
     14 O14         1.7260    1.0340    5.5520 o         1 IOF     -0.653800
     15 C15        -0.9510    0.3350   -3.1570 ca        1 IOF     -0.089300
     16 C16        -0.5980   -1.0140   -3.2120 ca        1 IOF     -0.148000
     17 C17         0.3210   -1.4600   -4.1750 ca        1 IOF      0.116900
     18 C18         0.8910   -0.5430   -5.0960 ca        1 IOF      0.060900
     19 C19         0.5160    0.8230   -5.0230 ca        1 IOF      0.116900
     20 C20        -0.4020    1.2530   -4.0500 ca        1 IOF     -0.148000
     21 F21         0.6680   -2.7650   -4.2330 f         1 IOF     -0.117900
     22 F22         1.7740   -0.9630   -6.0260 f         1 IOF     -0.108900
     23 F23         1.0490    1.7100   -5.8930 f         1 IOF     -0.117900
     24 H011       -2.7520   -1.0540    2.3400 ha        1 IOF      0.152000
     25 H021       -1.8000   -0.9000    4.6490 ha        1 IOF      0.159000
     26 H041        1.8460    0.7680    3.0380 ha        1 IOF      0.159000
     27 H051        0.9070    0.6320    0.7420 ha        1 IOF      0.152000
     28 H091       -0.8680    1.5290   -0.5150 hn        1 IOF      0.315500
     29 H101       -2.8550    0.0990   -2.1930 h1        1 IOF      0.077200
     30 H102       -2.3000    1.8350   -2.3840 h1        1 IOF      0.077200
     31 HP21        2.3850   -1.5830    5.5240 hn        1 IOF      0.450800
     32 HP22        0.9830   -2.1860    6.1410 hn        1 IOF      0.450800
     33 H161       -1.0420   -1.7330   -2.5020 ha        1 IOF      0.170000
     34 H201       -0.6800    2.3170   -4.0140 ha        1 IOF      0.170000
@<TRIPOS>BOND
     1    1    2 ar  
     2    1    6 ar  
     3    1   24 1   
     4    2    3 ar  
     5    2   25 1   
     6    3    4 ar  
     7    3   11 1   
     8    4    5 ar  
     9    4   26 1   
    10    5    6 ar  
    11    5   27 1   
    12    6    7 1   
    13    7    8 2   
    14    7    9 1   
    15    9   10 1   
    16    9   28 1   
    17   10   15 1   
    18   10   29 1   
    19   10   30 1   
    20   11   12 1   
    21   11   13 2   
    22   11   14 2   
    23   12   31 1   
    24   12   32 1   
    25   15   16 ar  
    26   15   20 ar  
    27   16   17 ar  
    28   16   33 1   
    29   17   18 ar  
    30   17   21 1   
    31   18   19 ar  
    32   18   22 1   
    33   19   20 ar  
    34   19   23 1   
    35   20   34 1   
@<TRIPOS>SUBSTRUCTURE
     1 IOF         1 TEMP              0 ****  ****    0 ROOT
