@<TRIPOS>MOLECULE
IOF
   36    37     1     0     0
SMALL
bcc


@<TRIPOS>ATOM
      1 C01        -0.1510    0.3400    0.3580 ca        1 IOF     -0.097000
      2 C02         1.1540   -0.1070    0.1510 ca        1 IOF      0.012500
      3 C03         2.1060   -0.0760    1.1860 ca        1 IOF     -0.456500
      4 C04         1.7070    0.4170    2.4430 ca        1 IOF      0.012500
      5 C05         0.4040    0.8580    2.6660 ca        1 IOF     -0.097000
      6 C06        -0.5260    0.8170    1.6210 ca        1 IOF     -0.083600
      7 C07        -1.9070    1.3340    1.7800 c         1 IOF      0.539700
      8 O08        -2.4920    2.0650    0.9960 o         1 IOF     -0.359100
      9 N09        -2.6580    0.9120    3.0110 n4        1 IOF     -0.680800
     10 C10        -3.9330    0.1690    2.6640 c3        1 IOF      0.186100
     11 S11         3.6020   -0.7260    0.9740 sy        1 IOF      1.460200
     12 NP2         4.5130    0.7980    0.3430 n4        1 IOF     -0.801500
     13 O13         3.6770   -1.5440   -0.1270 o         1 IOF     -0.532300
     14 O14         4.2570   -0.9450    2.1630 o         1 IOF     -0.532300
     15 C15        -4.7260   -0.1050    3.8920 ca        1 IOF     -0.171300
     16 C16        -5.6700    0.8310    4.3230 ca        1 IOF     -0.137500
     17 C17        -6.4640    0.5580    5.4490 ca        1 IOF      0.137900
     18 C18        -6.3080   -0.6690    6.1530 ca        1 IOF      0.130900
     19 C19        -5.3410   -1.6070    5.6940 ca        1 IOF      0.137900
     20 C20        -4.5570   -1.3170    4.5660 ca        1 IOF     -0.137500
     21 F21        -7.3750    1.4580    5.8660 f         1 IOF     -0.080900
     22 F22        -7.0620   -0.9390    7.2290 f         1 IOF     -0.060900
     23 F23        -5.1800   -2.7760    6.3440 f         1 IOF     -0.080900
     24 H011       -0.8770    0.3230   -0.4770 ha        1 IOF      0.186500
     25 H021        1.4290   -0.5120   -0.8450 ha        1 IOF      0.197000
     26 H041        2.4320    0.4370    3.2830 ha        1 IOF      0.197000
     27 H051        0.1390    1.2540    3.6610 ha        1 IOF      0.186500
     28 H091       -2.9210    1.7510    3.5500 hn        1 IOF      0.466800
     29 H101       -4.5120    0.8200    1.9430 hx        1 IOF      0.122200
     30 H102       -3.6380   -0.7880    2.1470 hx        1 IOF      0.122200
     31 HP21        3.9340    1.6310    0.2690 hn        1 IOF      0.472133
     32 HP22        5.2980    1.0270    0.9600 hn        1 IOF      0.472133
     33 H161       -5.8310    1.7770    3.7810 ha        1 IOF      0.165500
     34 H201       -3.8370   -2.0730    4.2160 ha        1 IOF      0.165500
     35 H092       -2.0730    0.3180    3.6080 hn        1 IOF      0.466800
     36 HP23        4.9080    0.6190   -0.5860 hn        1 IOF      0.472133
@<TRIPOS>BOND
     1    1    2 ar  
     2    1    6 ar  
     3    1   24 1   
     4    2    3 ar  
     5    2   25 1   
     6    3    4 ar  
     7    3   11 1   
     8    4    5 ar  
     9    4   26 1   
    10    5    6 ar  
    11    5   27 1   
    12    6    7 1   
    13    7    8 2   
    14    7    9 1   
    15    9   10 1   
    16    9   28 1   
    17    9   35 1   
    18   10   15 1   
    19   10   29 1   
    20   10   30 1   
    21   11   12 1   
    22   11   13 2   
    23   11   14 2   
    24   12   31 1   
    25   12   32 1   
    26   12   36 1   
    27   15   16 ar  
    28   15   20 ar  
    29   16   17 ar  
    30   16   33 1   
    31   17   18 ar  
    32   17   21 1   
    33   18   19 ar  
    34   18   22 1   
    35   19   20 ar  
    36   19   23 1   
    37   20   34 1   
@<TRIPOS>SUBSTRUCTURE
     1 IOF         1 TEMP              0 ****  ****    0 ROOT
