@<TRIPOS>MOLECULE
IOF
   36    37     1     0     0
SMALL
bcc


@<TRIPOS>ATOM
      1 C01        -0.1380    0.3330    0.3640 ca        1 IOF     -0.097000
      2 C02         1.1690   -0.1150    0.1660 ca        1 IOF      0.012500
      3 C03         2.1140   -0.0800    1.2060 ca        1 IOF     -0.456500
      4 C04         1.7080    0.4160    2.4590 ca        1 IOF      0.012500
      5 C05         0.4040    0.8570    2.6740 ca        1 IOF     -0.097000
      6 C06        -0.5200    0.8130    1.6230 ca        1 IOF     -0.083600
      7 C07        -1.9020    1.3300    1.7730 c         1 IOF      0.539700
      8 O08        -2.4830    2.0590    0.9840 o         1 IOF     -0.359100
      9 N09        -2.6600    0.9110    3.0020 ny        1 IOF     -0.680800
     10 C10        -3.9340    0.1700    2.6500 c3        1 IOF      0.186100
     11 S11         3.6120   -0.7300    1.0050 sy        1 IOF      1.460200
     12 NP2         4.5270    0.7910    0.3740 nz        1 IOF     -0.801500
     13 O13         3.6930   -1.5520   -0.0940 o         1 IOF     -0.532300
     14 O14         4.2600   -0.9460    2.1980 o         1 IOF     -0.532300
     15 C15        -4.7340   -0.1010    3.8740 ca        1 IOF     -0.171300
     16 C16        -5.6780    0.8370    4.2980 ca        1 IOF     -0.137500
     17 C17        -6.4780    0.5690    5.4210 ca        1 IOF      0.137900
     18 C18        -6.3280   -0.6580    6.1280 ca        1 IOF      0.130900
     19 C19        -5.3610   -1.5990    5.6750 ca        1 IOF      0.137900
     20 C20        -4.5700   -1.3120    4.5510 ca        1 IOF     -0.137500
     21 F21        -7.3890    1.4700    5.8320 f         1 IOF     -0.080900
     22 F22        -7.0880   -0.9240    7.2010 f         1 IOF     -0.060900
     23 F23        -5.2050   -2.7670    6.3290 f         1 IOF     -0.080900
     24 H011       -0.8600    0.3130   -0.4750 ha        1 IOF      0.186500
     25 H021        1.4500   -0.5230   -0.8270 ha        1 IOF      0.197000
     26 H041        2.4290    0.4390    3.3030 ha        1 IOF      0.197000
     27 H051        0.1330    1.2560    3.6660 ha        1 IOF      0.186500
     28 H091       -2.9250    1.7520    3.5370 hn        1 IOF      0.466800
     29 H101       -4.5080    0.8190    1.9230 hx        1 IOF      0.122200
     30 H102       -3.6360   -0.7890    2.1360 hx        1 IOF      0.122200
     31 HP21        3.9470    1.6240    0.2940 hn        1 IOF      0.472133
     32 HP22        5.3080    1.0230    0.9950 hn        1 IOF      0.472133
     33 H161       -5.8340    1.7830    3.7540 ha        1 IOF      0.165500
     34 H201       -3.8500   -2.0700    4.2060 ha        1 IOF      0.165500
     35 H092       -2.0780    0.3180    3.6030 hn        1 IOF      0.466800
     36 HP23        4.9260    0.6100   -0.5520 hn        1 IOF      0.472133
@<TRIPOS>BOND
     1    1    2 ar  
     2    1    6 ar  
     3    1   24 1   
     4    2    3 ar  
     5    2   25 1   
     6    3    4 ar  
     7    3   11 1   
     8    4    5 ar  
     9    4   26 1   
    10    5    6 ar  
    11    5   27 1   
    12    6    7 1   
    13    7    8 2   
    14    7    9 1   
    15    9   10 1   
    16    9   28 1   
    17    9   35 1   
    18   10   15 1   
    19   10   29 1   
    20   10   30 1   
    21   11   12 1   
    22   11   13 2   
    23   11   14 2   
    24   12   31 1   
    25   12   32 1   
    26   12   36 1   
    27   15   16 ar  
    28   15   20 ar  
    29   16   17 ar  
    30   16   33 1   
    31   17   18 ar  
    32   17   21 1   
    33   18   19 ar  
    34   18   22 1   
    35   19   20 ar  
    36   19   23 1   
    37   20   34 1   
@<TRIPOS>SUBSTRUCTURE
     1 IOF         1 TEMP              0 ****  ****    0 ROOT
