@<TRIPOS>MOLECULE
IOF
   36    37     1     0     0
SMALL
bcc


@<TRIPOS>ATOM
      1 C01        -0.1370    0.3220    0.3620 ca        1 IOF     -0.097000
      2 C02         1.1710   -0.1230    0.1670 ca        1 IOF      0.012500
      3 C03         2.1160   -0.0790    1.2070 ca        1 IOF     -0.456500
      4 C04         1.7080    0.4220    2.4580 ca        1 IOF      0.012500
      5 C05         0.4020    0.8610    2.6690 ca        1 IOF     -0.097000
      6 C06        -0.5210    0.8080    1.6190 ca        1 IOF     -0.083600
      7 C07        -1.9050    1.3210    1.7660 c         1 IOF      0.539700
      8 O08        -2.4880    2.0430    0.9730 o         1 IOF     -0.359100
      9 N09        -2.6620    0.9070    2.9970 n4        1 IOF     -0.680800
     10 C10        -3.9350    0.1630    2.6500 c3        1 IOF      0.186100
     11 S11         3.6160   -0.7260    1.0100 sy        1 IOF      1.460200
     12 NP2         4.5250    0.7960    0.3710 n4        1 IOF     -0.801500
     13 O13         3.7000   -1.5520   -0.0840 o         1 IOF     -0.532300
     14 O14         4.2640   -0.9320    2.2040 o         1 IOF     -0.532300
     15 C15        -4.7340   -0.1020    3.8760 ca        1 IOF     -0.171300
     16 C16        -5.6780    0.8380    4.2970 ca        1 IOF     -0.138000
     17 C17        -6.4770    0.5740    5.4210 ca        1 IOF      0.137900
     18 C18        -6.3260   -0.6500    6.1330 ca        1 IOF      0.130900
     19 C19        -5.3590   -1.5930    5.6840 ca        1 IOF      0.137900
     20 C20        -4.5700   -1.3100    4.5580 ca        1 IOF     -0.138000
     21 F21        -7.3880    1.4770    5.8290 f         1 IOF     -0.080900
     22 F22        -7.0850   -0.9110    7.2080 f         1 IOF     -0.060900
     23 F23        -5.2030   -2.7570    6.3420 f         1 IOF     -0.080900
     24 H011       -0.8590    0.2950   -0.4760 ha        1 IOF      0.186500
     25 H021        1.4530   -0.5350   -0.8240 ha        1 IOF      0.197000
     26 H041        2.4280    0.4520    3.3020 ha        1 IOF      0.197000
     27 H051        0.1290    1.2630    3.6600 ha        1 IOF      0.186500
     28 H091       -2.9270    1.7510    3.5290 hn        1 IOF      0.466800
     29 H101       -3.6370   -0.7980    2.1400 hx        1 IOF      0.122200
     30 H102       -4.5110    0.8080    1.9200 hx        1 IOF      0.122200
     31 HP21        4.9260    0.6110   -0.5530 hn        1 IOF      0.472133
     32 HP22        3.9440    1.6260    0.2870 hn        1 IOF      0.472133
     33 H161       -5.8350    1.7810    3.7480 ha        1 IOF      0.165500
     34 H201       -3.8500   -2.0700    4.2160 ha        1 IOF      0.165500
     35 H092       -2.0790    0.3170    3.6000 hn        1 IOF      0.466800
     36 HP23        5.3060    1.0330    0.9910 hn        1 IOF      0.472133
@<TRIPOS>BOND
     1    1    2 ar  
     2    1    6 ar  
     3    1   24 1   
     4    2    3 ar  
     5    2   25 1   
     6    3    4 ar  
     7    3   11 1   
     8    4    5 ar  
     9    4   26 1   
    10    5    6 ar  
    11    5   27 1   
    12    6    7 1   
    13    7    8 2   
    14    7    9 1   
    15    9   10 1   
    16    9   28 1   
    17    9   35 1   
    18   10   15 1   
    19   10   29 1   
    20   10   30 1   
    21   11   12 1   
    22   11   13 2   
    23   11   14 2   
    24   12   31 1   
    25   12   32 1   
    26   12   36 1   
    27   15   16 ar  
    28   15   20 ar  
    29   16   17 ar  
    30   16   33 1   
    31   17   18 ar  
    32   17   21 1   
    33   18   19 ar  
    34   18   22 1   
    35   19   20 ar  
    36   19   23 1   
    37   20   34 1   
@<TRIPOS>SUBSTRUCTURE
     1 IOF         1 TEMP              0 ****  ****    0 ROOT
