@<TRIPOS>MOLECULE
IOG
   78    74     1     0     0
SMALL
bcc


@<TRIPOS>ATOM
      1 C1          3.0250    4.7080    0.5030 c1        1 IOG     -0.106000
      2 C2          3.5660    5.8860    1.0130 c2        1 IOG     -0.087000
      3 C3          4.7570    6.3880    0.4950 c1        1 IOG     -0.211000
      4 C4          5.4060    5.7150   -0.5300 c1        1 IOG      0.075000
      5 O5          6.5910    6.2410   -1.0770 oh        1 IOG     -0.253000
      6 C6          4.8650    4.5350   -1.0420 c1        1 IOG     -0.155000
      7 C7          3.6750    4.0330   -0.5250 c1        1 IOG     -0.096000
      8 C8          1.6260    4.2370    0.9730 c2        1 IOG     -0.118000
      9 C9          1.7820    3.3080    2.2730 c3        1 IOG     -0.167000
     10 C10         0.6310    2.3170    2.3280 c3        1 IOG      0.019000
     11 C11         0.4880    1.6270    0.9660 c3        1 IOG     -0.232000
     12 N12         0.8840    1.3500    3.3200 n         1 IOG     -0.369000
     13 C13        -0.0120    0.1880    3.4540 c2        1 IOG      0.307000
     14 O14        -1.2380    0.3340    3.3400 o         1 IOG     -0.386000
     15 C15         0.5630   -1.1840    3.7030 c3        1 IOG     -0.118000
     16 C16        -0.2930   -2.2690    2.9180 c2        1 IOG     -0.130000
     17 C17        -0.3500   -3.5220    3.3620 c1        1 IOG      0.003000
     18 N18        -0.5750   -4.4460    2.3880 n2        1 IOG     -0.206000
     19 C19        -0.6760   -3.5670    1.0310 c2        1 IOG      0.039000
     20 C20        -1.0840   -3.8150   -0.2400 c2        1 IOG     -0.234000
     21 C21        -1.3290   -2.7390   -1.1290 c1        1 IOG      0.108000
     22 C22        -1.1480   -1.3880   -0.6900 c2        1 IOG     -0.178000
     23 C23        -0.7200   -1.1210    0.6450 c1        1 IOG     -0.050000
     24 C24        -0.4840   -2.1460    1.4960 c1        1 IOG     -0.115000
     25 C25         0.4160   -3.9190    4.6190 c2        1 IOG     -0.038000
     26 C26        -0.2720   -4.1500    5.8000 c2        1 IOG     -0.109000
     27 C27         0.3980   -4.6700    6.9170 c1        1 IOG     -0.129000
     28 C28         1.7570   -4.9550    6.8430 c1        1 IOG     -0.124500
     29 C29         2.4560   -4.7250    5.6570 c1        1 IOG     -0.124500
     30 C30         1.7860   -4.2060    4.5430 c1        1 IOG     -0.121000
     31 O31        -2.2060   -2.6450   -2.2140 o         1 IOG     -0.217000
     32 C32        -1.5670   -2.4870   -3.4450 c3        1 IOG     -0.026000
     33 C33        -2.6500   -2.3100   -4.5850 c3        1 IOG     -0.066000
     34 N34        -2.8410   -0.9160   -4.8520 n3        1 IOG     -0.259000
     35 C35        -2.6910   -0.6690   -6.2890 c3        1 IOG     -0.068000
     36 C36        -3.0100    0.7400   -6.6630 c3        1 IOG     -0.155500
     37 C37        -4.3350    1.1810   -6.1420 c3        1 IOG     -0.157000
     38 C38        -4.4790    0.9370   -4.7100 c3        1 IOG     -0.155500
     39 C39        -4.1490   -0.4880   -4.3330 c3        1 IOG     -0.068000
     40 H2          3.1190    6.3510    1.7220 ha        1 IOG      0.136000
     41 H3          5.1460    7.2370    0.8640 ha        1 IOG      0.133000
     42 HO5         6.3890    6.8170   -1.7250 ho        1 IOG      0.217000
     43 H6          5.3050    4.0790   -1.7380 ha        1 IOG      0.149000
     44 H7          3.2910    3.1950   -0.8880 ha        1 IOG      0.134000
     45 H81         1.0560    5.0450    1.2020 ha        1 IOG      0.089500
     46 H82         1.1930    3.7250    0.2530 ha        1 IOG      0.089500
     47 H91         2.6200    2.8250    2.2270 hc        1 IOG      0.088000
     48 H92         1.7720    3.8790    3.0910 hc        1 IOG      0.088000
     49 H10        -0.1930    2.7890    2.5400 h1        1 IOG      0.128000
     50 H111        0.4740    2.3010    0.2600 hc        1 IOG      0.080333
     51 H112       -0.3530    1.1130    0.9450 hc        1 IOG      0.080333
     52 H113        1.2650    1.0060    0.8210 hc        1 IOG      0.080333
     53 HN12        1.6690    1.3830    3.8060 hn        1 IOG      0.228000
     54 H151        0.5370   -1.3800    4.6690 hc        1 IOG      0.121500
     55 H152        1.5080   -1.2100    3.3820 hc        1 IOG      0.121500
     56 HN18       -0.9200   -5.2810    2.5120 hn        1 IOG      0.251000
     57 H20        -1.2020   -4.6970   -0.5290 ha        1 IOG      0.141000
     58 H22        -1.3200   -0.6430   -1.3110 ha        1 IOG      0.150000
     59 H23        -0.5980   -0.2110    0.9410 ha        1 IOG      0.147000
     60 H26        -1.2080   -3.9540    5.8530 ha        1 IOG      0.143000
     61 H27        -0.0790   -4.8290    7.7280 ha        1 IOG      0.137000
     62 H28         2.2400   -5.3320    7.6530 ha        1 IOG      0.136000
     63 H29         3.4330   -4.9290    5.6050 ha        1 IOG      0.136000
     64 H30         2.2720   -4.0450    3.7120 ha        1 IOG      0.135000
     65 H321       -0.9940   -1.7000   -3.4140 h1        1 IOG      0.088000
     66 H322       -1.0060   -3.3020   -3.6390 h1        1 IOG      0.088000
     67 H331       -3.5150   -2.7130   -4.2890 h1        1 IOG      0.085500
     68 H332       -2.3270   -2.7790   -5.4350 h1        1 IOG      0.085500
     69 H351       -1.7630   -0.8660   -6.5510 h1        1 IOG      0.072750
     70 H352       -3.3040   -1.2780   -6.7870 h1        1 IOG      0.072750
     71 H361       -3.0150    0.8160   -7.6610 hc        1 IOG      0.085500
     72 H362       -2.3090    1.3330   -6.3020 hc        1 IOG      0.085500
     73 H371       -5.0240    0.7050   -6.6080 hc        1 IOG      0.078500
     74 H372       -4.4380    2.1130   -6.3080 hc        1 IOG      0.078500
     75 H381       -3.8530    1.5650   -4.2070 hc        1 IOG      0.085500
     76 H382       -5.4340    1.1360   -4.4380 hc        1 IOG      0.085500
     77 H391       -4.1420   -0.5600   -3.3890 h1        1 IOG      0.072750
     78 H392       -4.8560   -1.0940   -4.6960 h1        1 IOG      0.072750
@<TRIPOS>BOND
     1    1    2 1   
     2    1    7 1   
     3    2    3 1   
     4    2   40 1   
     5    3   41 1   
     6    4    5 1   
     7    4    6 1   
     8    5   42 1   
     9    6   43 1   
    10    7   44 1   
    11    8    9 1   
    12    8   45 1   
    13    8   46 1   
    14    9   10 1   
    15    9   47 1   
    16    9   48 1   
    17   10   11 1   
    18   10   12 1   
    19   10   49 1   
    20   11   50 1   
    21   11   51 1   
    22   11   52 1   
    23   12   13 1   
    24   12   53 1   
    25   13   14 1   
    26   13   15 1   
    27   15   16 1   
    28   15   54 1   
    29   15   55 1   
    30   16   17 1   
    31   16   24 1   
    32   17   25 1   
    33   18   19 1   
    34   18   56 1   
    35   19   20 1   
    36   19   24 1   
    37   20   21 1   
    38   20   57 1   
    39   21   22 1   
    40   22   23 1   
    41   22   58 1   
    42   23   59 1   
    43   25   26 1   
    44   25   30 1   
    45   26   27 1   
    46   26   60 1   
    47   27   61 1   
    48   28   29 1   
    49   28   62 1   
    50   29   63 1   
    51   30   64 1   
    52   31   32 1   
    53   32   33 1   
    54   32   65 1   
    55   32   66 1   
    56   33   34 1   
    57   33   67 1   
    58   33   68 1   
    59   34   35 1   
    60   34   39 1   
    61   35   36 1   
    62   35   69 1   
    63   35   70 1   
    64   36   37 1   
    65   36   71 1   
    66   36   72 1   
    67   37   38 1   
    68   37   73 1   
    69   37   74 1   
    70   38   39 1   
    71   38   75 1   
    72   38   76 1   
    73   39   77 1   
    74   39   78 1   
@<TRIPOS>SUBSTRUCTURE
     1 IOG         1 TEMP              0 ****  ****    0 ROOT
