@<TRIPOS>MOLECULE
IOG
   79    83     1     0     0
SMALL
bcc


@<TRIPOS>ATOM
      1 C1         -3.0330   -0.7630   -1.5540 ca        1 IOG     -0.151300
      2 C2         -3.1420   -2.1580   -1.6330 ca        1 IOG     -0.082500
      3 C3         -3.8010   -2.8780   -0.6470 ca        1 IOG     -0.179500
      4 C4         -4.3660   -2.1870    0.4420 ca        1 IOG      0.148100
      5 O5         -5.0020   -2.9540    1.3840 oh        1 IOG     -0.484100
      6 C6         -4.2680   -0.7910    0.5320 ca        1 IOG     -0.179500
      7 C7         -3.6020   -0.0880   -0.4690 ca        1 IOG     -0.082500
      8 C8         -2.3310   -0.0060   -2.6260 c3        1 IOG     -0.031100
      9 C9         -0.8280   -0.0470   -2.4160 c3        1 IOG     -0.111400
     10 C10        -0.0670    0.9020   -3.3450 c3        1 IOG      0.127500
     11 C11         1.3860    1.0120   -2.9040 c3        1 IOG     -0.127100
     12 N12        -0.1720    0.4570   -4.7790 n4        1 IOG     -0.677800
     13 C13         0.1380    1.5220   -5.8060 c         1 IOG      0.545100
     14 O14         0.3380    2.6590   -5.4060 o         1 IOG     -0.426100
     15 C15         0.1690    1.0410   -7.2360 c3        1 IOG     -0.059200
     16 C16        -0.4590   -0.2640   -7.4380 cc        1 IOG     -0.231400
     17 C17         0.1340   -1.5270   -7.2490 cd        1 IOG      0.007700
     18 N18        -0.7890   -2.5260   -7.5680 na        1 IOG     -0.157400
     19 C19        -1.9650   -1.9180   -8.0200 ca        1 IOG     -0.007200
     20 C20        -3.1600   -2.4970   -8.4770 ca        1 IOG     -0.226000
     21 C21        -4.1770   -1.6230   -8.8520 ca        1 IOG      0.175100
     22 C22        -4.0250   -0.2060   -8.7760 ca        1 IOG     -0.148000
     23 C23        -2.8480    0.3510   -8.3240 ca        1 IOG     -0.074000
     24 C24        -1.7980   -0.4890   -7.9320 ca        1 IOG     -0.130800
     25 C25         1.4710   -1.8270   -6.7510 ca        1 IOG     -0.106800
     26 C26         1.6330   -2.6130   -5.6010 ca        1 IOG     -0.126000
     27 C27         2.9110   -2.9020   -5.1290 ca        1 IOG     -0.121500
     28 C28         4.0330   -2.4140   -5.8010 ca        1 IOG     -0.100000
     29 C29         3.8760   -1.6390   -6.9500 ca        1 IOG     -0.121500
     30 C30         2.5990   -1.3460   -7.4290 ca        1 IOG     -0.126000
     31 O31        -5.4070   -2.0180   -9.3170 os        1 IOG     -0.322900
     32 C32        -5.5960   -3.4320   -9.4910 c3        1 IOG      0.122400
     33 C33        -6.9980   -3.5560  -10.1130 c3        1 IOG      0.170800
     34 N34        -7.3340   -4.9490  -10.3600 n3        1 IOG     -0.742600
     35 C35        -7.9320   -5.5920   -9.1970 c3        1 IOG      0.174300
     36 C36        -8.2660   -7.0640   -9.4280 c3        1 IOG     -0.077900
     37 C37        -9.1200   -7.2390  -10.6650 c3        1 IOG     -0.080400
     38 C38        -8.4550   -6.5910  -11.8600 c3        1 IOG     -0.077900
     39 C39        -8.1120   -5.1290  -11.5790 c3        1 IOG      0.174300
     40 H2         -2.7050   -2.6920   -2.4910 ha        1 IOG      0.129500
     41 H3         -3.8940   -3.9730   -0.7000 ha        1 IOG      0.154000
     42 HO5        -5.3590   -2.3660    2.0670 ho        1 IOG      0.430000
     43 H6         -4.7160   -0.2570    1.3820 ha        1 IOG      0.154000
     44 H7         -3.5300    1.0080   -0.4020 ha        1 IOG      0.129500
     45 H81        -2.6810    1.0610   -2.6310 hc        1 IOG      0.045700
     46 H82        -2.6020   -0.4540   -3.6200 hc        1 IOG      0.045700
     47 H91        -0.5980    0.2740   -1.3620 hc        1 IOG      0.082700
     48 H92        -0.4510   -1.0980   -2.5260 hc        1 IOG      0.082700
     49 H10        -0.5450    1.9300   -3.2980 hx        1 IOG      0.116700
     50 H111        1.9550    1.7140   -3.5630 hc        1 IOG      0.074033
     51 H112        1.4090    1.4210   -1.8630 hc        1 IOG      0.074033
     52 H113        1.8890    0.0150   -2.9010 hc        1 IOG      0.074033
     53 HN12       -1.1300    0.1280   -4.9630 hn        1 IOG      0.467300
     54 H151        1.2560    1.0220   -7.5430 hc        1 IOG      0.121200
     55 H152       -0.3500    1.8280   -7.8580 hc        1 IOG      0.121200
     56 HN18       -0.5750   -3.4890   -7.6460 hn        1 IOG      0.319700
     57 H20        -3.2710   -3.5870   -8.5420 ha        1 IOG      0.159000
     58 H22        -4.8690    0.4240   -9.0960 ha        1 IOG      0.166000
     59 H23        -2.7290    1.4440   -8.2820 ha        1 IOG      0.138000
     60 H26         0.7520   -3.0250   -5.0860 ha        1 IOG      0.143000
     61 H27         3.0360   -3.5290   -4.2320 ha        1 IOG      0.154500
     62 H28         5.0430   -2.6520   -5.4310 ha        1 IOG      0.157000
     63 H29         4.7610   -1.2680   -7.4910 ha        1 IOG      0.154500
     64 H30         2.4780   -0.7590   -8.3530 ha        1 IOG      0.143000
     65 H321       -4.8090   -3.8370  -10.1780 h1        1 IOG      0.050700
     66 H322       -5.5370   -3.9370   -8.4930 h1        1 IOG      0.050700
     67 H331       -7.7340   -3.0490   -9.4240 h1        1 IOG      0.051700
     68 H332       -6.9950   -2.9810  -11.0810 h1        1 IOG      0.051700
     69 H351       -8.8740   -5.0590   -8.8720 h1        1 IOG      0.030200
     70 H352       -7.1910   -5.5140   -8.3520 h1        1 IOG      0.030200
     71 H361       -8.8090   -7.4480   -8.5270 hc        1 IOG      0.050200
     72 H362       -7.3200   -7.6550   -9.5370 hc        1 IOG      0.050200
     73 H371      -10.1270   -6.7750  -10.4970 hc        1 IOG      0.046200
     74 H372       -9.2810   -8.3290  -10.8650 hc        1 IOG      0.046200
     75 H381       -9.1370   -6.6260  -12.7480 hc        1 IOG      0.050200
     76 H382       -7.5220   -7.1540  -12.1230 hc        1 IOG      0.050200
     77 H391       -7.4970   -4.7330  -12.4360 h1        1 IOG      0.030200
     78 H392       -9.0730   -4.5370  -11.5430 h1        1 IOG      0.030200
     79 H122        0.4660   -0.3360   -4.9460 hn        1 IOG      0.467300
@<TRIPOS>BOND
     1    1    2 ar  
     2    1    7 ar  
     3    1    8 1   
     4    2    3 ar  
     5    2   40 1   
     6    3    4 ar  
     7    3   41 1   
     8    4    5 1   
     9    4    6 ar  
    10    5   42 1   
    11    6    7 ar  
    12    6   43 1   
    13    7   44 1   
    14    8    9 1   
    15    8   45 1   
    16    8   46 1   
    17    9   10 1   
    18    9   47 1   
    19    9   48 1   
    20   10   11 1   
    21   10   12 1   
    22   10   49 1   
    23   11   50 1   
    24   11   51 1   
    25   11   52 1   
    26   12   13 1   
    27   12   53 1   
    28   12   79 1   
    29   13   14 2   
    30   13   15 1   
    31   15   16 1   
    32   15   54 1   
    33   15   55 1   
    34   16   17 2   
    35   16   24 1   
    36   17   18 1   
    37   17   25 1   
    38   18   19 1   
    39   18   56 1   
    40   19   20 ar  
    41   19   24 ar  
    42   20   21 ar  
    43   20   57 1   
    44   21   22 ar  
    45   21   31 1   
    46   22   23 ar  
    47   22   58 1   
    48   23   24 ar  
    49   23   59 1   
    50   25   26 ar  
    51   25   30 ar  
    52   26   27 ar  
    53   26   60 1   
    54   27   28 ar  
    55   27   61 1   
    56   28   29 ar  
    57   28   62 1   
    58   29   30 ar  
    59   29   63 1   
    60   30   64 1   
    61   31   32 1   
    62   32   33 1   
    63   32   65 1   
    64   32   66 1   
    65   33   34 1   
    66   33   67 1   
    67   33   68 1   
    68   34   35 1   
    69   34   39 1   
    70   35   36 1   
    71   35   69 1   
    72   35   70 1   
    73   36   37 1   
    74   36   71 1   
    75   36   72 1   
    76   37   38 1   
    77   37   73 1   
    78   37   74 1   
    79   38   39 1   
    80   38   75 1   
    81   38   76 1   
    82   39   77 1   
    83   39   78 1   
@<TRIPOS>SUBSTRUCTURE
     1 IOG         1 TEMP              0 ****  ****    0 ROOT
