@<TRIPOS>MOLECULE
IOG
   78    82     1     0     0
SMALL
bcc


@<TRIPOS>ATOM
      1 C1          9.4830    6.2990    1.2330 ca        1 IOG     -0.113300
      2 C2          8.7170    6.7110    0.1380 ca        1 IOG     -0.092500
      3 C3          9.1010    7.8120   -0.6250 ca        1 IOG     -0.183000
      4 C4         10.2690    8.5070   -0.2840 ca        1 IOG      0.120100
      5 O5         10.7140    9.6040   -0.9880 oh        1 IOG     -0.499100
      6 C6         11.0510    8.1060    0.8120 ca        1 IOG     -0.183000
      7 C7         10.6500    7.0050    1.5590 ca        1 IOG     -0.092500
      8 C8          9.0750    5.1170    2.0420 c3        1 IOG     -0.031100
      9 C9          8.5080    5.5320    3.3850 c3        1 IOG     -0.083400
     10 C10         8.2380    4.3250    4.2990 c3        1 IOG      0.091700
     11 C11         7.9410    4.8490    5.7080 c3        1 IOG     -0.117100
     12 N12         7.1870    3.4730    3.7820 n         1 IOG     -0.556900
     13 C13         7.2710    2.0970    3.8190 c         1 IOG      0.656100
     14 O14         8.3170    1.5040    4.1560 o         1 IOG     -0.624100
     15 C15         6.0480    1.3070    3.3620 c3        1 IOG     -0.083200
     16 C16         4.8280    1.6770    4.0860 cc        1 IOG     -0.131400
     17 C17         4.2820    1.0520    5.2180 cd        1 IOG      0.015700
     18 N18         3.0910    1.7090    5.5810 na        1 IOG     -0.184400
     19 C19         2.8650    2.7540    4.6900 ca        1 IOG     -0.003200
     20 C20         1.8180    3.6900    4.6370 ca        1 IOG     -0.229000
     21 C21         1.8580    4.6170    3.6000 ca        1 IOG      0.152100
     22 C22         2.8980    4.6280    2.6300 ca        1 IOG     -0.174000
     23 C23         3.9240    3.7060    2.6940 ca        1 IOG     -0.068000
     24 C24         3.9370    2.7600    3.7240 ca        1 IOG     -0.132800
     25 C25         4.7650   -0.1050    5.9570 ca        1 IOG     -0.053800
     26 C26         6.1400   -0.2890    6.1650 ca        1 IOG     -0.114500
     27 C27         6.5980   -1.4010    6.8700 ca        1 IOG     -0.129500
     28 C28         5.6950   -2.3370    7.3730 ca        1 IOG     -0.121000
     29 C29         4.3270   -2.1600    7.1670 ca        1 IOG     -0.129500
     30 C30         3.8610   -1.0520    6.4630 ca        1 IOG     -0.114500
     31 O31         0.9120    5.6030    3.4040 os        1 IOG     -0.334900
     32 C32        -0.1670    5.6330    4.3480 c3        1 IOG      0.127400
     33 C33        -1.0580    6.7910    3.8720 c3        1 IOG      0.166800
     34 N34        -2.2520    6.9230    4.6930 n3        1 IOG     -0.735600
     35 C35        -1.9920    7.6220    5.9450 c3        1 IOG      0.172300
     36 C36        -3.2310    7.7640    6.8260 c3        1 IOG     -0.077900
     37 C37        -4.3720    8.3980    6.0610 c3        1 IOG     -0.078400
     38 C38        -4.6400    7.6300    4.7850 c3        1 IOG     -0.077900
     39 C39        -3.3700    7.4880    3.9480 c3        1 IOG      0.172300
     40 H2          7.8020    6.1610   -0.1280 ha        1 IOG      0.133500
     41 H3          8.4960    8.1300   -1.4850 ha        1 IOG      0.140500
     42 HO5        10.0920    9.7640   -1.7120 ho        1 IOG      0.418000
     43 H6         11.9640    8.6640    1.0600 ha        1 IOG      0.140500
     44 H7         11.2560    6.6810    2.4180 ha        1 IOG      0.133500
     45 H81         8.3140    4.5140    1.4790 hc        1 IOG      0.053200
     46 H82         9.9670    4.4530    2.2040 hc        1 IOG      0.053200
     47 H91         7.5690    6.1240    3.2360 hc        1 IOG      0.047700
     48 H92         9.2450    6.1980    3.9070 hc        1 IOG      0.047700
     49 H10         9.1810    3.6990    4.3490 h1        1 IOG      0.086700
     50 H111        7.0450    5.5140    5.7070 hc        1 IOG      0.041367
     51 H112        7.7610    4.0040    6.4140 hc        1 IOG      0.041367
     52 H113        8.8190    5.4350    6.0730 hc        1 IOG      0.041367
     53 HN12        6.2880    3.8850    3.6810 hn        1 IOG      0.313500
     54 H151        6.2800    0.2160    3.5140 hc        1 IOG      0.082200
     55 H152        5.9090    1.4810    2.2600 hc        1 IOG      0.082200
     56 HN18        2.5330    1.4800    6.3610 hn        1 IOG      0.302700
     57 H20         1.0130    3.6750    5.3820 ha        1 IOG      0.144000
     58 H22         2.8600    5.3830    1.8330 ha        1 IOG      0.149000
     59 H23         4.7220    3.7060    1.9360 ha        1 IOG      0.137000
     60 H26         6.8640    0.4440    5.7700 ha        1 IOG      0.145000
     61 H27         7.6790   -1.5370    7.0250 ha        1 IOG      0.137000
     62 H28         6.0600   -3.2130    7.9300 ha        1 IOG      0.134000
     63 H29         3.6120   -2.9000    7.5570 ha        1 IOG      0.137000
     64 H30         2.7810   -0.9370    6.2910 ha        1 IOG      0.145000
     65 H321       -0.7180    4.6580    4.3250 h1        1 IOG      0.046700
     66 H322        0.2420    5.8180    5.3750 h1        1 IOG      0.046700
     67 H331       -0.4370    7.7340    3.8630 h1        1 IOG      0.048700
     68 H332       -1.3560    6.5770    2.8070 h1        1 IOG      0.048700
     69 H351       -1.5660    8.6530    5.7590 h1        1 IOG      0.030200
     70 H352       -1.2130    7.0310    6.5050 h1        1 IOG      0.030200
     71 H361       -2.9620    8.3940    7.7130 hc        1 IOG      0.047700
     72 H362       -3.5440    6.7560    7.2040 hc        1 IOG      0.047700
     73 H371       -5.2950    8.4130    6.6970 hc        1 IOG      0.040700
     74 H372       -4.1150    9.4620    5.8140 hc        1 IOG      0.040700
     75 H381       -5.0430    6.6140    5.0350 hc        1 IOG      0.047700
     76 H382       -5.4100    8.1620    4.1680 hc        1 IOG      0.047700
     77 H391       -3.5850    6.7970    3.0840 h1        1 IOG      0.030200
     78 H392       -3.1090    8.5010    3.5200 h1        1 IOG      0.030200
@<TRIPOS>BOND
     1    1    2 ar  
     2    1    7 ar  
     3    1    8 1   
     4    2    3 ar  
     5    2   40 1   
     6    3    4 ar  
     7    3   41 1   
     8    4    5 1   
     9    4    6 ar  
    10    5   42 1   
    11    6    7 ar  
    12    6   43 1   
    13    7   44 1   
    14    8    9 1   
    15    8   45 1   
    16    8   46 1   
    17    9   10 1   
    18    9   47 1   
    19    9   48 1   
    20   10   11 1   
    21   10   12 1   
    22   10   49 1   
    23   11   50 1   
    24   11   51 1   
    25   11   52 1   
    26   12   13 1   
    27   12   53 1   
    28   13   14 2   
    29   13   15 1   
    30   15   16 1   
    31   15   54 1   
    32   15   55 1   
    33   16   17 2   
    34   16   24 1   
    35   17   18 1   
    36   17   25 1   
    37   18   19 1   
    38   18   56 1   
    39   19   20 ar  
    40   19   24 ar  
    41   20   21 ar  
    42   20   57 1   
    43   21   22 ar  
    44   21   31 1   
    45   22   23 ar  
    46   22   58 1   
    47   23   24 ar  
    48   23   59 1   
    49   25   26 ar  
    50   25   30 ar  
    51   26   27 ar  
    52   26   60 1   
    53   27   28 ar  
    54   27   61 1   
    55   28   29 ar  
    56   28   62 1   
    57   29   30 ar  
    58   29   63 1   
    59   30   64 1   
    60   31   32 1   
    61   32   33 1   
    62   32   65 1   
    63   32   66 1   
    64   33   34 1   
    65   33   67 1   
    66   33   68 1   
    67   34   35 1   
    68   34   39 1   
    69   35   36 1   
    70   35   69 1   
    71   35   70 1   
    72   36   37 1   
    73   36   71 1   
    74   36   72 1   
    75   37   38 1   
    76   37   73 1   
    77   37   74 1   
    78   38   39 1   
    79   38   75 1   
    80   38   76 1   
    81   39   77 1   
    82   39   78 1   
@<TRIPOS>SUBSTRUCTURE
     1 IOG         1 TEMP              0 ****  ****    0 ROOT
