@<TRIPOS>MOLECULE
IOG
   79    83     1     0     0
SMALL
bcc


@<TRIPOS>ATOM
      1 C1         -3.0510   -0.8560   -1.5490 ca        1 IOG     -0.151300
      2 C2         -3.5210   -2.1490   -1.8140 ca        1 IOG     -0.083500
      3 C3         -4.1870   -2.8780   -0.8380 ca        1 IOG     -0.179500
      4 C4         -4.3880   -2.3010    0.4290 ca        1 IOG      0.148100
      5 O5         -5.0480   -3.0720    1.3510 oh        1 IOG     -0.484100
      6 C6         -3.9260   -1.0050    0.7070 ca        1 IOG     -0.179500
      7 C7         -3.2620   -0.2920   -0.2860 ca        1 IOG     -0.083500
      8 C8         -2.3490   -0.0790   -2.6050 c3        1 IOG     -0.031100
      9 C9         -0.8460   -0.1180   -2.3930 c3        1 IOG     -0.112400
     10 C10        -0.0880    0.8510   -3.3040 c3        1 IOG      0.127500
     11 C11         1.3620    0.9680   -2.8520 c3        1 IOG     -0.127100
     12 N12        -0.1790    0.4240   -4.7450 ny        1 IOG     -0.677800
     13 C13         0.1290    1.5040   -5.7560 c         1 IOG      0.545100
     14 O14         0.3270    2.6350   -5.3400 o         1 IOG     -0.426100
     15 C15         0.1600    1.0430   -7.1930 c3        1 IOG     -0.059200
     16 C16        -0.4630   -0.2610   -7.4120 cc        1 IOG     -0.231400
     17 C17         0.1350   -1.5250   -7.2380 cd        1 IOG      0.007700
     18 N18        -0.7840   -2.5230   -7.5720 na        1 IOG     -0.157400
     19 C19        -1.9620   -1.9130   -8.0180 ca        1 IOG     -0.008200
     20 C20        -3.1540   -2.4910   -8.4850 ca        1 IOG     -0.226000
     21 C21        -4.1740   -1.6150   -8.8500 ca        1 IOG      0.175100
     22 C22        -4.0260   -0.1990   -8.7570 ca        1 IOG     -0.148000
     23 C23        -2.8530    0.3570   -8.2950 ca        1 IOG     -0.074000
     24 C24        -1.8000   -0.4850   -7.9120 ca        1 IOG     -0.130800
     25 C25         1.4710   -1.8260   -6.7410 ca        1 IOG     -0.107800
     26 C26         1.6320   -2.6240   -5.5990 ca        1 IOG     -0.126000
     27 C27         2.9110   -2.9150   -5.1270 ca        1 IOG     -0.121500
     28 C28         4.0330   -2.4160   -5.7910 ca        1 IOG     -0.100000
     29 C29         3.8760   -1.6290   -6.9320 ca        1 IOG     -0.121500
     30 C30         2.5990   -1.3340   -7.4110 ca        1 IOG     -0.126000
     31 O31        -5.4010   -2.0080   -9.3220 os        1 IOG     -0.322900
     32 C32        -5.5850   -3.4210   -9.5150 c3        1 IOG      0.122400
     33 C33        -6.9860   -3.5420  -10.1400 c3        1 IOG      0.170800
     34 N34        -7.3190   -4.9330  -10.4000 n3        1 IOG     -0.742600
     35 C35        -7.9200   -5.5870   -9.2450 c3        1 IOG      0.174300
     36 C36        -8.2520   -7.0570   -9.4910 c3        1 IOG     -0.077900
     37 C37        -9.1000   -7.2220  -10.7330 c3        1 IOG     -0.080400
     38 C38        -8.4310   -6.5640  -11.9190 c3        1 IOG     -0.077900
     39 C39        -8.0920   -5.1040  -11.6240 c3        1 IOG      0.174300
     40 H2         -3.3710   -2.5950   -2.8090 ha        1 IOG      0.130500
     41 H3         -4.5620   -3.8930   -1.0360 ha        1 IOG      0.154000
     42 HO5        -5.1440   -2.5580    2.1680 ho        1 IOG      0.430000
     43 H6         -4.0930   -0.5570    1.6980 ha        1 IOG      0.154000
     44 H7         -2.9050    0.7280   -0.0740 ha        1 IOG      0.130500
     45 H81        -2.7030    0.9880   -2.5830 hc        1 IOG      0.046200
     46 H82        -2.6160   -0.5000   -3.6120 hc        1 IOG      0.046200
     47 H91        -0.4630   -1.1640   -2.5220 hc        1 IOG      0.082700
     48 H92        -0.6220    0.1850   -1.3330 hc        1 IOG      0.082700
     49 H10        -0.5750    1.8740   -3.2470 hx        1 IOG      0.116700
     50 H111        1.9290    1.6820   -3.4980 hc        1 IOG      0.074033
     51 H112        1.8730   -0.0250   -2.8580 hc        1 IOG      0.074033
     52 H113        1.3740    1.3640   -1.8060 hc        1 IOG      0.074033
     53 HN12       -1.1330    0.0890   -4.9400 hn        1 IOG      0.467300
     54 H151       -0.3620    1.8370   -7.8030 hc        1 IOG      0.121700
     55 H152        1.2470    1.0330   -7.5010 hc        1 IOG      0.121700
     56 HN18       -0.5670   -3.4830   -7.6610 hn        1 IOG      0.319700
     57 H20        -3.2610   -3.5800   -8.5640 ha        1 IOG      0.159000
     58 H22        -4.8720    0.4320   -9.0710 ha        1 IOG      0.166000
     59 H23        -2.7370    1.4490   -8.2400 ha        1 IOG      0.138000
     60 H26         0.7520   -3.0460   -5.0910 ha        1 IOG      0.143000
     61 H27         3.0360   -3.5520   -4.2370 ha        1 IOG      0.154500
     62 H28         5.0430   -2.6550   -5.4210 ha        1 IOG      0.157000
     63 H29         4.7610   -1.2490   -7.4660 ha        1 IOG      0.154500
     64 H30         2.4780   -0.7370   -8.3280 ha        1 IOG      0.143000
     65 H321       -4.7960   -3.8150  -10.2060 h1        1 IOG      0.050700
     66 H322       -5.5260   -3.9380   -8.5230 h1        1 IOG      0.050700
     67 H331       -6.9830   -2.9570  -11.1030 h1        1 IOG      0.051700
     68 H332       -7.7250   -3.0430   -9.4470 h1        1 IOG      0.051700
     69 H351       -8.8650   -5.0580   -8.9190 h1        1 IOG      0.030200
     70 H352       -7.1830   -5.5150   -8.3960 h1        1 IOG      0.030200
     71 H361       -7.3040   -7.6460   -9.6010 hc        1 IOG      0.050200
     72 H362       -8.7970   -7.4500   -8.5940 hc        1 IOG      0.050200
     73 H371       -9.2590   -8.3120  -10.9420 hc        1 IOG      0.046200
     74 H372      -10.1090   -6.7610  -10.5640 hc        1 IOG      0.046200
     75 H381       -7.4960   -7.1230  -12.1830 hc        1 IOG      0.050200
     76 H382       -9.1100   -6.5920  -12.8100 hc        1 IOG      0.050200
     77 H391       -7.4740   -4.6990  -12.4750 h1        1 IOG      0.030200
     78 H392       -9.0540   -4.5130  -11.5870 h1        1 IOG      0.030200
     79 H122        0.4660   -0.3620   -4.9170 hn        1 IOG      0.467300
@<TRIPOS>BOND
     1    1    2 ar  
     2    1    7 ar  
     3    1    8 1   
     4    2    3 ar  
     5    2   40 1   
     6    3    4 ar  
     7    3   41 1   
     8    4    5 1   
     9    4    6 ar  
    10    5   42 1   
    11    6    7 ar  
    12    6   43 1   
    13    7   44 1   
    14    8    9 1   
    15    8   45 1   
    16    8   46 1   
    17    9   10 1   
    18    9   47 1   
    19    9   48 1   
    20   10   11 1   
    21   10   12 1   
    22   10   49 1   
    23   11   50 1   
    24   11   51 1   
    25   11   52 1   
    26   12   13 1   
    27   12   53 1   
    28   12   79 1   
    29   13   14 2   
    30   13   15 1   
    31   15   16 1   
    32   15   54 1   
    33   15   55 1   
    34   16   17 2   
    35   16   24 1   
    36   17   18 1   
    37   17   25 1   
    38   18   19 1   
    39   18   56 1   
    40   19   20 ar  
    41   19   24 ar  
    42   20   21 ar  
    43   20   57 1   
    44   21   22 ar  
    45   21   31 1   
    46   22   23 ar  
    47   22   58 1   
    48   23   24 ar  
    49   23   59 1   
    50   25   26 ar  
    51   25   30 ar  
    52   26   27 ar  
    53   26   60 1   
    54   27   28 ar  
    55   27   61 1   
    56   28   29 ar  
    57   28   62 1   
    58   29   30 ar  
    59   29   63 1   
    60   30   64 1   
    61   31   32 1   
    62   32   33 1   
    63   32   65 1   
    64   32   66 1   
    65   33   34 1   
    66   33   67 1   
    67   33   68 1   
    68   34   35 1   
    69   34   39 1   
    70   35   36 1   
    71   35   69 1   
    72   35   70 1   
    73   36   37 1   
    74   36   71 1   
    75   36   72 1   
    76   37   38 1   
    77   37   73 1   
    78   37   74 1   
    79   38   39 1   
    80   38   75 1   
    81   38   76 1   
    82   39   77 1   
    83   39   78 1   
@<TRIPOS>SUBSTRUCTURE
     1 IOG         1 TEMP              0 ****  ****    0 ROOT
