@<TRIPOS>MOLECULE
IOG
   79    83     1     0     0
SMALL
bcc


@<TRIPOS>ATOM
      1 C1         -2.9860   -0.9150   -1.5310 ca        1 IOG     -0.151300
      2 C2         -3.4480   -2.2080   -1.8060 ca        1 IOG     -0.083500
      3 C3         -4.0910   -2.9570   -0.8280 ca        1 IOG     -0.179500
      4 C4         -4.2760   -2.3980    0.4500 ca        1 IOG      0.148100
      5 O5         -4.9130   -3.1870    1.3720 oh        1 IOG     -0.484100
      6 C6         -3.8210   -1.1020    0.7370 ca        1 IOG     -0.179500
      7 C7         -3.1800   -0.3690   -0.2570 ca        1 IOG     -0.083500
      8 C8         -2.3080   -0.1170   -2.5890 c3        1 IOG     -0.031100
      9 C9         -0.8010   -0.1460   -2.4030 c3        1 IOG     -0.112400
     10 C10        -0.0670    0.8410   -3.3130 c3        1 IOG      0.127500
     11 C11         1.3890    0.9650   -2.8840 c3        1 IOG     -0.127100
     12 N12        -0.1790    0.4310   -4.7580 n4        1 IOG     -0.677800
     13 C13         0.1020    1.5270   -5.7610 c         1 IOG      0.545100
     14 O14         0.2970    2.6540   -5.3330 o         1 IOG     -0.426100
     15 C15         0.1140    1.0840   -7.2040 c3        1 IOG     -0.059200
     16 C16        -0.5000   -0.2240   -7.4280 cc        1 IOG     -0.231400
     17 C17         0.1120   -1.4840   -7.2810 cd        1 IOG      0.007700
     18 N18        -0.8030   -2.4870   -7.6110 na        1 IOG     -0.157400
     19 C19        -1.9930   -1.8830   -8.0300 ca        1 IOG     -0.008200
     20 C20        -3.1880   -2.4660   -8.4830 ca        1 IOG     -0.226000
     21 C21        -4.2220   -1.5960   -8.8200 ca        1 IOG      0.175100
     22 C22        -4.0870   -0.1800   -8.7110 ca        1 IOG     -0.148000
     23 C23        -2.9110    0.3810   -8.2630 ca        1 IOG     -0.074000
     24 C24        -1.8430   -0.4540   -7.9090 ca        1 IOG     -0.130800
     25 C25         1.4600   -1.7770   -6.8100 ca        1 IOG     -0.107800
     26 C26         1.6480   -2.5880   -5.6810 ca        1 IOG     -0.126000
     27 C27         2.9370   -2.8720   -5.2350 ca        1 IOG     -0.121500
     28 C28         4.0430   -2.3540   -5.9110 ca        1 IOG     -0.100000
     29 C29         3.8580   -1.5540   -7.0390 ca        1 IOG     -0.121500
     30 C30         2.5710   -1.2660   -7.4920 ca        1 IOG     -0.126000
     31 O31        -5.4540   -1.9960   -9.2750 os        1 IOG     -0.322900
     32 C32        -5.6280   -3.4080   -9.4830 c3        1 IOG      0.122400
     33 C33        -7.0380   -3.5350  -10.0860 c3        1 IOG      0.170800
     34 N34        -7.3610   -4.9250  -10.3580 n3        1 IOG     -0.742600
     35 C35        -7.9360   -5.6010   -9.2020 c3        1 IOG      0.174300
     36 C36        -8.2570   -7.0710   -9.4610 c3        1 IOG     -0.077900
     37 C37        -9.1250   -7.2290  -10.6900 c3        1 IOG     -0.080400
     38 C38        -8.4840   -6.5480  -11.8790 c3        1 IOG     -0.077900
     39 C39        -8.1530   -5.0890  -11.5710 c3        1 IOG      0.174300
     40 H2         -3.3110   -2.6390   -2.8090 ha        1 IOG      0.130500
     41 H3         -4.4610   -3.9720   -1.0330 ha        1 IOG      0.154000
     42 HO5        -5.0000   -2.6850    2.1970 ho        1 IOG      0.430000
     43 H6         -3.9740   -0.6680    1.7360 ha        1 IOG      0.154000
     44 H7         -2.8290    0.6500   -0.0370 ha        1 IOG      0.130500
     45 H81        -2.5880   -0.5270   -3.5960 hc        1 IOG      0.046200
     46 H82        -2.6710    0.9460   -2.5460 hc        1 IOG      0.046200
     47 H91        -0.4120   -1.1870   -2.5510 hc        1 IOG      0.082700
     48 H92        -0.5620    0.1450   -1.3430 hc        1 IOG      0.082700
     49 H10        -0.5620    1.8590   -3.2350 hx        1 IOG      0.116700
     50 H111        1.9090   -0.0230   -2.9110 hc        1 IOG      0.074033
     51 H112        1.4150    1.3490   -1.8330 hc        1 IOG      0.074033
     52 H113        1.9390    1.6920   -3.5310 hc        1 IOG      0.074033
     53 HN12       -1.1330    0.0890   -4.9410 hn        1 IOG      0.467300
     54 H151        1.1940    1.0880   -7.5300 hc        1 IOG      0.121700
     55 H152       -0.4270    1.8800   -7.7940 hc        1 IOG      0.121700
     56 HN18       -0.5780   -3.4440   -7.7150 hn        1 IOG      0.319700
     57 H20        -3.2860   -3.5560   -8.5730 ha        1 IOG      0.159000
     58 H22        -4.9440    0.4460   -9.0020 ha        1 IOG      0.166000
     59 H23        -2.8050    1.4740   -8.1950 ha        1 IOG      0.138000
     60 H26         0.7800   -3.0250   -5.1630 ha        1 IOG      0.143000
     61 H27         3.0840   -3.5190   -4.3550 ha        1 IOG      0.154500
     62 H28         5.0610   -2.5880   -5.5620 ha        1 IOG      0.157000
     63 H29         4.7310   -1.1590   -7.5840 ha        1 IOG      0.154500
     64 H30         2.4290   -0.6590   -8.4000 ha        1 IOG      0.143000
     65 H321       -5.5460   -3.9370   -8.4990 h1        1 IOG      0.050700
     66 H322       -4.8460   -3.7850  -10.1920 h1        1 IOG      0.050700
     67 H331       -7.7690   -3.0520   -9.3740 h1        1 IOG      0.051700
     68 H332       -7.0570   -2.9380  -11.0410 h1        1 IOG      0.051700
     69 H351       -8.8800   -5.0860   -8.8520 h1        1 IOG      0.030200
     70 H352       -7.1840   -5.5330   -8.3650 h1        1 IOG      0.030200
     71 H361       -7.3050   -7.6490   -9.5950 hc        1 IOG      0.050200
     72 H362       -8.7820   -7.4810   -8.5600 hc        1 IOG      0.050200
     73 H371      -10.1350   -6.7800  -10.4980 hc        1 IOG      0.046200
     74 H372       -9.2770   -8.3170  -10.9110 hc        1 IOG      0.046200
     75 H381       -7.5480   -7.0950  -12.1660 hc        1 IOG      0.050200
     76 H382       -9.1780   -6.5720  -12.7590 hc        1 IOG      0.050200
     77 H391       -9.1210   -4.5080  -11.5090 h1        1 IOG      0.030200
     78 H392       -7.5540   -4.6670  -12.4270 h1        1 IOG      0.030200
     79 H122        0.4710   -0.3470   -4.9510 hn        1 IOG      0.467300
@<TRIPOS>BOND
     1    1    2 ar  
     2    1    7 ar  
     3    1    8 1   
     4    2    3 ar  
     5    2   40 1   
     6    3    4 ar  
     7    3   41 1   
     8    4    5 1   
     9    4    6 ar  
    10    5   42 1   
    11    6    7 ar  
    12    6   43 1   
    13    7   44 1   
    14    8    9 1   
    15    8   45 1   
    16    8   46 1   
    17    9   10 1   
    18    9   47 1   
    19    9   48 1   
    20   10   11 1   
    21   10   12 1   
    22   10   49 1   
    23   11   50 1   
    24   11   51 1   
    25   11   52 1   
    26   12   13 1   
    27   12   53 1   
    28   12   79 1   
    29   13   14 2   
    30   13   15 1   
    31   15   16 1   
    32   15   54 1   
    33   15   55 1   
    34   16   17 2   
    35   16   24 1   
    36   17   18 1   
    37   17   25 1   
    38   18   19 1   
    39   18   56 1   
    40   19   20 ar  
    41   19   24 ar  
    42   20   21 ar  
    43   20   57 1   
    44   21   22 ar  
    45   21   31 1   
    46   22   23 ar  
    47   22   58 1   
    48   23   24 ar  
    49   23   59 1   
    50   25   26 ar  
    51   25   30 ar  
    52   26   27 ar  
    53   26   60 1   
    54   27   28 ar  
    55   27   61 1   
    56   28   29 ar  
    57   28   62 1   
    58   29   30 ar  
    59   29   63 1   
    60   30   64 1   
    61   31   32 1   
    62   32   33 1   
    63   32   65 1   
    64   32   66 1   
    65   33   34 1   
    66   33   67 1   
    67   33   68 1   
    68   34   35 1   
    69   34   39 1   
    70   35   36 1   
    71   35   69 1   
    72   35   70 1   
    73   36   37 1   
    74   36   71 1   
    75   36   72 1   
    76   37   38 1   
    77   37   73 1   
    78   37   74 1   
    79   38   39 1   
    80   38   75 1   
    81   38   76 1   
    82   39   77 1   
    83   39   78 1   
@<TRIPOS>SUBSTRUCTURE
     1 IOG         1 TEMP              0 ****  ****    0 ROOT
