@<TRIPOS>MOLECULE
IOH
   12    11     1     0     0
SMALL
bcc


@<TRIPOS>ATOM
      1 CA         -0.0730   -0.0500    0.0460 c3        1 IOH      0.139100
      2 CB1         1.4390   -0.0070   -0.0750 c3        1 IOH     -0.111600
      3 CB2        -0.5190    0.0060    1.4960 c3        1 IOH     -0.111600
      4 O          -0.6730    1.0670   -0.6030 oh        1 IOH     -0.601800
      5 HA         -0.4620   -0.9950   -0.4350 h1        1 IOH      0.028700
      6 HB11        1.8320    0.9530    0.3390 hc        1 IOH      0.043367
      7 HB12        1.7460   -0.0830   -1.1450 hc        1 IOH      0.043367
      8 HB13        1.8910   -0.8550    0.4900 hc        1 IOH      0.043367
      9 HB21       -1.6330    0.0210    1.5520 hc        1 IOH      0.043367
     10 HB22       -0.1330   -0.8890    2.0390 hc        1 IOH      0.043367
     11 HB23       -0.1290    0.9290    1.9850 hc        1 IOH      0.043367
     12 H          -0.3220    1.0910   -1.5000 ho        1 IOH      0.397000
@<TRIPOS>BOND
     1    1    2 1   
     2    1    3 1   
     3    1    4 1   
     4    1    5 1   
     5    2    6 1   
     6    2    7 1   
     7    2    8 1   
     8    3    9 1   
     9    3   10 1   
    10    3   11 1   
    11    4   12 1   
@<TRIPOS>SUBSTRUCTURE
     1 IOH         1 TEMP              0 ****  ****    0 ROOT
