@<TRIPOS>MOLECULE
IOH
   12    11     1     0     0
SMALL
bcc


@<TRIPOS>ATOM
      1 CA          0.0690   -0.0550   -0.0520 c3        1 IOH      0.139100
      2 CB1         1.5840   -0.0130    0.0180 c3        1 IOH     -0.111600
      3 CB2        -0.5560    0.0170    1.3290 c3        1 IOH     -0.111600
      4 O          -0.3280    1.0540   -0.8540 oh        1 IOH     -0.601800
      5 HA         -0.2620   -1.0050   -0.5650 h1        1 IOH      0.028700
      6 HB11        1.9220    0.9160    0.5360 hc        1 IOH      0.043367
      7 HB12        2.0130   -0.0190   -1.0120 hc        1 IOH      0.043367
      8 HB13        1.9560   -0.9020    0.5780 hc        1 IOH      0.043367
      9 HB21       -1.6680   -0.0500    1.2580 hc        1 IOH      0.043367
     10 HB22       -0.1850   -0.8250    1.9590 hc        1 IOH      0.043367
     11 HB23       -0.2900    0.9820    1.8230 hc        1 IOH      0.043367
     12 H          -1.2910    1.0870   -0.8280 ho        1 IOH      0.397000
@<TRIPOS>BOND
     1    1    2 1   
     2    1    3 1   
     3    1    4 1   
     4    1    5 1   
     5    2    6 1   
     6    2    7 1   
     7    2    8 1   
     8    3    9 1   
     9    3   10 1   
    10    3   11 1   
    11    4   12 1   
@<TRIPOS>SUBSTRUCTURE
     1 IOH         1 TEMP              0 ****  ****    0 ROOT
