@<TRIPOS>MOLECULE
IOH
   12    11     1     0     0
SMALL
bcc


@<TRIPOS>ATOM
      1 CA          0.0130   -0.0050    0.3760 c3        1 IOH      0.139100
      2 CB1        -0.6420   -1.2860   -0.1090 c3        1 IOH     -0.111600
      3 CB2         1.4510    0.1000   -0.0980 c3        1 IOH     -0.111600
      4 O          -0.6630    1.1420   -0.1320 oh        1 IOH     -0.601800
      5 HA         -0.0200    0.0290    1.5030 h1        1 IOH      0.028700
      6 HB11       -1.6860   -1.3600    0.2780 hc        1 IOH      0.043367
      7 HB12       -0.6750   -1.3040   -1.2250 hc        1 IOH      0.043367
      8 HB13       -0.0620   -2.1690    0.2490 hc        1 IOH      0.043367
      9 HB21        1.4960    0.0520   -1.2120 hc        1 IOH      0.043367
     10 HB22        1.8900    1.0710    0.2320 hc        1 IOH      0.043367
     11 HB23        2.0460   -0.7400    0.3300 hc        1 IOH      0.043367
     12 H          -1.5960    1.0350    0.0860 ho        1 IOH      0.397000
@<TRIPOS>BOND
     1    1    2 1   
     2    1    3 1   
     3    1    4 1   
     4    1    5 1   
     5    2    6 1   
     6    2    7 1   
     7    2    8 1   
     8    3    9 1   
     9    3   10 1   
    10    3   11 1   
    11    4   12 1   
@<TRIPOS>SUBSTRUCTURE
     1 IOH         1 TEMP              0 ****  ****    0 ROOT
