@<TRIPOS>MOLECULE
IOK
   56    51     1     0     0
SMALL
bcc


@<TRIPOS>ATOM
      1 C1          1.0490    4.1590    1.9010 c1        1 IOK     -0.106000
      2 C2          1.4860    4.4470    0.6240 c2        1 IOK     -0.089000
      3 C3          2.7000    5.0960    0.4340 c1        1 IOK     -0.211000
      4 C4          3.4710    5.4540    1.5260 c1        1 IOK      0.076000
      5 O5          4.6990    6.1830    1.3340 oh        1 IOK     -0.252000
      6 C6          3.0340    5.1660    2.7960 c1        1 IOK     -0.154000
      7 C7          1.8140    4.5140    2.9850 c1        1 IOK     -0.095000
      8 C8         -0.3180    3.3700    2.1140 c2        1 IOK     -0.118000
      9 C9         -0.0280    2.0020    2.7280 c3        1 IOK     -0.164000
     10 C10        -1.1260    1.0130    2.3140 c3        1 IOK      0.017000
     11 C11        -1.8300    1.5230    1.0870 c3        1 IOK     -0.232000
     12 N12        -0.5310   -0.2600    2.0310 n         1 IOK     -0.372000
     13 C13        -1.2370   -1.2390    1.1610 c2        1 IOK      0.302000
     14 O14        -2.4520   -1.3200    1.1970 o         1 IOK     -0.382000
     15 C15        -0.4260   -2.1760    0.2340 c3        1 IOK     -0.116000
     16 C16        -1.0960   -2.2490   -1.1490 c2        1 IOK     -0.149000
     17 C17        -0.9630   -3.3460   -1.8980 c1        1 IOK      0.022000
     18 N18        -1.0270   -3.1140   -3.2220 n2        1 IOK     -0.208000
     19 C19        -1.2460   -1.5250   -3.3290 c2        1 IOK      0.005000
     20 C20        -1.6110   -0.6720   -4.3430 c2        1 IOK     -0.148000
     21 C21        -2.0250    0.6590   -4.0410 c1        1 IOK     -0.109000
     22 C22        -2.0600    1.1140   -2.6650 c1        1 IOK     -0.120750
     23 C23        -1.6830    0.2350   -1.6160 c1        1 IOK     -0.120750
     24 C24        -1.2820   -1.0580   -1.9080 c1        1 IOK     -0.083000
     25 C25        -0.1950   -4.5780   -1.3610 c2        1 IOK     -0.040000
     26 C26        -0.8820   -5.7750   -1.1170 c2        1 IOK     -0.119000
     27 C27        -0.1950   -6.8920   -0.7460 c1        1 IOK     -0.129000
     28 C28         1.1710   -6.8460   -0.6110 c1        1 IOK     -0.120750
     29 C29         1.8550   -5.6560   -0.8540 c1        1 IOK     -0.120750
     30 C30         1.1630   -4.5300   -1.2280 c1        1 IOK     -0.111000
     31 H2          0.9500    4.2000   -0.1330 ha        1 IOK      0.133000
     32 H3          3.0040    5.2990   -0.4600 ha        1 IOK      0.133000
     33 HO5         4.5240    7.0640    1.3170 ho        1 IOK      0.217000
     34 H6          3.5850    5.4230    3.5780 ha        1 IOK      0.150000
     35 H7          1.5120    4.3150    3.8630 ha        1 IOK      0.135000
     36 H81        -0.9250    3.9010    2.7400 ha        1 IOK      0.085500
     37 H82        -0.7540    3.2540    1.2690 ha        1 IOK      0.085500
     38 H91        -0.0050    2.0780    3.6810 hc        1 IOK      0.091000
     39 H92         0.8190    1.6840    2.4160 hc        1 IOK      0.091000
     40 H10        -1.7840    0.9150    3.0550 h1        1 IOK      0.128000
     41 H111       -2.5200    0.8640    0.7990 hc        1 IOK      0.080333
     42 H112       -1.1760    1.6500    0.3650 hc        1 IOK      0.080333
     43 H113       -2.2530    2.3600    1.2860 hc        1 IOK      0.080333
     44 HN12        0.3210   -0.4830    2.4090 hn        1 IOK      0.227000
     45 H151       -0.3950   -3.0430    0.6130 hc        1 IOK      0.124500
     46 H152        0.4600   -1.8380    0.1400 hc        1 IOK      0.124500
     47 HN18       -1.2230   -3.7020   -3.8390 hn        1 IOK      0.253000
     48 H20        -1.5860   -0.9780   -5.2680 ha        1 IOK      0.134000
     49 H21        -2.2850    1.2670   -4.7650 ha        1 IOK      0.131000
     50 H22        -2.3530    2.0560   -2.4520 ha        1 IOK      0.137250
     51 H23        -1.7060    0.5350   -0.7080 ha        1 IOK      0.137250
     52 H26        -1.8610   -5.8100   -1.2130 ha        1 IOK      0.134000
     53 H27        -0.7010   -7.7710   -0.5660 ha        1 IOK      0.136000
     54 H28         1.6540   -7.6330   -0.3500 ha        1 IOK      0.137250
     55 H29         2.8220   -5.6240   -0.7580 ha        1 IOK      0.137250
     56 H30         1.6490   -3.6840   -1.4000 ha        1 IOK      0.145000
@<TRIPOS>BOND
     1    1    2 1   
     2    1    7 1   
     3    2    3 1   
     4    2   31 1   
     5    3   32 1   
     6    4    5 1   
     7    4    6 1   
     8    5   33 1   
     9    6   34 1   
    10    7   35 1   
    11    8    9 1   
    12    8   36 1   
    13    8   37 1   
    14    9   10 1   
    15    9   38 1   
    16    9   39 1   
    17   10   11 1   
    18   10   12 1   
    19   10   40 1   
    20   11   41 1   
    21   11   42 1   
    22   11   43 1   
    23   12   13 1   
    24   12   44 1   
    25   13   14 1   
    26   13   15 1   
    27   15   16 1   
    28   15   45 1   
    29   15   46 1   
    30   16   17 1   
    31   16   24 1   
    32   17   25 1   
    33   18   19 1   
    34   18   47 1   
    35   19   20 1   
    36   19   24 1   
    37   20   21 1   
    38   20   48 1   
    39   21   49 1   
    40   22   23 1   
    41   22   50 1   
    42   23   51 1   
    43   25   26 1   
    44   25   30 1   
    45   26   27 1   
    46   26   52 1   
    47   27   53 1   
    48   28   29 1   
    49   28   54 1   
    50   29   55 1   
    51   30   56 1   
@<TRIPOS>SUBSTRUCTURE
     1 IOK         1 TEMP              0 ****  ****    0 ROOT
