@<TRIPOS>MOLECULE
IOK
   56    59     1     0     0
SMALL
bcc


@<TRIPOS>ATOM
      1 C1         -2.2830    3.6320    3.0930 ca        1 IOK     -0.113300
      2 C2         -3.0980    3.7110    1.9580 ca        1 IOK     -0.092500
      3 C3         -2.9350    2.8180    0.9020 ca        1 IOK     -0.183000
      4 C4         -1.9420    1.8330    0.9860 ca        1 IOK      0.119100
      5 O5         -1.7190    0.9140   -0.0160 oh        1 IOK     -0.498100
      6 C6         -1.1170    1.7390    2.1180 ca        1 IOK     -0.183000
      7 C7         -1.2960    2.6410    3.1610 ca        1 IOK     -0.092500
      8 C8         -2.4740    4.5880    4.2190 c3        1 IOK     -0.031100
      9 C9         -1.9570    5.9690    3.8690 c3        1 IOK     -0.082400
     10 C10        -2.0320    6.9380    5.0610 c3        1 IOK      0.091700
     11 C11        -1.2450    8.2010    4.7010 c3        1 IOK     -0.117100
     12 N12        -3.3980    7.2170    5.4530 n         1 IOK     -0.556900
     13 C13        -3.7880    7.2740    6.7750 c         1 IOK      0.656100
     14 O14        -3.0260    6.9400    7.7070 o         1 IOK     -0.625100
     15 C15        -5.2240    7.6990    7.0660 c3        1 IOK     -0.082200
     16 C16        -5.5650    8.9960    6.4710 cc        1 IOK     -0.145400
     17 C17        -5.5150   10.2580    7.0840 cd        1 IOK      0.028700
     18 N18        -5.9460   11.2370    6.1710 na        1 IOK     -0.184400
     19 C19        -6.2750   10.6140    4.9690 ca        1 IOK     -0.038200
     20 C20        -6.7520   11.1480    3.7600 ca        1 IOK     -0.142000
     21 C21        -7.0130   10.2640    2.7250 ca        1 IOK     -0.112000
     22 C22        -6.8160    8.8780    2.8710 ca        1 IOK     -0.152000
     23 C23        -6.3430    8.3380    4.0570 ca        1 IOK     -0.099000
     24 C24        -6.0560    9.1940    5.1230 ca        1 IOK     -0.097800
     25 C25        -5.1250   10.6080    8.4430 ca        1 IOK     -0.057800
     26 C26        -4.0570    9.9460    9.0660 ca        1 IOK     -0.112500
     27 C27        -3.6900   10.2820   10.3680 ca        1 IOK     -0.129500
     28 C28        -4.3800   11.2770   11.0600 ca        1 IOK     -0.120000
     29 C29        -5.4450   11.9360   10.4460 ca        1 IOK     -0.129500
     30 C30        -5.8180   11.6060    9.1450 ca        1 IOK     -0.112500
     31 H2         -3.8760    4.4870    1.9000 ha        1 IOK      0.133500
     32 H3         -3.5780    2.8840    0.0130 ha        1 IOK      0.141000
     33 HO5        -2.3540    1.0890   -0.7250 ho        1 IOK      0.418000
     34 H6         -0.3450    0.9580    2.1640 ha        1 IOK      0.141000
     35 H7         -0.6540    2.5710    4.0520 ha        1 IOK      0.133500
     36 H81        -3.5670    4.6450    4.4720 hc        1 IOK      0.053700
     37 H82        -1.9430    4.2130    5.1350 hc        1 IOK      0.053700
     38 H91        -2.5300    6.3790    2.9980 hc        1 IOK      0.047200
     39 H92        -0.8810    5.8960    3.5580 hc        1 IOK      0.047200
     40 H10        -1.5240    6.4480    5.9480 h1        1 IOK      0.087700
     41 H111       -1.6770    8.7000    3.8010 hc        1 IOK      0.041700
     42 H112       -1.2510    8.9260    5.5500 hc        1 IOK      0.041700
     43 H113       -0.1870    7.9230    4.4820 hc        1 IOK      0.041700
     44 HN12       -3.9770    7.6560    4.7740 hn        1 IOK      0.313500
     45 H151       -5.3400    7.7370    8.1840 hc        1 IOK      0.082200
     46 H152       -5.9130    6.9030    6.6730 hc        1 IOK      0.082200
     47 HN18       -5.9710   12.2050    6.3490 hn        1 IOK      0.303700
     48 H20        -6.9130   12.2270    3.6420 ha        1 IOK      0.135000
     49 H21        -7.3880   10.6510    1.7650 ha        1 IOK      0.132000
     50 H22        -7.0470    8.2160    2.0230 ha        1 IOK      0.131000
     51 H23        -6.2060    7.2530    4.1680 ha        1 IOK      0.134000
     52 H26        -3.5050    9.1550    8.5290 ha        1 IOK      0.145500
     53 H27        -2.8520    9.7540   10.8490 ha        1 IOK      0.138000
     54 H28        -4.0880   11.5390   12.0870 ha        1 IOK      0.135000
     55 H29        -5.9960   12.7170   10.9910 ha        1 IOK      0.138000
     56 H30        -6.6720   12.1210    8.6810 ha        1 IOK      0.145500
@<TRIPOS>BOND
     1    1    2 ar  
     2    1    7 ar  
     3    1    8 1   
     4    2    3 ar  
     5    2   31 1   
     6    3    4 ar  
     7    3   32 1   
     8    4    5 1   
     9    4    6 ar  
    10    5   33 1   
    11    6    7 ar  
    12    6   34 1   
    13    7   35 1   
    14    8    9 1   
    15    8   36 1   
    16    8   37 1   
    17    9   10 1   
    18    9   38 1   
    19    9   39 1   
    20   10   11 1   
    21   10   12 1   
    22   10   40 1   
    23   11   41 1   
    24   11   42 1   
    25   11   43 1   
    26   12   13 1   
    27   12   44 1   
    28   13   14 2   
    29   13   15 1   
    30   15   16 1   
    31   15   45 1   
    32   15   46 1   
    33   16   17 2   
    34   16   24 1   
    35   17   18 1   
    36   17   25 1   
    37   18   19 1   
    38   18   47 1   
    39   19   20 ar  
    40   19   24 ar  
    41   20   21 ar  
    42   20   48 1   
    43   21   22 ar  
    44   21   49 1   
    45   22   23 ar  
    46   22   50 1   
    47   23   24 ar  
    48   23   51 1   
    49   25   26 ar  
    50   25   30 ar  
    51   26   27 ar  
    52   26   52 1   
    53   27   28 ar  
    54   27   53 1   
    55   28   29 ar  
    56   28   54 1   
    57   29   30 ar  
    58   29   55 1   
    59   30   56 1   
@<TRIPOS>SUBSTRUCTURE
     1 IOK         1 TEMP              0 ****  ****    0 ROOT
