@<TRIPOS>MOLECULE
IOK
   57    60     1     0     0
SMALL
bcc


@<TRIPOS>ATOM
      1 C1         -1.6570   -0.6570    0.0610 ca        1 IOK     -0.152300
      2 C2         -1.0490   -1.8590    0.4480 ca        1 IOK     -0.082500
      3 C3         -1.0090   -2.2390    1.7820 ca        1 IOK     -0.179500
      4 C4         -1.5910   -1.3990    2.7500 ca        1 IOK      0.148100
      5 O5         -1.5170   -1.8280    4.0500 oh        1 IOK     -0.484100
      6 C6         -2.2070   -0.1960    2.3760 ca        1 IOK     -0.179500
      7 C7         -2.2360    0.1660    1.0320 ca        1 IOK     -0.082500
      8 C8         -1.6990   -0.2690   -1.3750 c3        1 IOK     -0.031100
      9 C9         -0.4270    0.4580   -1.7720 c3        1 IOK     -0.112400
     10 C10        -0.5060    1.0870   -3.1660 c3        1 IOK      0.126500
     11 C11         0.6800    2.0150   -3.3890 c3        1 IOK     -0.127100
     12 N12        -0.5820    0.0290   -4.2340 n4        1 IOK     -0.677800
     13 C13        -1.1030    0.5030   -5.5720 c         1 IOK      0.544100
     14 O14        -1.5200    1.6480   -5.6470 o         1 IOK     -0.425100
     15 C15        -1.0400   -0.5190   -6.6810 c3        1 IOK     -0.058200
     16 C16        -0.8530   -1.8920   -6.2170 cc        1 IOK     -0.249400
     17 C17         0.3690   -2.5230   -5.9050 cd        1 IOK      0.025700
     18 N18         0.1290   -3.8440   -5.5310 na        1 IOK     -0.154400
     19 C19        -1.2430   -4.1000   -5.6510 ca        1 IOK     -0.050200
     20 C20        -1.9760   -5.2760   -5.4200 ca        1 IOK     -0.124000
     21 C21        -3.3470   -5.2240   -5.6110 ca        1 IOK     -0.097000
     22 C22        -3.9920   -4.0400   -6.0220 ca        1 IOK     -0.122000
     23 C23        -3.2820   -2.8730   -6.2520 ca        1 IOK     -0.106000
     24 C24        -1.8960   -2.8820   -6.0680 ca        1 IOK     -0.088800
     25 C25         1.7030   -1.9350   -5.8960 ca        1 IOK     -0.112800
     26 C26         2.4630   -1.9340   -4.7170 ca        1 IOK     -0.124500
     27 C27         3.7400   -1.3770   -4.7120 ca        1 IOK     -0.121000
     28 C28         4.2680   -0.8240   -5.8800 ca        1 IOK     -0.098000
     29 C29         3.5170   -0.8310   -7.0570 ca        1 IOK     -0.121000
     30 C30         2.2380   -1.3870   -7.0700 ca        1 IOK     -0.124500
     31 H2         -0.6020   -2.5160   -0.3140 ha        1 IOK      0.130000
     32 H3         -0.5360   -3.1810    2.0970 ha        1 IOK      0.154000
     33 HO5        -1.9670   -1.1790    4.6130 ho        1 IOK      0.431000
     34 H6         -2.6660    0.4530    3.1360 ha        1 IOK      0.154000
     35 H7         -2.7250    1.1070    0.7370 ha        1 IOK      0.130000
     36 H81        -1.8350   -1.1940   -1.9970 hc        1 IOK      0.045200
     37 H82        -2.5860    0.3960   -1.5630 hc        1 IOK      0.045200
     38 H91         0.4520   -0.2340   -1.6980 hc        1 IOK      0.082700
     39 H92        -0.2450    1.2970   -1.0460 hc        1 IOK      0.082700
     40 H10        -1.4650    1.6870   -3.2490 hx        1 IOK      0.117700
     41 H111        0.6420    2.8260   -2.6190 hc        1 IOK      0.074033
     42 H112        1.6500    1.4730   -3.2820 hc        1 IOK      0.074033
     43 H113        0.6310    2.4950   -4.3980 hc        1 IOK      0.074033
     44 HN12       -1.2030   -0.7290   -3.9180 hn        1 IOK      0.466300
     45 H151       -2.0030   -0.4280   -7.2640 hc        1 IOK      0.121700
     46 H152       -0.1960   -0.2000   -7.3600 hc        1 IOK      0.121700
     47 HN18        0.8290   -4.5270   -5.3850 hn        1 IOK      0.320700
     48 H20        -1.4770   -6.2050   -5.1070 ha        1 IOK      0.152000
     49 H21        -3.9520   -6.1300   -5.4450 ha        1 IOK      0.153000
     50 H22        -5.0840   -4.0540   -6.1680 ha        1 IOK      0.151000
     51 H23        -3.7930   -1.9600   -6.5870 ha        1 IOK      0.137000
     52 H26         2.0630   -2.3970   -3.8020 ha        1 IOK      0.143000
     53 H27         4.3400   -1.3870   -3.7880 ha        1 IOK      0.155500
     54 H28         5.2820   -0.3930   -5.8760 ha        1 IOK      0.158000
     55 H29         3.9400   -0.4100   -7.9830 ha        1 IOK      0.155500
     56 H30         1.6590   -1.4180   -8.0060 ha        1 IOK      0.143000
     57 H122        0.3530   -0.3800   -4.3880 hn        1 IOK      0.466300
@<TRIPOS>BOND
     1    1    2 ar  
     2    1    7 ar  
     3    1    8 1   
     4    2    3 ar  
     5    2   31 1   
     6    3    4 ar  
     7    3   32 1   
     8    4    5 1   
     9    4    6 ar  
    10    5   33 1   
    11    6    7 ar  
    12    6   34 1   
    13    7   35 1   
    14    8    9 1   
    15    8   36 1   
    16    8   37 1   
    17    9   10 1   
    18    9   38 1   
    19    9   39 1   
    20   10   11 1   
    21   10   12 1   
    22   10   40 1   
    23   11   41 1   
    24   11   42 1   
    25   11   43 1   
    26   12   13 1   
    27   12   44 1   
    28   12   57 1   
    29   13   14 2   
    30   13   15 1   
    31   15   16 1   
    32   15   45 1   
    33   15   46 1   
    34   16   17 2   
    35   16   24 1   
    36   17   18 1   
    37   17   25 1   
    38   18   19 1   
    39   18   47 1   
    40   19   20 ar  
    41   19   24 ar  
    42   20   21 ar  
    43   20   48 1   
    44   21   22 ar  
    45   21   49 1   
    46   22   23 ar  
    47   22   50 1   
    48   23   24 ar  
    49   23   51 1   
    50   25   26 ar  
    51   25   30 ar  
    52   26   27 ar  
    53   26   52 1   
    54   27   28 ar  
    55   27   53 1   
    56   28   29 ar  
    57   28   54 1   
    58   29   30 ar  
    59   29   55 1   
    60   30   56 1   
@<TRIPOS>SUBSTRUCTURE
     1 IOK         1 TEMP              0 ****  ****    0 ROOT
