@<TRIPOS>MOLECULE
IOK
   57    60     1     0     0
SMALL
bcc


@<TRIPOS>ATOM
      1 C1         -1.6270   -0.7350    0.0800 ca        1 IOK     -0.152300
      2 C2         -0.9000   -1.8730    0.4570 ca        1 IOK     -0.082500
      3 C3         -0.8360   -2.2680    1.7860 ca        1 IOK     -0.179500
      4 C4         -1.5150   -1.5090    2.7580 ca        1 IOK      0.148100
      5 O5         -1.4120   -1.9480    4.0530 oh        1 IOK     -0.484100
      6 C6         -2.2490   -0.3700    2.3930 ca        1 IOK     -0.179500
      7 C7         -2.3000    0.0070    1.0540 ca        1 IOK     -0.082500
      8 C8         -1.6920   -0.3340   -1.3520 c3        1 IOK     -0.031100
      9 C9         -0.4370    0.4170   -1.7570 c3        1 IOK     -0.112400
     10 C10        -0.5420    1.0550   -3.1450 c3        1 IOK      0.126500
     11 C11         0.6260    2.0050   -3.3750 c3        1 IOK     -0.127100
     12 N12        -0.6130    0.0040   -4.2210 n4        1 IOK     -0.677800
     13 C13        -1.1590    0.4790   -5.5480 c         1 IOK      0.544100
     14 O14        -1.5950    1.6170   -5.6090 o         1 IOK     -0.425100
     15 C15        -1.0930   -0.5340   -6.6660 c3        1 IOK     -0.058200
     16 C16        -0.8750   -1.9060   -6.2140 cc        1 IOK     -0.249400
     17 C17         0.3620   -2.5180   -5.9240 cd        1 IOK      0.025700
     18 N18         0.1510   -3.8450   -5.5560 na        1 IOK     -0.154400
     19 C19        -1.2180   -4.1250   -5.6580 ca        1 IOK     -0.050200
     20 C20        -1.9260   -5.3160   -5.4250 ca        1 IOK     -0.124000
     21 C21        -3.3000   -5.2870   -5.5960 ca        1 IOK     -0.097000
     22 C22        -3.9720   -4.1120   -5.9900 ca        1 IOK     -0.122000
     23 C23        -3.2860   -2.9310   -6.2220 ca        1 IOK     -0.106000
     24 C24        -1.8980   -2.9160   -6.0570 ca        1 IOK     -0.088800
     25 C25         1.6850   -1.9060   -5.9310 ca        1 IOK     -0.112800
     26 C26         2.4620   -1.8990   -4.7620 ca        1 IOK     -0.124500
     27 C27         3.7290   -1.3190   -4.7720 ca        1 IOK     -0.121000
     28 C28         4.2300   -0.7490   -5.9430 ca        1 IOK     -0.098000
     29 C29         3.4630   -0.7620   -7.1090 ca        1 IOK     -0.121000
     30 C30         2.1940   -1.3410   -7.1070 ca        1 IOK     -0.124500
     31 H2         -0.3780   -2.4670   -0.3080 ha        1 IOK      0.129500
     32 H3         -0.2710   -3.1600    2.0950 ha        1 IOK      0.154500
     33 HO5        -1.9320   -1.3570    4.6190 ho        1 IOK      0.431000
     34 H6         -2.7820    0.2150    3.1560 ha        1 IOK      0.154500
     35 H7         -2.8800    0.8980    0.7670 ha        1 IOK      0.129500
     36 H81        -1.8190   -1.2570   -1.9800 hc        1 IOK      0.045200
     37 H82        -2.5920    0.3170   -1.5250 hc        1 IOK      0.045200
     38 H91        -0.2610    1.2550   -1.0270 hc        1 IOK      0.083200
     39 H92         0.4550   -0.2610   -1.6980 hc        1 IOK      0.083200
     40 H10        -1.5110    1.6400   -3.2130 hx        1 IOK      0.117700
     41 H111        0.5580    2.4910   -4.3790 hc        1 IOK      0.074033
     42 H112        1.6060    1.4770   -3.2820 hc        1 IOK      0.074033
     43 H113        0.5840    2.8090   -2.5980 hc        1 IOK      0.074033
     44 HN12        0.3270   -0.3870   -4.3890 hn        1 IOK      0.466300
     45 H151       -2.0660   -0.4560   -7.2340 hc        1 IOK      0.121700
     46 H152       -0.2650   -0.1950   -7.3540 hc        1 IOK      0.121700
     47 HN18        0.8650   -4.5170   -5.4240 hn        1 IOK      0.320700
     48 H20        -1.4070   -6.2370   -5.1260 ha        1 IOK      0.152000
     49 H21        -3.8870   -6.2050   -5.4270 ha        1 IOK      0.153000
     50 H22        -5.0660   -4.1450   -6.1200 ha        1 IOK      0.151000
     51 H23        -3.8190   -2.0250   -6.5430 ha        1 IOK      0.137000
     52 H26         2.0840   -2.3760   -3.8450 ha        1 IOK      0.143000
     53 H27         4.3420   -1.3250   -3.8570 ha        1 IOK      0.155500
     54 H28         5.2360   -0.3000   -5.9510 ha        1 IOK      0.158000
     55 H29         3.8640   -0.3270   -8.0380 ha        1 IOK      0.155500
     56 H30         1.6020   -1.3760   -8.0360 ha        1 IOK      0.143000
     57 H122       -1.2160   -0.7670   -3.9030 hn        1 IOK      0.466300
@<TRIPOS>BOND
     1    1    2 ar  
     2    1    7 ar  
     3    1    8 1   
     4    2    3 ar  
     5    2   31 1   
     6    3    4 ar  
     7    3   32 1   
     8    4    5 1   
     9    4    6 ar  
    10    5   33 1   
    11    6    7 ar  
    12    6   34 1   
    13    7   35 1   
    14    8    9 1   
    15    8   36 1   
    16    8   37 1   
    17    9   10 1   
    18    9   38 1   
    19    9   39 1   
    20   10   11 1   
    21   10   12 1   
    22   10   40 1   
    23   11   41 1   
    24   11   42 1   
    25   11   43 1   
    26   12   13 1   
    27   12   44 1   
    28   12   57 1   
    29   13   14 2   
    30   13   15 1   
    31   15   16 1   
    32   15   45 1   
    33   15   46 1   
    34   16   17 2   
    35   16   24 1   
    36   17   18 1   
    37   17   25 1   
    38   18   19 1   
    39   18   47 1   
    40   19   20 ar  
    41   19   24 ar  
    42   20   21 ar  
    43   20   48 1   
    44   21   22 ar  
    45   21   49 1   
    46   22   23 ar  
    47   22   50 1   
    48   23   24 ar  
    49   23   51 1   
    50   25   26 ar  
    51   25   30 ar  
    52   26   27 ar  
    53   26   52 1   
    54   27   28 ar  
    55   27   53 1   
    56   28   29 ar  
    57   28   54 1   
    58   29   30 ar  
    59   29   55 1   
    60   30   56 1   
@<TRIPOS>SUBSTRUCTURE
     1 IOK         1 TEMP              0 ****  ****    0 ROOT
