@<TRIPOS>MOLECULE
IOK
   57    60     1     0     0
SMALL
bcc


@<TRIPOS>ATOM
      1 C1         -1.5900   -0.5890    0.0710 ca        1 IOK     -0.152300
      2 C2         -0.8630   -1.7160    0.4780 ca        1 IOK     -0.082500
      3 C3         -0.7890   -2.0700    1.8180 ca        1 IOK     -0.179500
      4 C4         -1.4580   -1.2800    2.7720 ca        1 IOK      0.148100
      5 O5         -1.3450   -1.6790    4.0790 oh        1 IOK     -0.484100
      6 C6         -2.1920   -0.1510    2.3780 ca        1 IOK     -0.179500
      7 C7         -2.2530    0.1860    1.0280 ca        1 IOK     -0.082500
      8 C8         -1.6660   -0.2310   -1.3710 c3        1 IOK     -0.031100
      9 C9         -0.4110    0.5000   -1.8110 c3        1 IOK     -0.112400
     10 C10        -0.5260    1.0950   -3.2170 c3        1 IOK      0.126500
     11 C11         0.6450    2.0310   -3.4860 c3        1 IOK     -0.127100
     12 N12        -0.6120    0.0120   -4.2590 ny        1 IOK     -0.677800
     13 C13        -1.1690    0.4490   -5.5950 c         1 IOK      0.544100
     14 O14        -1.6000    1.5870   -5.6870 o         1 IOK     -0.425100
     15 C15        -1.1190   -0.5980   -6.6810 c3        1 IOK     -0.058200
     16 C16        -0.9030   -1.9570   -6.1900 cc        1 IOK     -0.249400
     17 C17         0.3340   -2.5650   -5.8930 cd        1 IOK      0.025700
     18 N18         0.1200   -3.8800   -5.4820 na        1 IOK     -0.154400
     19 C19        -1.2510   -4.1560   -5.5630 ca        1 IOK     -0.050200
     20 C20        -1.9630   -5.3350   -5.2870 ca        1 IOK     -0.124000
     21 C21        -3.3390   -5.3040   -5.4460 ca        1 IOK     -0.097000
     22 C22        -4.0080   -4.1390   -5.8690 ca        1 IOK     -0.122000
     23 C23        -3.3190   -2.9690   -6.1440 ca        1 IOK     -0.106000
     24 C24        -1.9290   -2.9560   -5.9920 ca        1 IOK     -0.088800
     25 C25         1.6600   -1.9610   -5.9310 ca        1 IOK     -0.111800
     26 C26         2.4480   -1.9230   -4.7710 ca        1 IOK     -0.124500
     27 C27         3.7170   -1.3500   -4.8090 ca        1 IOK     -0.121000
     28 C28         4.2100   -0.8180   -6.0030 ca        1 IOK     -0.098000
     29 C29         3.4320   -0.8630   -7.1600 ca        1 IOK     -0.121000
     30 C30         2.1600   -1.4350   -7.1290 ca        1 IOK     -0.124500
     31 H2         -0.3480   -2.3350   -0.2720 ha        1 IOK      0.129500
     32 H3         -0.2230   -2.9530    2.1490 ha        1 IOK      0.154500
     33 HO5        -1.8590   -1.0690    4.6300 ho        1 IOK      0.431000
     34 H6         -2.7170    0.4590    3.1270 ha        1 IOK      0.154500
     35 H7         -2.8340    1.0680    0.7180 ha        1 IOK      0.129500
     36 H81        -2.5640    0.4180   -1.5560 hc        1 IOK      0.045200
     37 H82        -1.8030   -1.1730   -1.9690 hc        1 IOK      0.045200
     38 H91        -0.2240    1.3590   -1.1080 hc        1 IOK      0.083200
     39 H92         0.4770   -0.1810   -1.7390 hc        1 IOK      0.083200
     40 H10        -1.4920    1.6840   -3.2930 hx        1 IOK      0.117700
     41 H111        0.5700    2.4860   -4.5040 hc        1 IOK      0.074033
     42 H112        0.6150    2.8590   -2.7340 hc        1 IOK      0.074033
     43 H113        1.6230    1.5010   -3.3870 hc        1 IOK      0.074033
     44 HN12        0.3240   -0.3890   -4.4240 hn        1 IOK      0.466300
     45 H151       -0.2950   -0.2850   -7.3880 hc        1 IOK      0.121700
     46 H152       -2.0960   -0.5330   -7.2420 hc        1 IOK      0.121700
     47 HN18        0.8320   -4.5510   -5.3370 hn        1 IOK      0.320700
     48 H20        -1.4450   -6.2500   -4.9650 ha        1 IOK      0.152000
     49 H21        -3.9280   -6.2140   -5.2440 ha        1 IOK      0.153000
     50 H22        -5.1030   -4.1700   -5.9880 ha        1 IOK      0.151000
     51 H23        -3.8500   -2.0700   -6.4870 ha        1 IOK      0.137000
     52 H26         2.0760   -2.3690   -3.8360 ha        1 IOK      0.143000
     53 H27         4.3390   -1.3310   -3.9010 ha        1 IOK      0.155500
     54 H28         5.2180   -0.3740   -6.0330 ha        1 IOK      0.158000
     55 H29         3.8260   -0.4590   -8.1060 ha        1 IOK      0.155500
     56 H30         1.5590   -1.4960   -8.0500 ha        1 IOK      0.143000
     57 H122       -1.2160   -0.7460   -3.9120 hn        1 IOK      0.466300
@<TRIPOS>BOND
     1    1    2 ar  
     2    1    7 ar  
     3    1    8 1   
     4    2    3 ar  
     5    2   31 1   
     6    3    4 ar  
     7    3   32 1   
     8    4    5 1   
     9    4    6 ar  
    10    5   33 1   
    11    6    7 ar  
    12    6   34 1   
    13    7   35 1   
    14    8    9 1   
    15    8   36 1   
    16    8   37 1   
    17    9   10 1   
    18    9   38 1   
    19    9   39 1   
    20   10   11 1   
    21   10   12 1   
    22   10   40 1   
    23   11   41 1   
    24   11   42 1   
    25   11   43 1   
    26   12   13 1   
    27   12   44 1   
    28   12   57 1   
    29   13   14 2   
    30   13   15 1   
    31   15   16 1   
    32   15   45 1   
    33   15   46 1   
    34   16   17 2   
    35   16   24 1   
    36   17   18 1   
    37   17   25 1   
    38   18   19 1   
    39   18   47 1   
    40   19   20 ar  
    41   19   24 ar  
    42   20   21 ar  
    43   20   48 1   
    44   21   22 ar  
    45   21   49 1   
    46   22   23 ar  
    47   22   50 1   
    48   23   24 ar  
    49   23   51 1   
    50   25   26 ar  
    51   25   30 ar  
    52   26   27 ar  
    53   26   52 1   
    54   27   28 ar  
    55   27   53 1   
    56   28   29 ar  
    57   28   54 1   
    58   29   30 ar  
    59   29   55 1   
    60   30   56 1   
@<TRIPOS>SUBSTRUCTURE
     1 IOK         1 TEMP              0 ****  ****    0 ROOT
