@<TRIPOS>MOLECULE
IOL
   13    10     1     0     0
SMALL
bcc


@<TRIPOS>ATOM
      1 C2         -0.8780   -0.0590   -1.2000 c1        1 IOL     -0.084000
      2 C3          0.5080   -0.0590   -1.2000 c1        1 IOL     -0.152000
      3 C4          1.2010   -0.0590   -0.0000 c1        1 IOL      0.061000
      4 O4          2.6080   -0.0760   -0.0000 o         1 IOL     -0.272000
      5 C5          0.5080   -0.0590    1.2000 c2        1 IOL     -0.152000
      6 C6         -0.8780   -0.0590    1.2000 c1        1 IOL     -0.084000
      7 C1         -1.5710   -0.0590    0.0000 c1        1 IOL     -0.273000
      8 I1         -3.6780   -0.0910    0.0000 i         1 IOL      0.146000
      9 H2         -1.3660   -0.0590   -2.0460 ha        1 IOL      0.147000
     10 H3          0.9970   -0.0590   -2.0460 ha        1 IOL      0.150000
     11 HO4         2.9150    0.7570   -0.0000 ho        1 IOL      0.218000
     12 H5          0.9970   -0.0590    2.0460 ha        1 IOL      0.150000
     13 H6         -1.3660   -0.0590    2.0460 ha        1 IOL      0.147000
@<TRIPOS>BOND
     1    1    7 1   
     2    1    9 1   
     3    2    3 1   
     4    2   10 1   
     5    3    5 1   
     6    4   11 1   
     7    5    6 1   
     8    5   12 1   
     9    6   13 1   
    10    7    8 1   
@<TRIPOS>SUBSTRUCTURE
     1 IOL         1 TEMP              0 ****  ****    0 ROOT
