@<TRIPOS>MOLECULE
IOL
   13    13     1     0     0
SMALL
bcc


@<TRIPOS>ATOM
      1 C2          1.1810    0.0460    1.1210 ca        1 IOL     -0.059000
      2 C3          1.1410    0.1330    2.5100 ca        1 IOL     -0.191000
      3 C4         -0.1010    0.1310    3.1620 ca        1 IOL      0.142100
      4 O4         -0.2230    0.2140    4.5280 oh        1 IOL     -0.493100
      5 C5         -1.2970    0.0420    2.4290 ca        1 IOL     -0.191000
      6 C6         -1.2340   -0.0440    1.0430 ca        1 IOL     -0.059000
      7 C1         -0.0010   -0.0430    0.3850 ca        1 IOL     -0.016100
      8 I1          0.0690   -0.1690   -1.6290 i         1 IOL     -0.142900
      9 H2          2.1580    0.0480    0.6120 ha        1 IOL      0.146000
     10 H3          2.0730    0.2030    3.0890 ha        1 IOL      0.147500
     11 HO4         0.6660    0.2700    4.9070 ho        1 IOL      0.422000
     12 H5         -2.2600    0.0420    2.9580 ha        1 IOL      0.147500
     13 H6         -2.1720   -0.1140    0.4680 ha        1 IOL      0.146000
@<TRIPOS>BOND
     1    1    2 ar  
     2    1    7 ar  
     3    1    9 1   
     4    2    3 ar  
     5    2   10 1   
     6    3    4 1   
     7    3    5 ar  
     8    4   11 1   
     9    5    6 ar  
    10    5   12 1   
    11    6    7 ar  
    12    6   13 1   
    13    7    8 1   
@<TRIPOS>SUBSTRUCTURE
     1 IOL         1 TEMP              0 ****  ****    0 ROOT
