@<TRIPOS>MOLECULE
IOL
   13    13     1     0     0
SMALL
bcc


@<TRIPOS>ATOM
      1 C2         -0.0560   -0.0490   -0.0340 ca        1 IOL     -0.059000
      2 C3          1.3310    0.0370   -0.0970 ca        1 IOL     -0.191000
      3 C4          2.0620    0.1410    1.0990 ca        1 IOL      0.142100
      4 O4          3.4280    0.2230    0.9770 oh        1 IOL     -0.493100
      5 C5          1.4100    0.1560    2.3400 ca        1 IOL     -0.191000
      6 C6          0.0200    0.0690    2.3790 ca        1 IOL     -0.059000
      7 C1         -0.7150   -0.0340    1.1980 ca        1 IOL     -0.016100
      8 I1         -2.7280   -0.1610    1.2680 i         1 IOL     -0.142900
      9 H2         -0.6290   -0.1300   -0.9720 ha        1 IOL      0.146000
     10 H3          1.8610    0.0270   -1.0590 ha        1 IOL      0.147500
     11 HO4         3.8070    0.2890    1.8660 ho        1 IOL      0.422000
     12 H5          1.9870    0.2370    3.2710 ha        1 IOL      0.147500
     13 H6         -0.4900    0.0810    3.3560 ha        1 IOL      0.146000
@<TRIPOS>BOND
     1    1    2 ar  
     2    1    7 ar  
     3    1    9 1   
     4    2    3 ar  
     5    2   10 1   
     6    3    4 1   
     7    3    5 ar  
     8    4   11 1   
     9    5    6 ar  
    10    5   12 1   
    11    6    7 ar  
    12    6   13 1   
    13    7    8 1   
@<TRIPOS>SUBSTRUCTURE
     1 IOL         1 TEMP              0 ****  ****    0 ROOT
