@<TRIPOS>MOLECULE
IOL
   13    13     1     0     0
SMALL
bcc


@<TRIPOS>ATOM
      1 C2         -0.0490   -0.0920   -0.0340 ca        1 IOL     -0.059000
      2 C3          1.3380   -0.0130   -0.0920 ca        1 IOL     -0.191000
      3 C4          2.0630    0.1330    1.1040 ca        1 IOL      0.142100
      4 O4          3.4300    0.2060    0.9860 oh        1 IOL     -0.493100
      5 C5          1.4030    0.1970    2.3390 ca        1 IOL     -0.191000
      6 C6          0.0130    0.1150    2.3730 ca        1 IOL     -0.059000
      7 C1         -0.7150   -0.0290    1.1920 ca        1 IOL     -0.016100
      8 I1         -2.7290   -0.1460    1.2540 i         1 IOL     -0.142900
      9 H2         -0.6170   -0.2060   -0.9720 ha        1 IOL      0.146000
     10 H3          1.8740   -0.0610   -1.0500 ha        1 IOL      0.147500
     11 HO4         3.8030    0.3040    1.8750 ho        1 IOL      0.422000
     12 H5          1.9760    0.3110    3.2700 ha        1 IOL      0.147500
     13 H6         -0.5020    0.1660    3.3460 ha        1 IOL      0.146000
@<TRIPOS>BOND
     1    1    2 ar  
     2    1    7 ar  
     3    1    9 1   
     4    2    3 ar  
     5    2   10 1   
     6    3    4 1   
     7    3    5 ar  
     8    4   11 1   
     9    5    6 ar  
    10    5   12 1   
    11    6    7 ar  
    12    6   13 1   
    13    7    8 1   
@<TRIPOS>SUBSTRUCTURE
     1 IOL         1 TEMP              0 ****  ****    0 ROOT
