@<TRIPOS>MOLECULE
IOM
   19    18     1     0     0
SMALL
bcc


@<TRIPOS>ATOM
      1 NA         -1.3710    0.5670   -2.2790 n3        1 IOM     -0.926300
      2 CA         -0.3690   -0.4140   -1.7800 c3        1 IOM      0.605900
      3 NB          0.5970   -0.7520   -2.8510 n3        1 IOM     -0.926300
      4 NC          0.2730   -0.0490   -0.4830 n3        1 IOM     -0.734600
      5 CB          1.0560    1.1600   -0.5360 c3        1 IOM      0.143100
      6 CC         -0.6720   -0.0850    0.6200 c3        1 IOM      0.038800
      7 CD         -0.0210   -0.1520    2.0360 c         1 IOM      0.925600
      8 O1          0.7160    0.7990    2.4160 o         1 IOM     -0.838300
      9 O2         -0.3380   -1.1450    2.7460 o         1 IOM     -0.838300
     10 HNA1       -1.9480    0.1290   -2.9690 hn        1 IOM      0.347050
     11 HNA2       -1.9440    0.8760   -1.5200 hn        1 IOM      0.347050
     12 HCA        -0.8930   -1.4120   -1.5670 h3        1 IOM      0.034700
     13 HNB1        1.0430    0.0750   -3.2020 hn        1 IOM      0.347050
     14 HNB2        1.3050   -1.3460   -2.4620 hn        1 IOM      0.347050
     15 HCB1        1.9160    1.0140   -1.2420 h1        1 IOM      0.034367
     16 HCB2        0.4750    2.0620   -0.8750 h1        1 IOM      0.034367
     17 HCB3        1.4580    1.3640    0.4980 h1        1 IOM      0.034367
     18 HCC1       -1.3490    0.8180    0.6210 h1        1 IOM      0.011700
     19 HCC2       -1.3140   -1.0020    0.5080 h1        1 IOM      0.011700
@<TRIPOS>BOND
     1    1    2 1   
     2    1   10 1   
     3    1   11 1   
     4    2    3 1   
     5    2    4 1   
     6    2   12 1   
     7    3   13 1   
     8    3   14 1   
     9    4    5 1   
    10    4    6 1   
    11    5   15 1   
    12    5   16 1   
    13    5   17 1   
    14    6    7 1   
    15    6   18 1   
    16    6   19 1   
    17    7    8 1   
    18    7    9 1   
@<TRIPOS>SUBSTRUCTURE
     1 IOM         1 TEMP              0 ****  ****    0 ROOT
