@<TRIPOS>MOLECULE
IOM
   22    19     1     0     0
SMALL
bcc


@<TRIPOS>ATOM
      1 NA       -274.3520  692.0170  700.0040 n4        1 IOM      0.101000
      2 CA       -274.2480  692.8490  701.1530 c2        1 IOM     -0.786000
      3 NB       -275.2230  692.8990  702.1880 n4        1 IOM      0.101000
      4 NC        232.0280 -578.9180 -585.3740 n3        1 IOM     -0.083000
      5 CB        233.2360 -579.2180 -586.1160 c3        1 IOM     -0.164000
      6 CC        231.9330 -578.0310 -584.4350 c2        1 IOM      0.078000
      7 CD        228.0550 -579.5310 -584.5670 c1        1 IOM      0.454000
      8 O1        229.2130 -579.2350 -584.6820 o         1 IOM     -0.225500
      9 O2        226.9180 -579.8200 -584.4510 o         1 IOM     -0.225500
     10 HNA1     -274.3830  691.0190  700.2450 hn        1 IOM      0.225000
     11 HNA2     -275.1790  692.2360  699.4370 hn        1 IOM      0.225000
     12 HCA      -273.3650  693.4880  701.2470 hx        1 IOM      0.234000
     13 HNB1     -276.1390  693.2090  701.8470 hn        1 IOM      0.225000
     14 HNB2     -274.8790  693.5800  702.8750 hn        1 IOM      0.225000
     15 HCB1      234.0930 -578.5780 -585.7720 h1        1 IOM      0.150667
     16 HCB2      233.4950 -580.3040 -585.9650 h1        1 IOM      0.150667
     17 HCB3      233.0460 -579.0330 -587.2110 h1        1 IOM      0.150667
     18 HCC1      232.8090 -577.4180 -584.1260 h4        1 IOM      0.208000
     19 HCC2      230.9590 -577.8680 -583.9180 h4        1 IOM      0.208000
     20 HA3      -273.5110  692.1940  699.4420 hn        1 IOM      0.225000
     21 HB3      -275.3440  691.9930  702.6550 hn        1 IOM      0.225000
     22 HC1       231.2130 -579.4640 -585.6370 hn        1 IOM      0.297000
@<TRIPOS>BOND
     1    1    2 1   
     2    1   10 1   
     3    1   11 1   
     4    1   20 1   
     5    2    3 1   
     6    2   12 1   
     7    3   13 1   
     8    3   14 1   
     9    3   21 1   
    10    4    5 1   
    11    4    6 1   
    12    4   22 1   
    13    5   15 1   
    14    5   16 1   
    15    5   17 1   
    16    6   18 1   
    17    6   19 1   
    18    7    8 1   
    19    7    9 1   
@<TRIPOS>SUBSTRUCTURE
     1 IOM         1 TEMP              0 ****  ****    0 ROOT
