@<TRIPOS>MOLECULE
IOM
   22    19     1     0     0
SMALL
bcc


@<TRIPOS>ATOM
      1 NA        -44.1230  143.3980  148.9320 nz        1 IOM      0.101000
      2 CA        -42.9090  143.5250  148.2020 c2        1 IOM     -0.786000
      3 NB        -41.9960  144.6050  148.3620 nz        1 IOM      0.101000
      4 NC         38.1560 -121.9920 -125.2570 n7        1 IOM     -0.083000
      5 CB         37.2290 -122.2740 -126.3350 c3        1 IOM     -0.164000
      6 CC         39.3460 -122.4920 -125.1500 c2        1 IOM      0.078000
      7 CD         39.1330 -120.0970 -121.7550 c1        1 IOM      0.454000
      8 O1         39.2670 -119.4850 -120.7550 o         1 IOM     -0.225500
      9 O2         39.0000 -120.7200 -122.7730 o         1 IOM     -0.225500
     10 HNA1      -43.9650  143.3270  149.9440 hn        1 IOM      0.225000
     11 HNA2      -44.7660  144.1790  148.7610 hn        1 IOM      0.225000
     12 HCA       -42.6620  142.7470  147.4740 hx        1 IOM      0.234000
     13 HNB1      -41.2230  144.4270  147.7100 hn        1 IOM      0.225000
     14 HNB2      -41.6180  144.6590  149.3150 hn        1 IOM      0.225000
     15 HCB1       37.6750 -122.9900 -127.0770 h1        1 IOM      0.150667
     16 HCB2       36.2910 -122.7220 -125.9000 h1        1 IOM      0.150667
     17 HCB3       36.9710 -121.3090 -126.8550 h1        1 IOM      0.150667
     18 HCC1       39.7480 -123.1990 -125.9090 h4        1 IOM      0.208000
     19 HCC2       39.9910 -122.2170 -124.2830 h4        1 IOM      0.208000
     20 HA3       -44.5650  142.5300  148.6060 hn        1 IOM      0.225000
     21 HB3       -42.4190  145.5110  148.1320 hn        1 IOM      0.225000
     22 HC1        37.8130 -121.3490 -124.5490 hn        1 IOM      0.297000
@<TRIPOS>BOND
     1    1    2 1   
     2    1   10 1   
     3    1   11 1   
     4    1   20 1   
     5    2    3 1   
     6    2   12 1   
     7    3   13 1   
     8    3   14 1   
     9    3   21 1   
    10    4    5 1   
    11    4    6 1   
    12    4   22 1   
    13    5   15 1   
    14    5   16 1   
    15    5   17 1   
    16    6   18 1   
    17    6   19 1   
    18    7    8 1   
    19    7    9 1   
@<TRIPOS>SUBSTRUCTURE
     1 IOM         1 TEMP              0 ****  ****    0 ROOT
