@<TRIPOS>MOLECULE
IOM
   19    18     1     0     0
SMALL
bcc


@<TRIPOS>ATOM
      1 NA         -1.4160    1.0720    0.4960 n3        1 IOM     -0.933300
      2 CA          0.0240    1.0720    0.4960 c3        1 IOM      0.601900
      3 NB          0.5030    1.0720    1.8540 n3        1 IOM     -0.933300
      4 NC          0.5090   -0.1120   -0.1880 n3        1 IOM     -0.731600
      5 CB          0.8390    0.2220   -1.5540 c3        1 IOM      0.155100
      6 CC         -0.5180   -1.1300   -0.1760 c3        1 IOM      0.034800
      7 CD          0.1350   -2.5140   -0.1680 c         1 IOM      0.924600
      8 O1         -0.2450   -3.3960   -0.9890 o         1 IOM     -0.840300
      9 O2          1.0130   -2.7920    0.6960 o         1 IOM     -0.840300
     10 HNA1       -1.7200    1.7430   -0.0420 hn        1 IOM      0.345050
     11 HNA2       -1.7200    1.2020    1.3460 hn        1 IOM      0.345050
     12 HCA         0.3490    1.8690    0.0360 h3        1 IOM      0.055700
     13 HNB1        1.4140    1.0290    1.8550 hn        1 IOM      0.345050
     14 HNB2        0.2350    1.8370    2.2710 hn        1 IOM      0.345050
     15 HCB1        0.0510    0.5840   -2.0000 h1        1 IOM      0.035033
     16 HCB2        1.1380   -0.5810   -2.0220 h1        1 IOM      0.035033
     17 HCB3        1.5530    0.8870   -1.5620 h1        1 IOM      0.035033
     18 HCC1       -1.0700   -1.0270    0.6230 h1        1 IOM      0.010700
     19 HCC2       -1.0770   -1.0390   -0.9710 h1        1 IOM      0.010700
@<TRIPOS>BOND
     1    1    2 1   
     2    1   10 1   
     3    1   11 1   
     4    2    3 1   
     5    2    4 1   
     6    2   12 1   
     7    3   13 1   
     8    3   14 1   
     9    4    5 1   
    10    4    6 1   
    11    5   15 1   
    12    5   16 1   
    13    5   17 1   
    14    6    7 1   
    15    6   18 1   
    16    6   19 1   
    17    7    8 1   
    18    7    9 1   
@<TRIPOS>SUBSTRUCTURE
     1 IOM         1 TEMP              0 ****  ****    0 ROOT
