@<TRIPOS>MOLECULE
ION
   39    40     1     0     0
SMALL
bcc


@<TRIPOS>ATOM
      1 C1          0.0060    0.0610   -0.0230 c3        1 ION     -0.066400
      2 C2          1.5390   -0.0400   -0.0340 c3        1 ION      0.000200
      3 C3          2.0260   -0.0720    1.4320 c3        1 ION     -0.053700
      4 C4          1.5570   -1.3040    2.1760 c3        1 ION     -0.091100
      5 C5          3.5400    0.0390    1.5420 c3        1 ION     -0.074400
      6 C6          4.0560    1.2830    0.8560 c3        1 ION     -0.072400
      7 C7          3.6190    1.3190   -0.5940 c3        1 ION     -0.040200
      8 C8          2.1430    1.1530   -0.7310 c2        1 ION     -0.105400
      9 C9          1.9500   -1.3070   -0.7780 c3        1 ION     -0.082100
     10 C10         1.4240    2.0150   -1.4650 c2        1 ION     -0.173200
     11 C11        -0.0360    1.9150   -1.6860 c3        1 ION     -0.037200
     12 C12        -0.5570    0.5200   -1.3600 c3        1 ION     -0.029500
     13 C13        -2.0550    0.4910   -1.3730 c2        1 ION     -0.108400
     14 C14        -2.7550    1.0490   -0.1900 c3        1 ION     -0.060900
     15 C15        -2.7270   -0.0220   -2.4090 c2        1 ION     -0.228000
     16 H11        -0.4300   -0.9390    0.2350 hc        1 ION      0.045200
     17 H12        -0.3090    0.7860    0.7730 hc        1 ION      0.045200
     18 H3          1.5840    0.8340    1.9400 hc        1 ION      0.048700
     19 H41         2.0120   -2.2280    1.7440 hc        1 ION      0.034367
     20 H42         0.4460   -1.3990    2.1290 hc        1 ION      0.034367
     21 H43         1.8590   -1.2350    3.2500 hc        1 ION      0.034367
     22 H51         3.8250    0.0650    2.6270 hc        1 ION      0.040200
     23 H52         4.0230   -0.8700    1.0950 hc        1 ION      0.040200
     24 H61         3.6710    2.1930    1.3870 hc        1 ION      0.040700
     25 H62         5.1750    1.3100    0.9100 hc        1 ION      0.040700
     26 H71         3.9520    2.2850   -1.0590 hc        1 ION      0.045200
     27 H72         4.1250    0.4870   -1.1570 hc        1 ION      0.045200
     28 H91         1.4120   -2.1930   -0.3650 hc        1 ION      0.036700
     29 H92         3.0490   -1.4810   -0.6840 hc        1 ION      0.036700
     30 H93         1.7010   -1.2160   -1.8630 hc        1 ION      0.036700
     31 H10         1.9090    2.8770   -1.9530 ha        1 ION      0.120000
     32 H111       -0.2770    2.1610   -2.7550 hc        1 ION      0.049700
     33 H112       -0.5550    2.6780   -1.0440 hc        1 ION      0.049700
     34 H121       -0.1780   -0.1850   -2.1570 hc        1 ION      0.055700
     35 H141       -2.3330    2.0480    0.0820 hc        1 ION      0.041367
     36 H142       -3.8490    1.1690   -0.3840 hc        1 ION      0.041367
     37 H143       -2.6260    0.3650    0.6860 hc        1 ION      0.041367
     38 H151       -2.2250   -0.4490   -3.2870 ha        1 ION      0.111500
     39 H152       -3.8240   -0.0460   -2.4430 ha        1 ION      0.111500
@<TRIPOS>BOND
     1    1    2 1   
     2    1   12 1   
     3    1   16 1   
     4    1   17 1   
     5    2    3 1   
     6    2    8 1   
     7    2    9 1   
     8    3    4 1   
     9    3    5 1   
    10    3   18 1   
    11    4   19 1   
    12    4   20 1   
    13    4   21 1   
    14    5    6 1   
    15    5   22 1   
    16    5   23 1   
    17    6    7 1   
    18    6   24 1   
    19    6   25 1   
    20    7    8 1   
    21    7   26 1   
    22    7   27 1   
    23    8   10 2   
    24    9   28 1   
    25    9   29 1   
    26    9   30 1   
    27   10   11 1   
    28   10   31 1   
    29   11   12 1   
    30   11   32 1   
    31   11   33 1   
    32   12   13 1   
    33   12   34 1   
    34   13   14 1   
    35   13   15 2   
    36   14   35 1   
    37   14   36 1   
    38   14   37 1   
    39   15   38 1   
    40   15   39 1   
@<TRIPOS>SUBSTRUCTURE
     1 ION         1 TEMP              0 ****  ****    0 ROOT
