@<TRIPOS>MOLECULE
ION
   39    40     1     0     0
SMALL
bcc


@<TRIPOS>ATOM
      1 C1          0.7140   -0.1270   -0.7220 c3        1 ION     -0.066400
      2 C2          0.3220    0.3190    0.6950 c3        1 ION      0.000200
      3 C3          1.1030   -0.5520    1.7040 c3        1 ION     -0.053700
      4 C4          2.6000   -0.3340    1.6250 c3        1 ION     -0.091100
      5 C5          0.6370   -0.3390    3.1370 c3        1 ION     -0.074400
      6 C6         -0.8460   -0.5940    3.2800 c3        1 ION     -0.072400
      7 C7         -1.6370    0.2760    2.3240 c3        1 ION     -0.040200
      8 C8         -1.1580    0.1280    0.9190 c2        1 ION     -0.105400
      9 C9          0.6600    1.7970    0.8660 c3        1 ION     -0.082100
     10 C10        -2.0220   -0.1290   -0.0740 c2        1 ION     -0.173200
     11 C11        -1.6480   -0.2590   -1.5000 c3        1 ION     -0.037200
     12 C12        -0.2760    0.3450   -1.7760 c3        1 ION     -0.029500
     13 C13         0.1860    0.0140   -3.1620 c2        1 ION     -0.108400
     14 C14         0.7200   -1.3510   -3.3910 c3        1 ION     -0.060900
     15 C15         0.1210    0.9160   -4.1470 c2        1 ION     -0.228000
     16 H11         0.7740   -1.2470   -0.7520 hc        1 ION      0.045200
     17 H12         1.7310    0.2750   -0.9680 hc        1 ION      0.045200
     18 H3          0.8910   -1.6280    1.4370 hc        1 ION      0.048700
     19 H41         3.1220   -1.0480    2.3080 hc        1 ION      0.034367
     20 H42         2.9730   -0.5050    0.5870 hc        1 ION      0.034367
     21 H43         2.8690    0.7040    1.9350 hc        1 ION      0.034367
     22 H51         1.2030   -1.0360    3.8110 hc        1 ION      0.040200
     23 H52         0.8770    0.7060    3.4660 hc        1 ION      0.040200
     24 H61        -1.0650   -1.6740    3.0740 hc        1 ION      0.040700
     25 H62        -1.1680   -0.3800    4.3330 hc        1 ION      0.040700
     26 H71        -2.7260    0.0150    2.3990 hc        1 ION      0.045200
     27 H72        -1.5300    1.3540    2.6250 hc        1 ION      0.045200
     28 H91        -0.0020    2.4210    0.2180 hc        1 ION      0.036700
     29 H92         0.5150    2.1150    1.9260 hc        1 ION      0.036700
     30 H93         1.7210    1.9890    0.5770 hc        1 ION      0.036700
     31 H10        -3.0960   -0.2660    0.1380 ha        1 ION      0.120000
     32 H111       -1.6510   -1.3480   -1.7800 hc        1 ION      0.049700
     33 H112       -2.4150    0.2500   -2.1430 hc        1 ION      0.049700
     34 H121       -0.3700    1.4670   -1.6890 hc        1 ION      0.055700
     35 H141        0.8420   -1.5630   -4.4820 hc        1 ION      0.041367
     36 H142        1.7210   -1.4560   -2.9000 hc        1 ION      0.041367
     37 H143        0.0350   -2.1210   -2.9550 hc        1 ION      0.041367
     38 H151        0.4460    0.6920   -5.1710 ha        1 ION      0.111500
     39 H152       -0.2610    1.9330   -3.9910 ha        1 ION      0.111500
@<TRIPOS>BOND
     1    1    2 1   
     2    1   12 1   
     3    1   16 1   
     4    1   17 1   
     5    2    3 1   
     6    2    8 1   
     7    2    9 1   
     8    3    4 1   
     9    3    5 1   
    10    3   18 1   
    11    4   19 1   
    12    4   20 1   
    13    4   21 1   
    14    5    6 1   
    15    5   22 1   
    16    5   23 1   
    17    6    7 1   
    18    6   24 1   
    19    6   25 1   
    20    7    8 1   
    21    7   26 1   
    22    7   27 1   
    23    8   10 2   
    24    9   28 1   
    25    9   29 1   
    26    9   30 1   
    27   10   11 1   
    28   10   31 1   
    29   11   12 1   
    30   11   32 1   
    31   11   33 1   
    32   12   13 1   
    33   12   34 1   
    34   13   14 1   
    35   13   15 2   
    36   14   35 1   
    37   14   36 1   
    38   14   37 1   
    39   15   38 1   
    40   15   39 1   
@<TRIPOS>SUBSTRUCTURE
     1 ION         1 TEMP              0 ****  ****    0 ROOT
