@<TRIPOS>MOLECULE
ION
   39    40     1     0     0
SMALL
bcc


@<TRIPOS>ATOM
      1 C1          0.0060    0.0600   -0.0160 c3        1 ION     -0.066400
      2 C2          1.5390   -0.0340   -0.0380 c3        1 ION      0.000200
      3 C3          2.0380   -0.0460    1.4240 c3        1 ION     -0.053700
      4 C4          1.5800   -1.2720    2.1870 c3        1 ION     -0.091100
      5 C5          3.5520    0.0720    1.5220 c3        1 ION     -0.074400
      6 C6          4.0560    1.3110    0.8170 c3        1 ION     -0.072400
      7 C7          3.6080    1.3280   -0.6300 c3        1 ION     -0.040200
      8 C8          2.1320    1.1540   -0.7530 c2        1 ION     -0.105400
      9 C9          1.9510   -1.3080   -0.7700 c3        1 ION     -0.082100
     10 C10         1.4030    2.0030   -1.4920 c2        1 ION     -0.173200
     11 C11        -0.0580    1.8940   -1.7000 c3        1 ION     -0.037200
     12 C12        -0.5700    0.5000   -1.3540 c3        1 ION     -0.029500
     13 C13        -2.0680    0.4640   -1.3550 c2        1 ION     -0.108400
     14 C14        -2.7610    1.0330   -0.1730 c3        1 ION     -0.060900
     15 C15        -2.7450   -0.0640   -2.3800 c2        1 ION     -0.228000
     16 H11        -0.3070    0.7930    0.7740 hc        1 ION      0.045200
     17 H12        -0.4230   -0.9390    0.2570 hc        1 ION      0.045200
     18 H3          1.5950    0.8630    1.9250 hc        1 ION      0.048700
     19 H41         0.4690   -1.3720    2.1500 hc        1 ION      0.034367
     20 H42         2.0360   -2.1990    1.7620 hc        1 ION      0.034367
     21 H43         1.8900   -1.1890    3.2570 hc        1 ION      0.034367
     22 H51         3.8450    0.1130    2.6040 hc        1 ION      0.040200
     23 H52         4.0350   -0.8390    1.0820 hc        1 ION      0.040200
     24 H61         5.1760    1.3440    0.8620 hc        1 ION      0.040700
     25 H62         3.6710    2.2260    1.3400 hc        1 ION      0.040700
     26 H71         3.9330    2.2900   -1.1080 hc        1 ION      0.045200
     27 H72         4.1140    0.4920   -1.1870 hc        1 ION      0.045200
     28 H91         1.4200   -2.1920   -0.3430 hc        1 ION      0.036700
     29 H92         3.0510   -1.4750   -0.6820 hc        1 ION      0.036700
     30 H93         1.6930   -1.2300   -1.8540 hc        1 ION      0.036700
     31 H10         1.8800    2.8620   -1.9930 ha        1 ION      0.120000
     32 H111       -0.5760    2.6620   -1.0630 hc        1 ION      0.049700
     33 H112       -0.3080    2.1270   -2.7700 hc        1 ION      0.049700
     34 H121       -0.1940   -0.2110   -2.1460 hc        1 ION      0.055700
     35 H141       -2.6220    0.3600    0.7100 hc        1 ION      0.041367
     36 H142       -3.8570    1.1460   -0.3600 hc        1 ION      0.041367
     37 H143       -2.3410    2.0370    0.0840 hc        1 ION      0.041367
     38 H151       -2.2470   -0.4980   -3.2560 ha        1 ION      0.111500
     39 H152       -3.8420   -0.0930   -2.4050 ha        1 ION      0.111500
@<TRIPOS>BOND
     1    1    2 1   
     2    1   12 1   
     3    1   16 1   
     4    1   17 1   
     5    2    3 1   
     6    2    8 1   
     7    2    9 1   
     8    3    4 1   
     9    3    5 1   
    10    3   18 1   
    11    4   19 1   
    12    4   20 1   
    13    4   21 1   
    14    5    6 1   
    15    5   22 1   
    16    5   23 1   
    17    6    7 1   
    18    6   24 1   
    19    6   25 1   
    20    7    8 1   
    21    7   26 1   
    22    7   27 1   
    23    8   10 2   
    24    9   28 1   
    25    9   29 1   
    26    9   30 1   
    27   10   11 1   
    28   10   31 1   
    29   11   12 1   
    30   11   32 1   
    31   11   33 1   
    32   12   13 1   
    33   12   34 1   
    34   13   14 1   
    35   13   15 2   
    36   14   35 1   
    37   14   36 1   
    38   14   37 1   
    39   15   38 1   
    40   15   39 1   
@<TRIPOS>SUBSTRUCTURE
     1 ION         1 TEMP              0 ****  ****    0 ROOT
