@<TRIPOS>MOLECULE
IOP
   24    25     1     0     0
SMALL
bcc


@<TRIPOS>ATOM
      1 C1'         0.2230    0.5060    0.0400 c         1 IOP      0.906600
      2 O1          1.4590    0.7090   -0.1380 o         1 IOP     -0.849800
      3 O2         -0.3230    0.4310    1.1770 o         1 IOP     -0.849800
      4 C2'        -0.6850    0.3670   -1.1960 c3        1 IOP     -0.190400
      5 C3'         0.0080   -0.3870   -2.3090 c3        1 IOP     -0.018200
      6 N1         -1.6300    0.6350   -5.5030 na        1 IOP     -0.197400
      7 C2         -1.1030    0.9060   -4.2230 cc        1 IOP     -0.141100
      8 C3         -0.6680   -0.2640   -3.6100 cd        1 IOP     -0.076400
      9 C3A        -0.9900   -1.3530   -4.5200 ca        1 IOP     -0.089800
     10 C4         -0.8080   -2.7330   -4.4780 ca        1 IOP     -0.073000
     11 C5         -1.2560   -3.5050   -5.5430 ca        1 IOP     -0.176000
     12 C6         -1.8810   -2.9190   -6.6550 ca        1 IOP     -0.125000
     13 C7         -2.0750   -1.5470   -6.7400 ca        1 IOP     -0.159000
     14 C7A        -1.6290   -0.7550   -5.6730 ca        1 IOP     -0.056200
     15 H2'1       -1.6320   -0.1490   -0.9030 hc        1 IOP      0.021700
     16 H2'2       -0.9490    1.4010   -1.5380 hc        1 IOP      0.021700
     17 H3'1        1.0620    0.0070   -2.3920 hc        1 IOP      0.060700
     18 H3'2        0.0860   -1.4720   -2.0290 hc        1 IOP      0.060700
     19 H4         -0.3170   -3.1960   -3.6090 ha        1 IOP      0.140000
     20 H5         -1.1210   -4.5960   -5.5190 ha        1 IOP      0.117000
     21 H6         -2.2260   -3.5630   -7.4770 ha        1 IOP      0.112000
     22 H7         -2.5620   -1.0970   -7.6150 ha        1 IOP      0.118000
     23 HN1        -2.2710    1.2290   -5.9580 hn        1 IOP      0.273700
     24 H2         -1.0440    1.9330   -3.8570 h4        1 IOP      0.170000
@<TRIPOS>BOND
     1    1    2 1   
     2    1    3 1   
     3    1    4 1   
     4    4    5 1   
     5    4   15 1   
     6    4   16 1   
     7    5    8 1   
     8    5   17 1   
     9    5   18 1   
    10    6    7 1   
    11    6   14 1   
    12    6   23 1   
    13    7    8 2   
    14    7   24 1   
    15    8    9 1   
    16    9   10 ar  
    17    9   14 ar  
    18   10   11 ar  
    19   10   19 1   
    20   11   12 ar  
    21   11   20 1   
    22   12   13 ar  
    23   12   21 1   
    24   13   14 ar  
    25   13   22 1   
@<TRIPOS>SUBSTRUCTURE
     1 IOP         1 TEMP              0 ****  ****    0 ROOT
