@<TRIPOS>MOLECULE
IOP
   24    25     1     0     0
SMALL
bcc


@<TRIPOS>ATOM
      1 C1'        -0.1480    0.0250    3.7590 c         1 IOP      0.906600
      2 O1         -0.3650    1.2510    3.9880 o         1 IOP     -0.849800
      3 O2          0.2410   -0.7980    4.6370 o         1 IOP     -0.849800
      4 C2'        -0.3940   -0.5140    2.3380 c3        1 IOP     -0.190400
      5 C3'         0.0170    0.4920    1.2870 c3        1 IOP     -0.018200
      6 N1         -1.9190   -0.3070   -1.8020 na        1 IOP     -0.197400
      7 C2         -1.7960   -0.1560   -0.4050 cc        1 IOP     -0.141100
      8 C3         -0.4910    0.1780   -0.0580 cd        1 IOP     -0.076400
      9 C3A         0.2800    0.1800   -1.2920 ca        1 IOP     -0.089800
     10 C4          1.6140    0.4350   -1.5980 ca        1 IOP     -0.073000
     11 C5          2.0340    0.3360   -2.9190 ca        1 IOP     -0.176000
     12 C6          1.1390   -0.0110   -3.9430 ca        1 IOP     -0.125000
     13 C7         -0.2010   -0.2650   -3.6830 ca        1 IOP     -0.159000
     14 C7A        -0.6390   -0.1700   -2.3550 ca        1 IOP     -0.056200
     15 H2'1        0.1660   -1.4720    2.2040 hc        1 IOP      0.021700
     16 H2'2       -1.4870   -0.7400    2.2480 hc        1 IOP      0.021700
     17 H3'1       -0.3630    1.5050    1.6070 hc        1 IOP      0.060700
     18 H3'2        1.1380    0.5590    1.2560 hc        1 IOP      0.060700
     19 H4          2.3180    0.7080   -0.7970 ha        1 IOP      0.140000
     20 H5          3.0850    0.5310   -3.1720 ha        1 IOP      0.117000
     21 H6          1.5100   -0.0830   -4.9760 ha        1 IOP      0.112000
     22 H7         -0.8940   -0.5320   -4.4900 ha        1 IOP      0.118000
     23 HN1        -2.6290   -0.8430   -2.2250 hn        1 IOP      0.273700
     24 H2         -2.6700   -0.2630    0.2400 h4        1 IOP      0.170000
@<TRIPOS>BOND
     1    1    2 1   
     2    1    3 1   
     3    1    4 1   
     4    4    5 1   
     5    4   15 1   
     6    4   16 1   
     7    5    8 1   
     8    5   17 1   
     9    5   18 1   
    10    6    7 1   
    11    6   14 1   
    12    6   23 1   
    13    7    8 2   
    14    7   24 1   
    15    8    9 1   
    16    9   10 ar  
    17    9   14 ar  
    18   10   11 ar  
    19   10   19 1   
    20   11   12 ar  
    21   11   20 1   
    22   12   13 ar  
    23   12   21 1   
    24   13   14 ar  
    25   13   22 1   
@<TRIPOS>SUBSTRUCTURE
     1 IOP         1 TEMP              0 ****  ****    0 ROOT
