@<TRIPOS>MOLECULE
IOP
   24    25     1     0     0
SMALL
bcc


@<TRIPOS>ATOM
      1 C1'         0.2160    0.4750    0.0530 c         1 IOP      0.906600
      2 O1          1.4520    0.6800   -0.1220 o         1 IOP     -0.849800
      3 O2         -0.3310    0.3920    1.1890 o         1 IOP     -0.849800
      4 C2'        -0.6920    0.3460   -1.1840 c3        1 IOP     -0.190400
      5 C3'         0.0030   -0.3960   -2.3040 c3        1 IOP     -0.018200
      6 N1         -1.6430    0.6470   -5.4870 na        1 IOP     -0.197400
      7 C2         -1.1190    0.9090   -4.2040 cc        1 IOP     -0.141100
      8 C3         -0.6740   -0.2640   -3.6040 cd        1 IOP     -0.076400
      9 C3A        -0.9860   -1.3460   -4.5250 ca        1 IOP     -0.089800
     10 C4         -0.7920   -2.7250   -4.4980 ca        1 IOP     -0.073000
     11 C5         -1.2340   -3.4890   -5.5720 ca        1 IOP     -0.176000
     12 C6         -1.8640   -2.8960   -6.6770 ca        1 IOP     -0.125000
     13 C7         -2.0710   -1.5250   -6.7480 ca        1 IOP     -0.159000
     14 C7A        -1.6310   -0.7410   -5.6720 ca        1 IOP     -0.056200
     15 H2'1       -1.6380   -0.1760   -0.8960 hc        1 IOP      0.021700
     16 H2'2       -0.9590    1.3820   -1.5160 hc        1 IOP      0.021700
     17 H3'1        1.0560    0.0020   -2.3850 hc        1 IOP      0.060700
     18 H3'2        0.0850   -1.4820   -2.0340 hc        1 IOP      0.060700
     19 H4         -0.2980   -3.1920   -3.6340 ha        1 IOP      0.140000
     20 H5         -1.0900   -4.5790   -5.5600 ha        1 IOP      0.117000
     21 H6         -2.2030   -3.5350   -7.5060 ha        1 IOP      0.112000
     22 H7         -2.5610   -1.0700   -7.6170 ha        1 IOP      0.118000
     23 HN1        -2.2910    1.2400   -5.9350 hn        1 IOP      0.273700
     24 H2         -1.0690    1.9320   -3.8270 h4        1 IOP      0.170000
@<TRIPOS>BOND
     1    1    2 1   
     2    1    3 1   
     3    1    4 1   
     4    4    5 1   
     5    4   15 1   
     6    4   16 1   
     7    5    8 1   
     8    5   17 1   
     9    5   18 1   
    10    6    7 1   
    11    6   14 1   
    12    6   23 1   
    13    7    8 2   
    14    7   24 1   
    15    8    9 1   
    16    9   10 ar  
    17    9   14 ar  
    18   10   11 ar  
    19   10   19 1   
    20   11   12 ar  
    21   11   20 1   
    22   12   13 ar  
    23   12   21 1   
    24   13   14 ar  
    25   13   22 1   
@<TRIPOS>SUBSTRUCTURE
     1 IOP         1 TEMP              0 ****  ****    0 ROOT
