@<TRIPOS>MOLECULE
IOS
   20    21     1     0     0
SMALL
bcc


@<TRIPOS>ATOM
      1 O1          0.1450    0.1140   -0.0050 os        1 IOS     -0.496800
      2 N1          3.5990   -0.2990    0.8920 na        1 IOS     -0.168400
      3 C1          2.5530   -0.0940   -0.0560 cc        1 IOS     -0.274100
      4 C2          1.3290    0.0720    0.5870 cd        1 IOS      0.239900
      5 C3          1.5970    0.0710    2.0310 ca        1 IOS     -0.130800
      6 C4          0.7980    0.1970    3.1600 ca        1 IOS     -0.058000
      7 C5          1.4050    0.1600    4.4150 ca        1 IOS     -0.185000
      8 C6          2.7900    0.0010    4.5460 ca        1 IOS     -0.124000
      9 C7          3.6170   -0.1290    3.4350 ca        1 IOS     -0.171000
     10 C8          3.0240   -0.0980    2.1670 ca        1 IOS     -0.055200
     11 S          -1.0970    1.3730    0.0950 s6        1 IOS      1.714300
     12 O2         -1.9560    0.9120   -0.8880 o         1 IOS     -0.737200
     13 O3         -1.5280    1.2370    1.4080 o         1 IOS     -0.737200
     14 O4         -0.3760    2.5200   -0.1950 o         1 IOS     -0.737200
     15 H4         -0.2920    0.3430    3.0450 ha        1 IOS      0.187000
     16 H5          0.7870    0.2620    5.3170 ha        1 IOS      0.115000
     17 H6          3.2360   -0.0170    5.5510 ha        1 IOS      0.105000
     18 H7          4.7010   -0.2520    3.5500 ha        1 IOS      0.113000
     19 H1          4.4730    0.1350    0.7080 hn        1 IOS      0.241700
     20 HA          2.7610   -0.1520   -1.1220 h4        1 IOS      0.159000
@<TRIPOS>BOND
     1    1    4 1   
     2    1   11 1   
     3    2    3 1   
     4    2   10 1   
     5    2   19 1   
     6    3    4 2   
     7    3   20 1   
     8    4    5 1   
     9    5    6 ar  
    10    5   10 ar  
    11    6    7 ar  
    12    6   15 1   
    13    7    8 ar  
    14    7   16 1   
    15    8    9 ar  
    16    8   17 1   
    17    9   10 ar  
    18    9   18 1   
    19   11   12 1   
    20   11   13 1   
    21   11   14 1   
@<TRIPOS>SUBSTRUCTURE
     1 IOS         1 TEMP              0 ****  ****    0 ROOT
