@<TRIPOS>MOLECULE
IOS
   20    21     1     0     0
SMALL
bcc


@<TRIPOS>ATOM
      1 O1          8.1850   -5.9950    1.5580 os        1 IOS     -0.496800
      2 N1          4.9120   -7.4390    1.8810 na        1 IOS     -0.168400
      3 C1          5.9330   -6.7710    1.1430 cc        1 IOS     -0.274100
      4 C2          7.1090   -6.6940    1.8850 cd        1 IOS      0.239900
      5 C3          6.8790   -7.4330    3.1340 ca        1 IOS     -0.130800
      6 C4          7.6610   -7.7080    4.2490 ca        1 IOS     -0.058000
      7 C5          7.1100   -8.4700    5.2780 ca        1 IOS     -0.185000
      8 C6          5.7990   -8.9560    5.1990 ca        1 IOS     -0.124000
      9 C7          4.9910   -8.6970    4.0970 ca        1 IOS     -0.171000
     10 C8          5.5260   -7.9290    3.0560 ca        1 IOS     -0.055200
     11 S           9.8560   -6.5530    1.3830 s6        1 IOS      1.714300
     12 O2         10.4150   -5.4080    0.8420 o         1 IOS     -0.737200
     13 O3         10.1930   -6.8450    2.6970 o         1 IOS     -0.737200
     14 O4          9.7150   -7.6390    0.5330 o         1 IOS     -0.737200
     15 H4          8.7020   -7.3380    4.2920 ha        1 IOS      0.187000
     16 H5          7.7170   -8.7000    6.1650 ha        1 IOS      0.115000
     17 H6          5.3990   -9.5600    6.0270 ha        1 IOS      0.105000
     18 H7          3.9650   -9.0830    4.0460 ha        1 IOS      0.113000
     19 H1          4.3190   -8.0590    1.3800 hn        1 IOS      0.241700
     20 HA          5.7120   -6.3420    0.1690 h4        1 IOS      0.159000
@<TRIPOS>BOND
     1    1    4 1   
     2    1   11 1   
     3    2    3 1   
     4    2   10 1   
     5    2   19 1   
     6    3    4 2   
     7    3   20 1   
     8    4    5 1   
     9    5    6 ar  
    10    5   10 ar  
    11    6    7 ar  
    12    6   15 1   
    13    7    8 ar  
    14    7   16 1   
    15    8    9 ar  
    16    8   17 1   
    17    9   10 ar  
    18    9   18 1   
    19   11   12 1   
    20   11   13 1   
    21   11   14 1   
@<TRIPOS>SUBSTRUCTURE
     1 IOS         1 TEMP              0 ****  ****    0 ROOT
