@<TRIPOS>MOLECULE
IOT
   67    69     1     0     0
SMALL
bcc


@<TRIPOS>ATOM
      1 PA          0.0000    0.0000    0.0000 p5        1 IOT      1.027800
      2 O1A         1.4800    0.0000    0.0000 o         1 IOT     -0.491000
      3 O2A        -0.5370    0.0000    1.5170 o         1 IOT     -0.491000
      4 O5'        -0.5360    1.3140   -0.7590 os        1 IOT     -0.435200
      5 C5'        -0.0290    2.4410   -0.0430 c3        1 IOT      0.242400
      6 C4'        -0.5040    3.7300   -0.7160 c3        1 IOT      0.151100
      7 O4'        -1.9400    3.7970   -0.6840 os        1 IOT     -0.388600
      8 C3'         0.0310    4.9520    0.0540 c3        1 IOT      0.134100
      9 O3'         0.8540    5.7620   -0.7870 oh        1 IOT     -0.551800
     10 C2'        -1.2480    5.7250    0.4700 c3        1 IOT      0.128100
     11 O2'        -1.0650    7.1330    0.3160 oh        1 IOT     -0.540800
     12 C1'        -2.2940    5.1890   -0.5390 c3        1 IOT      0.141800
     13 N9         -3.6500    5.3230   -0.0020 na        1 IOT      0.224000
     14 C8         -4.2870    4.4350    0.8100 cc        1 IOT      0.272700
     15 N7         -5.4790    4.8690    1.0960 nd        1 IOT     -0.489100
     16 C5         -5.6840    6.0600    0.4850 ca        1 IOT     -0.229200
     17 C6         -6.7500    6.9730    0.4320 ca        1 IOT      0.572200
     18 N6         -7.9290    6.7270    1.1140 nv        1 IOT     -0.423500
     19 N1         -6.6010    8.0800   -0.2880 nb        1 IOT     -0.709000
     20 C2         -5.4800    8.3250   -0.9420 ca        1 IOT      0.685900
     21 N3         -4.4560    7.4980   -0.9200 nb        1 IOT     -0.627000
     22 C4         -4.5100    6.3690   -0.2220 ca        1 IOT      0.261800
     23 CX         -0.7140   -3.7640   -1.0090 c3        1 IOT     -0.100200
     24 CW         -0.2120   -2.5340   -0.3000 c         1 IOT      0.779100
     25 OX1         0.4820   -2.6440    0.6830 o         1 IOT     -0.577000
     26 OX2        -0.5360   -1.3150   -0.7590 os        1 IOT     -0.439500
     27 NX         -0.2250   -4.9630   -0.3170 ny        1 IOT      0.029000
     28 CA         -0.7470   -6.1200   -1.0550 c3        1 IOT     -0.188500
     29 CB          0.2290   -7.2920   -0.9240 c3        1 IOT     -0.010400
     30 CG          1.5880   -6.8910   -1.5000 c3        1 IOT     -0.052400
     31 CD          2.5620   -8.0630   -1.3690 c3        1 IOT     -0.055200
     32 NE          3.8640   -7.6790   -1.9210 ny        1 IOT      0.161000
     33 CZ          4.9060   -8.5750   -1.9130 c2        1 IOT     -0.269900
     34 NH1         6.1270   -8.2140   -2.4300 n2        1 IOT     -0.545100
     35 NH2         4.7360   -9.7680   -1.4150 nz        1 IOT      0.310400
     36 C          -2.0850   -6.5160   -0.4880 c         1 IOT      0.933600
     37 O          -2.9180   -7.0250   -1.2010 o         1 IOT     -0.781800
     38 OX3        -2.3550   -6.3020    0.8090 o         1 IOT     -0.781800
     39 H5'1       -0.3900    2.4130    0.9780 h1        1 IOT      0.019200
     40 H5'2        1.0540    2.4120   -0.0440 h1        1 IOT      0.019200
     41 H4'        -0.1590    3.7640   -1.7420 h1        1 IOT      0.047700
     42 H3'         0.5790    4.6330    0.9330 h1        1 IOT      0.017700
     43 HO'3        1.7100    5.8480   -0.4020 ho        1 IOT      0.394000
     44 H2'        -1.5330    5.4750    1.4850 h1        1 IOT      0.022700
     45 HO'2       -0.9550    7.5310    1.1640 ho        1 IOT      0.392000
     46 H1'        -2.2010    5.7030   -1.4880 h2        1 IOT      0.075700
     47 H8         -3.8630    3.5030    1.1650 h5        1 IOT      0.047800
     48 H61        -8.7800    7.1610    0.8150 hn        1 IOT      0.279300
     49 H62        -7.9380    6.0830    1.8800 hn        1 IOT      0.279300
     50 H2         -5.4000    9.2390   -1.5170 h5        1 IOT      0.004100
     51 HCX1       -0.3530   -3.7640   -2.0310 hx        1 IOT      0.096700
     52 HCX2       -1.7970   -3.7640   -1.0090 hx        1 IOT      0.096700
     53 HNX        -0.5640   -4.9770    0.6240 hn        1 IOT      0.252800
     54 HA         -0.8610   -5.8600   -2.1010 hx        1 IOT      0.081700
     55 HB1        -0.1570   -8.1450   -1.4690 hc        1 IOT      0.060200
     56 HB2         0.3420   -7.5520    0.1210 hc        1 IOT      0.060200
     57 HG1         1.9730   -6.0370   -0.9550 hc        1 IOT      0.035200
     58 HG2         1.4750   -6.6300   -2.5460 hc        1 IOT      0.035200
     59 HD1         2.6760   -8.3230   -0.3240 hx        1 IOT      0.079700
     60 HD2         2.1770   -8.9160   -1.9140 hx        1 IOT      0.079700
     61 HE          3.7100   -7.4200   -2.8760 hn        1 IOT      0.226800
     62 HH11        6.2590   -7.2990   -2.8130 hn        1 IOT      0.358400
     63 HH21        4.0120  -10.2400   -1.9200 hn        1 IOT      0.192467
     64 HH22        4.4770   -9.6940   -0.4520 hn        1 IOT      0.192467
     65 HX2         0.7760   -4.9770   -0.3230 hn        1 IOT      0.252800
     66 HE3         4.1690   -6.8720   -1.4130 hn        1 IOT      0.226800
     67 HH23        5.5900  -10.2850   -1.4900 hn        1 IOT      0.192467
@<TRIPOS>BOND
     1    1    2 1   
     2    1    3 1   
     3    1    4 1   
     4    1   26 1   
     5    4    5 1   
     6    5    6 1   
     7    5   39 1   
     8    5   40 1   
     9    6    7 1   
    10    6    8 1   
    11    6   41 1   
    12    7   12 1   
    13    8    9 1   
    14    8   10 1   
    15    8   42 1   
    16    9   43 1   
    17   10   11 1   
    18   10   12 1   
    19   10   44 1   
    20   11   45 1   
    21   12   13 1   
    22   12   46 1   
    23   13   14 1   
    24   13   22 1   
    25   14   15 2   
    26   14   47 1   
    27   15   16 1   
    28   16   17 ar  
    29   16   22 ar  
    30   17   18 1   
    31   17   19 ar  
    32   18   48 1   
    33   18   49 1   
    34   19   20 ar  
    35   20   21 ar  
    36   20   50 1   
    37   21   22 ar  
    38   23   24 1   
    39   23   27 1   
    40   23   51 1   
    41   23   52 1   
    42   24   25 2   
    43   24   26 1   
    44   27   28 1   
    45   27   53 1   
    46   27   65 1   
    47   28   29 1   
    48   28   36 1   
    49   28   54 1   
    50   29   30 1   
    51   29   55 1   
    52   29   56 1   
    53   30   31 1   
    54   30   57 1   
    55   30   58 1   
    56   31   32 1   
    57   31   59 1   
    58   31   60 1   
    59   32   33 1   
    60   32   61 1   
    61   32   66 1   
    62   33   34 2   
    63   33   35 1   
    64   34   62 1   
    65   35   63 1   
    66   35   64 1   
    67   35   67 1   
    68   36   37 1   
    69   36   38 1   
@<TRIPOS>SUBSTRUCTURE
     1 IOT         1 TEMP              0 ****  ****    0 ROOT
