@<TRIPOS>MOLECULE
IOT
   64    66     1     0     0
SMALL
bcc


@<TRIPOS>ATOM
      1 PA          0.3970    0.4330   -2.9200 p5        1 IOT      1.469800
      2 O1A         1.0140   -0.0550   -4.1550 o         1 IOT     -0.825500
      3 O2A         1.0310    1.0350   -1.7240 o         1 IOT     -0.825500
      4 O5'        -0.6430    1.6540   -3.3700 os        1 IOT     -0.560200
      5 C5'        -1.3730    2.2730   -2.3670 c3        1 IOT      0.204400
      6 C4'        -0.6950    3.5790   -1.9090 c3        1 IOT      0.062100
      7 O4'        -1.6900    4.6130   -1.7610 os        1 IOT     -0.421600
      8 C3'         0.0640    3.4420   -0.5730 c3        1 IOT      0.116100
      9 O3'         1.4450    3.6600   -0.7550 oh        1 IOT     -0.644800
     10 C2'        -0.4920    4.5530    0.3410 c3        1 IOT      0.108100
     11 O2'         0.3900    5.6260    0.5740 oh        1 IOT     -0.595800
     12 C1'        -1.7490    5.0960   -0.4230 c3        1 IOT      0.213800
     13 N9         -3.0100    4.7120    0.1860 na        1 IOT     -0.265000
     14 C8         -3.6290    3.4390    0.1550 cc        1 IOT      0.438700
     15 N7         -4.8340    3.4090    0.7450 nd        1 IOT     -0.563100
     16 C5         -5.0580    4.7230    1.1810 ca        1 IOT     -0.216200
     17 C6         -6.1480    5.3440    1.8710 ca        1 IOT      0.727200
     18 N6         -7.2090    4.5760    2.3180 nh        1 IOT     -0.944500
     19 N1         -6.0930    6.6910    2.1260 nb        1 IOT     -0.805000
     20 C2         -4.9700    7.3550    1.7330 ca        1 IOT      0.660900
     21 N3         -3.8650    6.9070    1.1000 nb        1 IOT     -0.718000
     22 C4         -3.9200    5.5680    0.8210 ca        1 IOT      0.450800
     23 CX         -1.4890   -2.6270   -1.2470 c3        1 IOT      0.107800
     24 CW         -0.4380   -1.7220   -1.8390 c         1 IOT      0.646100
     25 OX1         0.7980   -1.8650   -1.8720 o         1 IOT     -0.624000
     26 OX2        -0.8430   -0.5620   -2.3750 os        1 IOT     -0.557500
     27 NX         -0.9910   -3.7600   -0.5040 n3        1 IOT     -0.789200
     28 CA         -0.9590   -5.0110   -1.2590 c3        1 IOT      0.043500
     29 CB         -0.0750   -6.0700   -0.5960 c3        1 IOT     -0.067400
     30 CG          1.3950   -5.7090   -0.6460 c3        1 IOT     -0.097400
     31 CD          2.2420   -6.9200   -0.2510 c3        1 IOT      0.179800
     32 NE          3.6600   -6.6250   -0.2070 nh        1 IOT     -0.847200
     33 CZ          4.5680   -7.7260   -0.1680 c2        1 IOT      0.752100
     34 NH1         4.3100   -8.9380    0.2690 n2        1 IOT     -0.915100
     35 NH2         5.9040   -7.4330   -0.6190 nh        1 IOT     -0.885800
     36 C          -2.3980   -5.6030   -1.4650 c         1 IOT      0.927600
     37 O          -3.1920   -4.9470   -2.1950 o         1 IOT     -0.844300
     38 OX3        -2.6670   -6.7200   -0.9420 o         1 IOT     -0.844300
     39 H5'1       -1.4990    1.5740   -1.4940 h1        1 IOT      0.027700
     40 H5'2       -2.3850    2.5320   -2.7890 h1        1 IOT      0.027700
     41 H4'        -0.0050    3.9490   -2.7170 h1        1 IOT      0.091700
     42 H3'        -0.1070    2.4290   -0.1140 h1        1 IOT      0.099700
     43 HO'3        1.8170    2.8080   -1.0520 ho        1 IOT      0.486000
     44 H2'        -0.7510    4.1590    1.3590 h1        1 IOT      0.084700
     45 HO'2        1.0190    5.6640   -0.1590 ho        1 IOT      0.427000
     46 H1'        -1.7220    6.2240   -0.4860 h2        1 IOT      0.107700
     47 H8         -3.1300    2.5870   -0.3340 h5        1 IOT      0.099800
     48 H61        -8.0460    5.0380    2.5790 hn        1 IOT      0.427300
     49 H62        -7.2950    3.6710    1.9170 hn        1 IOT      0.427300
     50 H2         -4.9710    8.4400    1.9710 h5        1 IOT      0.036100
     51 HCX1       -2.1890   -2.9730   -2.0690 h1        1 IOT      0.100700
     52 HCX2       -2.0890   -1.9920   -0.5320 h1        1 IOT      0.100700
     53 HNX        -0.0700   -3.5580   -0.1530 hn        1 IOT      0.341800
     54 HA         -0.5510   -4.8320   -2.3020 h1        1 IOT      0.016700
     55 HB1        -0.2560   -7.0340   -1.1410 hc        1 IOT      0.055700
     56 HB2        -0.4030   -6.2290    0.4640 hc        1 IOT      0.055700
     57 HG1         1.6100   -4.8560    0.0500 hc        1 IOT      0.049700
     58 HG2         1.6670   -5.3720   -1.6810 hc        1 IOT      0.049700
     59 HD1         2.0180   -7.7620   -0.9700 h1        1 IOT      0.036200
     60 HD2         1.9330   -7.2610    0.7780 h1        1 IOT      0.036200
     61 HE          3.9210   -5.8830   -0.8260 hn        1 IOT      0.408800
     62 HH11        3.3520   -9.1230    0.4700 hn        1 IOT      0.394400
     63 HH21        6.5530   -8.1520   -0.3730 hn        1 IOT      0.381300
     64 HH22        6.2250   -6.5390   -0.3080 hn        1 IOT      0.381300
@<TRIPOS>BOND
     1    1    2 1   
     2    1    3 1   
     3    1    4 1   
     4    1   26 1   
     5    4    5 1   
     6    5    6 1   
     7    5   39 1   
     8    5   40 1   
     9    6    7 1   
    10    6    8 1   
    11    6   41 1   
    12    7   12 1   
    13    8    9 1   
    14    8   10 1   
    15    8   42 1   
    16    9   43 1   
    17   10   11 1   
    18   10   12 1   
    19   10   44 1   
    20   11   45 1   
    21   12   13 1   
    22   12   46 1   
    23   13   14 1   
    24   13   22 1   
    25   14   15 2   
    26   14   47 1   
    27   15   16 1   
    28   16   17 ar  
    29   16   22 ar  
    30   17   18 1   
    31   17   19 ar  
    32   18   48 1   
    33   18   49 1   
    34   19   20 ar  
    35   20   21 ar  
    36   20   50 1   
    37   21   22 ar  
    38   23   24 1   
    39   23   27 1   
    40   23   51 1   
    41   23   52 1   
    42   24   25 2   
    43   24   26 1   
    44   27   28 1   
    45   27   53 1   
    46   28   29 1   
    47   28   36 1   
    48   28   54 1   
    49   29   30 1   
    50   29   55 1   
    51   29   56 1   
    52   30   31 1   
    53   30   57 1   
    54   30   58 1   
    55   31   32 1   
    56   31   59 1   
    57   31   60 1   
    58   32   33 1   
    59   32   61 1   
    60   33   34 2   
    61   33   35 1   
    62   34   62 1   
    63   35   63 1   
    64   35   64 1   
    65   36   37 1   
    66   36   38 1   
@<TRIPOS>SUBSTRUCTURE
     1 IOT         1 TEMP              0 ****  ****    0 ROOT
