@<TRIPOS>MOLECULE
IOT
   64    66     1     0     0
SMALL
bcc


@<TRIPOS>ATOM
      1 PA          1.1320    0.0180    1.2200 p5        1 IOT      1.489800
      2 O1A         1.8330    0.1290    2.5090 o         1 IOT     -0.842500
      3 O2A         1.2790    0.8750    0.0200 o         1 IOT     -0.842500
      4 O5'         1.5070   -1.4810    0.6190 os        1 IOT     -0.564200
      5 C5'         1.0610   -1.7730   -0.6640 c3        1 IOT      0.195400
      6 C4'         2.2350   -1.8850   -1.6540 c3        1 IOT      0.080100
      7 O4'         1.7390   -1.7790   -3.0020 os        1 IOT     -0.430600
      8 C3'         3.2880   -0.7810   -1.4820 c3        1 IOT      0.091100
      9 O3'         4.6110   -1.2470   -1.6520 oh        1 IOT     -0.597800
     10 C2'         2.9390    0.2690   -2.5600 c3        1 IOT      0.074100
     11 O2'         4.0710    0.6260   -3.3370 oh        1 IOT     -0.615800
     12 C1'         1.9580   -0.4610   -3.5290 c3        1 IOT      0.250800
     13 N9          0.7140    0.2410   -3.7430 na        1 IOT     -0.273000
     14 C8         -0.0530    0.9970   -2.8160 cc        1 IOT      0.446700
     15 N7         -1.2190    1.4280   -3.3180 nd        1 IOT     -0.576100
     16 C5         -1.2690    0.9290   -4.6290 ca        1 IOT     -0.205200
     17 C6         -2.2450    1.0290   -5.6680 ca        1 IOT      0.710200
     18 N6         -3.3740    1.8180   -5.4850 nh        1 IOT     -0.933500
     19 N1         -2.0160    0.3900   -6.8610 nb        1 IOT     -0.800000
     20 C2         -0.8380   -0.2800   -6.9930 ca        1 IOT      0.651900
     21 N3          0.1760   -0.4490   -6.1150 nb        1 IOT     -0.719000
     22 C4         -0.0580    0.1620   -4.9130 ca        1 IOT      0.446800
     23 CX         -2.6800    0.3360    2.2450 c3        1 IOT      0.145800
     24 CW         -1.2190    0.6390    1.9810 c         1 IOT      0.678100
     25 OX1        -0.5730    1.6870    2.1380 o         1 IOT     -0.597000
     26 OX2        -0.4830   -0.3440    1.4320 os        1 IOT     -0.568500
     27 NX         -3.0370    0.5400    3.6270 n3        1 IOT     -0.821200
     28 CA         -3.0110   -0.6510    4.4700 c3        1 IOT      0.047500
     29 CB         -1.9420   -0.5460    5.5670 c3        1 IOT     -0.053400
     30 CG         -0.5510   -0.4650    4.9810 c3        1 IOT     -0.115400
     31 CD          0.5230   -0.5830    6.0620 c3        1 IOT      0.182800
     32 NE          1.8850   -0.4730    5.5800 nh        1 IOT     -0.839200
     33 CZ          2.5910    0.7570    5.8440 c2        1 IOT      0.774100
     34 NH1         2.6180    1.3830    7.0060 n2        1 IOT     -0.942100
     35 NH2         3.4610    1.2160    4.8090 nh        1 IOT     -0.908800
     36 C          -4.3920   -0.9700    5.1380 c         1 IOT      0.901600
     37 O          -4.4300   -1.9270    5.9610 o         1 IOT     -0.847800
     38 OX3        -5.4040   -0.2900    4.8000 o         1 IOT     -0.847800
     39 H5'1        0.5360   -2.7680   -0.6380 h1        1 IOT      0.036200
     40 H5'2        0.3450   -0.9840   -1.0280 h1        1 IOT      0.036200
     41 H4'         2.7020   -2.9040   -1.5950 h1        1 IOT      0.072700
     42 H3'         3.2440   -0.3390   -0.4450 h1        1 IOT      0.142700
     43 HO'3        4.6510   -1.6770   -2.5160 ho        1 IOT      0.395000
     44 H2'         2.4940    1.1810   -2.0740 h1        1 IOT      0.122700
     45 HO'2        4.7970    0.7590   -2.7120 ho        1 IOT      0.419000
     46 H1'         2.4370   -0.6230   -4.5430 h2        1 IOT      0.105700
     47 H8          0.3220    1.2020   -1.7840 h5        1 IOT      0.163800
     48 H61        -4.1490    1.6450   -6.0820 hn        1 IOT      0.418800
     49 H62        -3.5940    2.0230   -4.5360 hn        1 IOT      0.418800
     50 H2         -0.6960   -0.7710   -7.9780 h5        1 IOT      0.032100
     51 HCX1       -2.8740   -0.7140    1.8770 h1        1 IOT      0.046700
     52 HCX2       -3.2590    1.0490    1.5890 h1        1 IOT      0.046700
     53 HNX        -3.9480    0.9650    3.6890 hn        1 IOT      0.395800
     54 HA         -2.7640   -1.5670    3.8530 h1        1 IOT      0.031700
     55 HB1        -2.0460   -1.4580    6.2130 hc        1 IOT      0.043200
     56 HB2        -2.1400    0.3500    6.2080 hc        1 IOT      0.043200
     57 HG1        -0.4250    0.5080    4.4330 hc        1 IOT      0.056200
     58 HG2        -0.4120   -1.2840    4.2270 hc        1 IOT      0.056200
     59 HD1         0.4430   -1.6030    6.5400 h1        1 IOT      0.032200
     60 HD2         0.2980    0.1740    6.8650 h1        1 IOT      0.032200
     61 HE          1.9430   -0.7460    4.6090 hn        1 IOT      0.433800
     62 HH11        2.0560    0.9630    7.7130 hn        1 IOT      0.369400
     63 HH21        3.6820    2.1840    4.8890 hn        1 IOT      0.411300
     64 HH22        3.1560    0.9670    3.8850 hn        1 IOT      0.411300
@<TRIPOS>BOND
     1    1    2 1   
     2    1    3 1   
     3    1    4 1   
     4    1   26 1   
     5    4    5 1   
     6    5    6 1   
     7    5   39 1   
     8    5   40 1   
     9    6    7 1   
    10    6    8 1   
    11    6   41 1   
    12    7   12 1   
    13    8    9 1   
    14    8   10 1   
    15    8   42 1   
    16    9   43 1   
    17   10   11 1   
    18   10   12 1   
    19   10   44 1   
    20   11   45 1   
    21   12   13 1   
    22   12   46 1   
    23   13   14 1   
    24   13   22 1   
    25   14   15 2   
    26   14   47 1   
    27   15   16 1   
    28   16   17 ar  
    29   16   22 ar  
    30   17   18 1   
    31   17   19 ar  
    32   18   48 1   
    33   18   49 1   
    34   19   20 ar  
    35   20   21 ar  
    36   20   50 1   
    37   21   22 ar  
    38   23   24 1   
    39   23   27 1   
    40   23   51 1   
    41   23   52 1   
    42   24   25 2   
    43   24   26 1   
    44   27   28 1   
    45   27   53 1   
    46   28   29 1   
    47   28   36 1   
    48   28   54 1   
    49   29   30 1   
    50   29   55 1   
    51   29   56 1   
    52   30   31 1   
    53   30   57 1   
    54   30   58 1   
    55   31   32 1   
    56   31   59 1   
    57   31   60 1   
    58   32   33 1   
    59   32   61 1   
    60   33   34 2   
    61   33   35 1   
    62   34   62 1   
    63   35   63 1   
    64   35   64 1   
    65   36   37 1   
    66   36   38 1   
@<TRIPOS>SUBSTRUCTURE
     1 IOT         1 TEMP              0 ****  ****    0 ROOT
