@<TRIPOS>MOLECULE
IOT
   64    60     1     0     0
SMALL
bcc


@<TRIPOS>ATOM
      1 PA          1.2530    0.1650    0.2310 p3        1 IOT      2.578000
      2 O1A         2.7670    0.0990    0.2310 o         1 IOT     -1.174000
      3 O2A         0.7600    0.2450    1.6450 os        1 IOT     -1.132000
      4 O5'         0.7730    1.4600   -0.5810 os        1 IOT     -0.719000
      5 C5'         1.5480    2.6560   -0.4840 c3        1 IOT      0.055000
      6 C4'         1.1080    3.6760   -1.6420 c3        1 IOT     -0.052000
      7 O4'         0.4060    4.6720   -1.1270 os        1 IOT     -0.277000
      8 C3'         2.3030    4.3200   -2.2510 c3        1 IOT      0.007000
      9 O3'         2.4800    3.8740   -3.5120 oh        1 IOT     -0.369000
     10 C2'         1.9860    5.8950   -2.2620 c3        1 IOT     -0.001000
     11 O2'         2.2660    6.4770   -3.6190 oh        1 IOT     -0.323000
     12 C1'         0.7740    5.9810   -1.9970 c3        1 IOT      0.121000
     13 N9          0.5090    7.2030   -1.2070 n3        1 IOT     -0.179000
     14 C8          0.7020    7.4010    0.0880 c1        1 IOT     -0.018000
     15 N7          0.1390    8.6190    0.4230 n2        1 IOT     -0.145000
     16 C5         -0.4010    9.1540   -0.7010 c1        1 IOT     -0.224000
     17 C6         -1.0460   10.3600   -0.9420 c1        1 IOT      0.199000
     18 N6         -1.2090   11.5100   -0.1010 n3        1 IOT     -0.338000
     19 N1         -1.4460   10.6640   -2.1750 n1        1 IOT     -0.276000
     20 C2         -1.2240    9.7950   -3.1980 c1        1 IOT     -0.004000
     21 N3         -0.5940    8.6160   -2.9660 n1        1 IOT     -0.186000
     22 C4         -0.1840    8.3000   -1.7120 c1        1 IOT      0.058000
     23 CX          0.4030   -3.5950   -0.4630 c3        1 IOT     -0.079000
     24 CW          1.0700   -2.3680    0.0270 c2        1 IOT      0.317000
     25 OX1         1.9640   -2.4490    0.8590 o         1 IOT     -0.433000
     26 OX2         0.6720   -1.1140   -0.4530 os        1 IOT     -0.681000
     27 NX          0.7180   -4.6910    0.4110 n3        1 IOT     -0.270000
     28 CA         -0.4180   -5.5970    0.4750 c3        1 IOT     -0.102000
     29 CB         -0.0920   -6.7630    1.4010 c3        1 IOT     -0.135000
     30 CG         -1.1190   -7.9440    1.1580 c3        1 IOT     -0.171000
     31 CD         -1.0790   -8.9210    2.3750 c3        1 IOT     -0.059000
     32 NE         -2.3550   -9.5040    2.5470 n3        1 IOT     -0.326000
     33 CZ         -2.6450  -10.3150    3.7810 c2        1 IOT      0.158000
     34 NH1        -3.1100   -9.7130    4.8900 n1        1 IOT     -0.383000
     35 NH2        -2.4320  -11.7310    3.7730 n3        1 IOT     -0.322000
     36 C          -1.6110   -4.8610    0.9960 c2        1 IOT      0.344000
     37 O          -2.7000   -4.9460    0.4040 o         1 IOT     -0.579500
     38 OX3        -1.4980   -4.1160    1.9860 o         1 IOT     -0.579500
     39 H5'1        1.3960    3.0690    0.3790 h1        1 IOT      0.057000
     40 H5'2        2.4820    2.4430   -0.5790 h1        1 IOT      0.057000
     41 H4'         0.6210    3.2380   -2.2830 h1        1 IOT      0.141000
     42 H3'         3.1670    4.1230   -1.6670 h1        1 IOT      0.131000
     43 HO'3        3.2610    3.4870   -3.5800 ho        1 IOT      0.291000
     44 H2'         2.5360    6.3660   -1.5570 h1        1 IOT      0.120000
     45 HO'2        3.1560    6.7920   -3.6500 ho        1 IOT      0.231000
     46 H1'         0.2380    5.9950   -2.8400 h2        1 IOT      0.149000
     47 H8          1.1010    6.8020    0.6760 DU        1 IOT      0.188500
     48 H61        -1.5980   12.2650   -0.4350 hn        1 IOT      0.217000
     49 H62        -0.9820   11.4680    0.7720 hn        1 IOT      0.217000
     50 H2         -1.5180   10.1130   -4.0430 ha        1 IOT      0.175000
     51 HCX1       -0.5410   -3.4610   -0.4740 h1        1 IOT      0.143000
     52 HCX2        0.7040   -3.7910   -1.3380 h1        1 IOT      0.143000
     53 HNX         1.4920   -5.1660    0.0680 hn        1 IOT      0.140000
     54 HA         -0.6230   -5.9550   -0.4670 h1        1 IOT      0.056000
     55 HB1        -0.1540   -6.4670    2.3330 hc        1 IOT      0.073000
     56 HB2         0.7860   -7.0680    1.2280 hc        1 IOT      0.073000
     57 HG1        -0.8750   -8.4310    0.3440 hc        1 IOT      0.106000
     58 HG2        -1.9920   -7.5910    1.0670 hc        1 IOT      0.106000
     59 HD1        -0.8230   -8.4050    3.2170 h1        1 IOT      0.073000
     60 HD2        -0.4180   -9.6230    2.2070 h1        1 IOT      0.073000
     61 HE         -2.9550   -9.4950    1.8540 hn        1 IOT      0.203000
     62 HH11       -3.2460   -8.8350    4.8960 DU        1 IOT      0.188500
     63 HH21       -2.5650  -12.2320    4.5620 hn        1 IOT      0.174000
     64 HH22       -2.0870  -12.1510    2.9990 hn        1 IOT      0.174000
@<TRIPOS>BOND
     1    1    2 1   
     2    1    4 1   
     3    1   26 1   
     4    4    5 1   
     5    5    6 1   
     6    5   39 1   
     7    5   40 1   
     8    6    7 1   
     9    6    8 1   
    10    6   41 1   
    11    7   12 1   
    12    8    9 1   
    13    8   10 1   
    14    8   42 1   
    15    9   43 1   
    16   10   11 1   
    17   10   12 1   
    18   10   44 1   
    19   11   45 1   
    20   12   13 1   
    21   12   46 1   
    22   13   14 1   
    23   13   22 1   
    24   14   15 1   
    25   15   16 1   
    26   16   22 1   
    27   17   18 1   
    28   17   19 1   
    29   18   48 1   
    30   18   49 1   
    31   20   21 1   
    32   20   50 1   
    33   23   24 1   
    34   23   27 1   
    35   23   51 1   
    36   23   52 1   
    37   24   25 1   
    38   24   26 1   
    39   27   28 1   
    40   27   53 1   
    41   28   29 1   
    42   28   36 1   
    43   28   54 1   
    44   29   30 1   
    45   29   55 1   
    46   29   56 1   
    47   30   31 1   
    48   30   57 1   
    49   30   58 1   
    50   31   32 1   
    51   31   59 1   
    52   31   60 1   
    53   32   33 1   
    54   32   61 1   
    55   33   34 1   
    56   33   35 1   
    57   35   63 1   
    58   35   64 1   
    59   36   37 1   
    60   36   38 1   
@<TRIPOS>SUBSTRUCTURE
     1 IOT         1 TEMP              0 ****  ****    0 ROOT
