@<TRIPOS>MOLECULE
IOX
   19    12     1     0     0
SMALL
bcc


@<TRIPOS>ATOM
      1 C          -0.0030   -0.0230   -1.5050 c3        1 IOX     -0.829000
      2 S           1.7800   -0.0260   -1.5340 s4        1 IOX      2.049800
      3 C1         -0.4890   -0.0160   -0.0580 c2        1 IOX     -0.082000
      4 C2         -0.8700    1.1790    0.5420 c1        1 IOX     -0.107000
      5 C3         -1.3600    1.1780    1.8430 c1        1 IOX     -0.128000
      6 C4         -1.4680   -0.0180    2.5450 c1        1 IOX     -0.117000
      7 C5         -1.0880   -1.2130    1.9450 c1        1 IOX     -0.122000
      8 C6         -0.5980   -1.2120    0.6440 c1        1 IOX     -0.123000
      9 O1S         2.6870   -0.1650   -3.1580 os        1 IOX     -0.775000
     10 O2S         2.5120    1.0580   -0.9320 o         1 IOX     -0.547900
     11 O3S         2.5010   -1.2570   -1.3400 o         1 IOX     -0.547900
     12 H          -0.3390   -0.8250   -1.9600 h1        1 IOX      0.173000
     13 HA         -0.3360    0.7780   -1.9660 h1        1 IOX      0.173000
     14 H2         -0.7930    2.0230    0.0480 DU        1 IOX      0.172750
     15 H3         -1.6280    2.0220    2.2670 DU        1 IOX      0.172750
     16 H4         -1.8140   -0.0180    3.4630 DU        1 IOX      0.172750
     17 H5         -1.1640   -2.0570    2.4400 ha        1 IOX      0.140000
     18 H6         -0.3290   -2.0550    0.2200 ha        1 IOX      0.153000
     19 HO1S        2.8010    0.6470   -3.5050 DU        1 IOX      0.172750
@<TRIPOS>BOND
     1    1    2 1   
     2    1    3 1   
     3    1   12 1   
     4    1   13 1   
     5    2   10 1   
     6    2   11 1   
     7    3    4 1   
     8    3    8 1   
     9    4    5 1   
    10    6    7 1   
    11    7   17 1   
    12    8   18 1   
@<TRIPOS>SUBSTRUCTURE
     1 IOX         1 TEMP              0 ****  ****    0 ROOT
