@<TRIPOS>MOLECULE
IOX
   19    19     1     0     0
SMALL
bcc


@<TRIPOS>ATOM
      1 C           0.5530    0.1430   -0.9690 c3        1 IOX     -0.282300
      2 S           1.6950   -0.2520    0.2210 s6        1 IOX      1.604500
      3 C1         -0.8500    0.0930   -0.4930 ca        1 IOX     -0.089300
      4 C2         -1.6130    1.2630   -0.4120 ca        1 IOX     -0.115000
      5 C3         -2.9400    1.2050    0.0140 ca        1 IOX     -0.125000
      6 C4         -3.5140   -0.0200    0.3540 ca        1 IOX     -0.117000
      7 C5         -2.7570   -1.1890    0.2710 ca        1 IOX     -0.125000
      8 C6         -1.4310   -1.1370   -0.1530 ca        1 IOX     -0.115000
      9 O1S         3.0490   -0.2500   -0.7430 oh        1 IOX     -0.766700
     10 O2S         1.9650    0.7880    1.0870 o         1 IOX     -0.660300
     11 O3S         1.5650   -1.5490    0.6630 o         1 IOX     -0.660300
     12 H           0.7640    1.1650   -1.3940 h1        1 IOX      0.133700
     13 HA          0.6510   -0.5530   -1.8520 h1        1 IOX      0.133700
     14 H2         -1.1670    2.2320   -0.6810 ha        1 IOX      0.144500
     15 H3         -3.5330    2.1290    0.0790 ha        1 IOX      0.138500
     16 H4         -4.5610   -0.0640    0.6890 ha        1 IOX      0.137000
     17 H5         -3.2060   -2.1570    0.5410 ha        1 IOX      0.138500
     18 H6         -0.8310   -2.0600   -0.2080 ha        1 IOX      0.144500
     19 HO1S        3.8210    0.2090   -0.4180 ho        1 IOX      0.482000
@<TRIPOS>BOND
     1    1    2 1   
     2    1    3 1   
     3    1   12 1   
     4    1   13 1   
     5    2    9 1   
     6    2   10 2   
     7    2   11 2   
     8    3    4 ar  
     9    3    8 ar  
    10    4    5 ar  
    11    4   14 1   
    12    5    6 ar  
    13    5   15 1   
    14    6    7 ar  
    15    6   16 1   
    16    7    8 ar  
    17    7   17 1   
    18    8   18 1   
    19    9   19 1   
@<TRIPOS>SUBSTRUCTURE
     1 IOX         1 TEMP              0 ****  ****    0 ROOT
