@<TRIPOS>MOLECULE
IOX
   19    19     1     0     0
SMALL
bcc


@<TRIPOS>ATOM
      1 C           0.2000   -0.1280    0.1140 c3        1 IOX     -0.282300
      2 S           1.8550    0.2430    0.0720 s6        1 IOX      1.604500
      3 C1         -0.3890   -0.0860    1.4740 ca        1 IOX     -0.089300
      4 C2         -0.5070    1.1370    2.1500 ca        1 IOX     -0.115000
      5 C3         -1.0820    1.1810    3.4180 ca        1 IOX     -0.125000
      6 C4         -1.5470    0.0100    4.0190 ca        1 IOX     -0.117000
      7 C5         -1.4340   -1.2070    3.3480 ca        1 IOX     -0.125000
      8 C6         -0.8590   -1.2570    2.0790 ca        1 IOX     -0.115000
      9 O1S         2.0500    0.2590   -1.5780 oh        1 IOX     -0.766700
     10 O2S         2.1160    1.5300    0.4830 o         1 IOX     -0.660300
     11 O3S         2.6610   -0.8150    0.4400 o         1 IOX     -0.660300
     12 H          -0.3770    0.5870   -0.5410 h1        1 IOX      0.133700
     13 HA          0.0110   -1.1400   -0.3410 h1        1 IOX      0.133700
     14 H2         -0.1300    2.0610    1.6810 ha        1 IOX      0.144500
     15 H3         -1.1680    2.1430    3.9450 ha        1 IOX      0.138500
     16 H4         -2.0020    0.0480    5.0200 ha        1 IOX      0.137000
     17 H5         -1.7980   -2.1320    3.8190 ha        1 IOX      0.138500
     18 H6         -0.7750   -2.2210    1.5540 ha        1 IOX      0.144500
     19 HO1S        2.8010   -0.2070   -1.9380 ho        1 IOX      0.482000
@<TRIPOS>BOND
     1    1    2 1   
     2    1    3 1   
     3    1   12 1   
     4    1   13 1   
     5    2    9 1   
     6    2   10 2   
     7    2   11 2   
     8    3    4 ar  
     9    3    8 ar  
    10    4    5 ar  
    11    4   14 1   
    12    5    6 ar  
    13    5   15 1   
    14    6    7 ar  
    15    6   16 1   
    16    7    8 ar  
    17    7   17 1   
    18    8   18 1   
    19    9   19 1   
@<TRIPOS>SUBSTRUCTURE
     1 IOX         1 TEMP              0 ****  ****    0 ROOT
