@<TRIPOS>MOLECULE
IOY
   22    22     1     0     0
SMALL
bcc


@<TRIPOS>ATOM
      1 CG         -1.4310   -0.0900   -0.6540 ca        1 IOY     -0.002300
      2 CD1        -0.8640   -1.2020   -0.0130 ca        1 IOY     -0.138000
      3 CE1         0.5090   -1.2700    0.2080 ca        1 IOY     -0.101500
      4 CZ          1.3380   -0.2280   -0.2100 ca        1 IOY      0.003900
      5 I1          3.3350   -0.3310    0.1020 i         1 IOY     -0.197900
      6 CE2         0.7850    0.8850   -0.8420 ca        1 IOY     -0.101500
      7 CD2        -0.5890    0.9520   -1.0630 ca        1 IOY     -0.138000
      8 CB         -2.8940   -0.0400   -0.9060 c3        1 IOY     -0.043100
      9 N          -3.5730    1.4870    0.9460 n3        1 IOY     -0.886800
     10 C          -5.1910   -0.2720    0.0720 c         1 IOY      0.887600
     11 OXT        -5.3690   -1.3920   -0.4790 o         1 IOY     -0.838800
     12 O          -6.1160    0.5180    0.4140 o         1 IOY     -0.838800
     13 CA         -3.7140    0.1550    0.3760 c3        1 IOY      0.022500
     14 HD1        -1.5200   -2.0200    0.3210 ha        1 IOY      0.141000
     15 HE1         0.9320   -2.1510    0.7150 ha        1 IOY      0.127000
     16 HE2         1.4260    1.7170   -1.1680 ha        1 IOY      0.127000
     17 HD2        -1.0210    1.8380   -1.5520 ha        1 IOY      0.141000
     18 HB3        -3.2320   -1.0160   -1.3570 hc        1 IOY      0.064700
     19 HB2        -3.1340    0.7730   -1.6400 hc        1 IOY      0.064700
     20 H          -3.8440    2.1600    0.2500 hn        1 IOY      0.331800
     21 H2         -4.2510    1.5640    1.6870 hn        1 IOY      0.331800
     22 HA         -3.3290   -0.5720    1.1510 h1        1 IOY      0.043700
@<TRIPOS>BOND
     1    1    2 ar  
     2    1    7 ar  
     3    1    8 1   
     4    2    3 ar  
     5    2   14 1   
     6    3    4 ar  
     7    3   15 1   
     8    4    5 1   
     9    4    6 ar  
    10    6    7 ar  
    11    6   16 1   
    12    7   17 1   
    13    8   13 1   
    14    8   18 1   
    15    8   19 1   
    16    9   13 1   
    17    9   20 1   
    18    9   21 1   
    19   10   11 1   
    20   10   12 1   
    21   10   13 1   
    22   13   22 1   
@<TRIPOS>SUBSTRUCTURE
     1 IOY         1 TEMP              0 ****  ****    0 ROOT
