@<TRIPOS>MOLECULE
IOY
   22    18     1     0     0
SMALL
bcc


@<TRIPOS>ATOM
      1 CG          0.1120    0.5430    0.4100 c1        1 IOY     -0.005000
      2 CD1         1.4980    0.5670    0.4010 c1        1 IOY     -0.124000
      3 CE1         2.2000    0.5210    1.5950 c1        1 IOY     -0.124000
      4 CZ          1.5170    0.4520    2.7990 c1        1 IOY     -0.280000
      5 I1          2.5830    0.4320    4.6160 i         1 IOY      0.087000
      6 CE2         0.1310    0.4290    2.8080 c1        1 IOY     -0.106000
      7 CD2        -0.5710    0.4740    1.6140 c1        1 IOY     -0.123000
      8 CB         -0.6540    0.6450   -0.8900 c3        1 IOY     -0.126000
      9 N          -2.0500   -1.2390   -1.3840 n3        1 IOY     -0.322000
     10 C          -0.4060   -0.6000   -3.0070 c1        1 IOY      0.308000
     11 OXT        -1.0260    0.2270   -3.7250 os        1 IOY     -0.578000
     12 O           0.4840   -1.3320   -3.5140 o         1 IOY     -0.569000
     13 CA         -0.7350   -0.7190   -1.5360 c3        1 IOY     -0.126000
     14 HD1         1.9800    0.6260   -0.4460 ha        1 IOY      0.135000
     15 HE1         3.1760    0.5380    1.5880 ha        1 IOY      0.135000
     16 HE2        -0.3510    0.3800    3.6560 ha        1 IOY      0.127000
     17 HD2        -1.5470    0.4470    1.6200 ha        1 IOY      0.147000
     18 HB3        -0.1950    1.2640   -1.4920 hc        1 IOY      0.102500
     19 HB2        -1.5580    0.9740   -0.7110 hc        1 IOY      0.102500
     20 H          -2.0040   -2.1110   -1.1080 hn        1 IOY      0.127000
     21 H2         -2.4900   -1.1960   -2.1870 hn        1 IOY      0.127000
     22 HA         -0.0950   -1.3210   -1.1070 h1        1 IOY      0.086000
@<TRIPOS>BOND
     1    1    7 1   
     2    1    8 1   
     3    2    3 1   
     4    2   14 1   
     5    3   15 1   
     6    4    5 1   
     7    4    6 1   
     8    6   16 1   
     9    7   17 1   
    10    8   13 1   
    11    8   18 1   
    12    8   19 1   
    13    9   13 1   
    14    9   20 1   
    15    9   21 1   
    16   10   12 1   
    17   10   13 1   
    18   13   22 1   
@<TRIPOS>SUBSTRUCTURE
     1 IOY         1 TEMP              0 ****  ****    0 ROOT
