@<TRIPOS>MOLECULE
IP0
   22    22     1     0     0
SMALL
bcc


@<TRIPOS>ATOM
      1 C8         -0.0270    0.0130    0.0370 c3        1 IP0     -0.086100
      2 C7          1.4900   -0.0160    0.0060 c3        1 IP0     -0.020400
      3 C9          2.0490    0.0570    1.4150 c3        1 IP0     -0.086100
      4 C2          1.9880   -1.2330   -0.7050 ca        1 IP0     -0.094300
      5 C3          1.6990   -2.5150   -0.2280 ca        1 IP0     -0.096000
      6 C4          2.1600   -3.6540   -0.8870 ca        1 IP0     -0.163000
      7 C5          2.9260   -3.5290   -2.0450 ca        1 IP0     -0.095000
      8 C6          3.2320   -2.2670   -2.5460 ca        1 IP0     -0.212000
      9 C1          2.7640   -1.1250   -1.8780 ca        1 IP0      0.124100
     10 O1          3.0430    0.1440   -2.3380 oh        1 IP0     -0.500100
     11 H8         -0.4370   -0.0100   -1.0010 hc        1 IP0      0.034700
     12 H8A        -0.3800    0.9450    0.5400 hc        1 IP0      0.034700
     13 H8B        -0.4290   -0.8660    0.5960 hc        1 IP0      0.034700
     14 H7          1.8430    0.8990   -0.5550 hc        1 IP0      0.072700
     15 H9          1.7160   -0.8210    2.0200 hc        1 IP0      0.034700
     16 H9A         1.6950    0.9890    1.9170 hc        1 IP0      0.034700
     17 H9B         3.1650    0.0670    1.3900 hc        1 IP0      0.034700
     18 H3          1.0940   -2.6210    0.6860 ha        1 IP0      0.135000
     19 H4          1.9190   -4.6510   -0.4910 ha        1 IP0      0.133000
     20 H5          3.2910   -4.4260   -2.5660 ha        1 IP0      0.132000
     21 H6          3.8350   -2.1610   -3.4580 ha        1 IP0      0.131000
     22 HO1         3.5770    0.0570   -3.1410 ho        1 IP0      0.418000
@<TRIPOS>BOND
     1    1    2 1   
     2    1   11 1   
     3    1   12 1   
     4    1   13 1   
     5    2    3 1   
     6    2    4 1   
     7    2   14 1   
     8    3   15 1   
     9    3   16 1   
    10    3   17 1   
    11    4    5 ar  
    12    4    9 ar  
    13    5    6 ar  
    14    5   18 1   
    15    6    7 ar  
    16    6   19 1   
    17    7    8 ar  
    18    7   20 1   
    19    8    9 ar  
    20    8   21 1   
    21    9   10 1   
    22   10   22 1   
@<TRIPOS>SUBSTRUCTURE
     1 IP0         1 TEMP              0 ****  ****    0 ROOT
