@<TRIPOS>MOLECULE
IP0
   22    22     1     0     0
SMALL
bcc


@<TRIPOS>ATOM
      1 C8         -2.4300    0.7300    1.0720 c3        1 IP0     -0.090600
      2 C7         -1.6670   -0.1810    0.1310 c3        1 IP0     -0.021400
      3 C9         -2.2710   -0.1110   -1.2610 c3        1 IP0     -0.090600
      4 C2         -0.2010    0.1130    0.0860 ca        1 IP0     -0.151300
      5 C3          0.3040    1.3700    0.4400 ca        1 IP0     -0.092000
      6 C4          1.6710    1.6340    0.4110 ca        1 IP0     -0.165000
      7 C5          2.5690    0.6400    0.0240 ca        1 IP0     -0.100000
      8 C6          2.1030   -0.6170   -0.3430 ca        1 IP0     -0.157000
      9 C1          0.7210   -0.8750   -0.3170 ca        1 IP0      0.126100
     10 O1          0.3650   -2.1500   -0.6990 oh        1 IP0     -0.503100
     11 H8         -2.5090    1.7630    0.6550 hc        1 IP0      0.038700
     12 H8A        -3.4650    0.3360    1.2180 hc        1 IP0      0.038700
     13 H8B        -1.9230    0.7810    2.0650 hc        1 IP0      0.038700
     14 H7         -1.7970   -1.2340    0.5240 hc        1 IP0      0.043700
     15 H9         -2.1950    0.9260   -1.6670 hc        1 IP0      0.038700
     16 H9A        -1.7360   -0.8000   -1.9590 hc        1 IP0      0.038700
     17 H9B        -3.3490   -0.4000   -1.2250 hc        1 IP0      0.038700
     18 H3         -0.3890    2.1680    0.7480 ha        1 IP0      0.134000
     19 H4          2.0410    2.6290    0.6950 ha        1 IP0      0.132000
     20 H5          3.6490    0.8480    0.0050 ha        1 IP0      0.133000
     21 H6          2.7910   -1.4150   -0.6550 ha        1 IP0      0.149000
     22 HO1        -0.5990   -2.2010   -0.7540 ho        1 IP0      0.421000
@<TRIPOS>BOND
     1    1    2 1   
     2    1   11 1   
     3    1   12 1   
     4    1   13 1   
     5    2    3 1   
     6    2    4 1   
     7    2   14 1   
     8    3   15 1   
     9    3   16 1   
    10    3   17 1   
    11    4    5 ar  
    12    4    9 ar  
    13    5    6 ar  
    14    5   18 1   
    15    6    7 ar  
    16    6   19 1   
    17    7    8 ar  
    18    7   20 1   
    19    8    9 ar  
    20    8   21 1   
    21    9   10 1   
    22   10   22 1   
@<TRIPOS>SUBSTRUCTURE
     1 IP0         1 TEMP              0 ****  ****    0 ROOT
