@<TRIPOS>MOLECULE
IP0
   22    20     1     0     0
SMALL
bcc


@<TRIPOS>ATOM
      1 C8         -1.9230   -1.2080    0.5990 c3        1 IP0     -0.204000
      2 C7         -0.4100   -1.2080    0.5990 c3        1 IP0     -0.067000
      3 C9          0.0940   -1.2080    2.0250 c3        1 IP0     -0.204000
      4 C2          0.0940    0.0270   -0.1140 c2        1 IP0     -0.087000
      5 C3         -0.3320    1.2830    0.2890 c2        1 IP0     -0.096000
      6 C4          0.1300    2.4150   -0.3640 c1        1 IP0     -0.163000
      7 C5          1.0180    2.2910   -1.4210 c1        1 IP0     -0.153500
      8 C6          1.4440    1.0350   -1.8250 c1        1 IP0     -0.153500
      9 C1          0.9820   -0.0970   -1.1710 c1        1 IP0      0.079000
     10 O1          1.4150   -1.3710   -1.5810 oh        1 IP0     -0.254000
     11 H8         -2.2480   -2.0880    0.8680 hc        1 IP0      0.074000
     12 H8A        -2.2480   -0.5350    1.2260 hc        1 IP0      0.074000
     13 H8B        -2.2480   -1.0010   -0.2980 hc        1 IP0      0.074000
     14 H7         -0.0850   -2.0050    0.1390 hc        1 IP0      0.112000
     15 H9          1.0590   -1.0590    2.0290 hc        1 IP0      0.074000
     16 H9A        -0.3470   -0.4960    2.5260 hc        1 IP0      0.074000
     17 H9B        -0.1040   -2.0690    2.4400 hc        1 IP0      0.074000
     18 H3         -0.9580    1.3700    1.0330 ha        1 IP0      0.135000
     19 H4         -0.1700    3.2990   -0.0800 ha        1 IP0      0.133000
     20 H5          1.3430    3.0880   -1.8810 ha        1 IP0      0.131500
     21 H6          2.0700    0.9480   -2.5690 ha        1 IP0      0.131500
     22 HO1         1.4240   -1.4100   -2.4680 ho        1 IP0      0.217000
@<TRIPOS>BOND
     1    1    2 1   
     2    1   11 1   
     3    1   12 1   
     4    1   13 1   
     5    2    3 1   
     6    2    4 1   
     7    2   14 1   
     8    3   15 1   
     9    3   16 1   
    10    3   17 1   
    11    4    5 1   
    12    4    9 1   
    13    5    6 1   
    14    5   18 1   
    15    6   19 1   
    16    7    8 1   
    17    7   20 1   
    18    8   21 1   
    19    9   10 1   
    20   10   22 1   
@<TRIPOS>SUBSTRUCTURE
     1 IP0         1 TEMP              0 ****  ****    0 ROOT
