@<TRIPOS>MOLECULE
IP1
   45    46     1     0     0
SMALL
bcc


@<TRIPOS>ATOM
      1 C1          2.9560    1.8100    0.7840 c         1 IP1      0.938600
      2 C2          4.0190    1.4370    1.9300 c3        1 IP1     -0.076500
      3 C3          3.3740    0.3850    2.8300 c3        1 IP1     -0.088400
      4 C4          3.6280   -1.0000    2.2570 c3        1 IP1     -0.083400
      5 C7          3.3550   -2.0910    3.2850 c3        1 IP1     -0.150400
      6 C10         4.4100   -3.1620    3.2560 c         1 IP1      0.555100
      7 N11         5.6330   -2.9630    4.1430 n4        1 IP1     -0.671800
      8 C12         6.5320   -1.9300    3.6090 cy        1 IP1     -0.060500
      9 C13         7.9280   -1.6910    4.3400 c         1 IP1      0.681500
     10 N14         4.4660    2.6560    2.6580 n4        1 IP1     -0.818600
     11 O15         4.4110   -4.2070    2.6240 o         1 IP1     -0.424100
     12 C16         6.2260   -0.4710    4.0680 cy        1 IP1      0.147800
     13 S17         5.2530   -0.4110    5.6010 ss        1 IP1     -0.464200
     14 O18         8.8390   -2.4620    4.5750 o         1 IP1     -0.509500
     15 O19         2.5870    0.8370    0.0980 o         1 IP1     -0.766300
     16 O20         2.6280    3.0190    0.7270 o         1 IP1     -0.766300
     17 N29         7.6470   -0.3020    4.4330 n         1 IP1     -0.309800
     18 C30         7.7670    0.5810    5.5740 c3        1 IP1     -0.101300
     19 C31         7.5610    2.0930    5.0910 c         1 IP1      0.967600
     20 C32         6.6730    0.2390    6.6220 c3        1 IP1      0.112100
     21 C33         6.1990    1.4560    7.3680 c3        1 IP1     -0.099100
     22 C37         7.1130   -0.8550    7.5590 c3        1 IP1     -0.099100
     23 O42         8.3440    2.9190    5.5920 o         1 IP1     -0.811300
     24 O43         6.6170    2.3240    4.2800 o         1 IP1     -0.811300
     25 H2          4.9190    1.0160    1.4030 hx        1 IP1      0.079700
     26 H32         3.7560    0.4500    3.8880 hc        1 IP1      0.066200
     27 H31         2.2660    0.5670    2.8680 hc        1 IP1      0.066200
     28 H42A        4.6860   -1.0770    1.8900 hc        1 IP1      0.084700
     29 H41         2.9660   -1.1290    1.3520 hc        1 IP1      0.084700
     30 H72         3.2770   -1.6520    4.3190 hc        1 IP1      0.108200
     31 H71         2.3770   -2.5970    3.0500 hc        1 IP1      0.108200
     32 H11         5.3190   -2.6440    5.0910 hn        1 IP1      0.469800
     33 H12         6.6500   -2.0550    2.5000 hx        1 IP1      0.141700
     34 H142        4.3700    2.5550    3.6710 hn        1 IP1      0.462467
     35 H141        3.8920    3.4480    2.3150 hn        1 IP1      0.462467
     36 H16         5.8840    0.2680    3.3090 h2        1 IP1      0.163700
     37 H30         8.7900    0.4960    6.0300 h1        1 IP1      0.119700
     38 H333        5.6430    2.1470    6.6850 hc        1 IP1      0.059700
     39 H332        5.5360    1.1650    8.2180 hc        1 IP1      0.059700
     40 H331        7.0860    2.0150    7.7660 hc        1 IP1      0.059700
     41 H373        6.2610   -1.2110    8.1870 hc        1 IP1      0.059700
     42 H372        7.5360   -1.7230    6.9960 hc        1 IP1      0.059700
     43 H371        7.9090   -0.4610    8.2410 hc        1 IP1      0.059700
     44 H112        6.1510   -3.8460    4.2230 hn        1 IP1      0.469800
     45 H143        5.4600    2.8430    2.4790 hn        1 IP1      0.462467
@<TRIPOS>BOND
     1    1    2 1   
     2    1   15 1   
     3    1   16 1   
     4    2    3 1   
     5    2   10 1   
     6    2   25 1   
     7    3    4 1   
     8    3   26 1   
     9    3   27 1   
    10    4    5 1   
    11    4   28 1   
    12    4   29 1   
    13    5    6 1   
    14    5   30 1   
    15    5   31 1   
    16    6    7 1   
    17    6   11 2   
    18    7    8 1   
    19    7   32 1   
    20    7   44 1   
    21    8    9 1   
    22    8   12 1   
    23    8   33 1   
    24    9   14 2   
    25    9   17 1   
    26   10   34 1   
    27   10   35 1   
    28   10   45 1   
    29   12   13 1   
    30   12   17 1   
    31   12   36 1   
    32   13   20 1   
    33   17   18 1   
    34   18   19 1   
    35   18   20 1   
    36   18   37 1   
    37   19   23 1   
    38   19   24 1   
    39   20   21 1   
    40   20   22 1   
    41   21   38 1   
    42   21   39 1   
    43   21   40 1   
    44   22   41 1   
    45   22   42 1   
    46   22   43 1   
@<TRIPOS>SUBSTRUCTURE
     1 IP1         1 TEMP              0 ****  ****    0 ROOT
