@<TRIPOS>MOLECULE
IP1
   45    46     1     0     0
SMALL
bcc


@<TRIPOS>ATOM
      1 C1          3.0620    1.8210    0.7170 c         1 IP1      0.938600
      2 C2          4.0950    1.4410    1.8870 c3        1 IP1     -0.076500
      3 C3          3.4150    0.4090    2.7840 c3        1 IP1     -0.088400
      4 C4          3.6560   -0.9860    2.2290 c3        1 IP1     -0.083400
      5 C7          3.3450   -2.0620    3.2610 c3        1 IP1     -0.150400
      6 C10         4.3810   -3.1510    3.2640 c         1 IP1      0.555100
      7 N11         5.5890   -2.9650    4.1730 n4        1 IP1     -0.671800
      8 C12         6.5170   -1.9520    3.6460 cy        1 IP1     -0.060500
      9 C13         7.9020   -1.7300    4.4030 c         1 IP1      0.681500
     10 N14         4.5490    2.6590    2.6120 n4        1 IP1     -0.818600
     11 O15         4.3760   -4.2020    2.6420 o         1 IP1     -0.424100
     12 C16         6.2270   -0.4840    4.0860 cy        1 IP1      0.147800
     13 S17         5.2260   -0.3920    5.5990 ss        1 IP1     -0.464200
     14 O18         8.7950   -2.5140    4.6630 o         1 IP1     -0.509500
     15 O19         2.6900    0.8480    0.0330 o         1 IP1     -0.766300
     16 O20         2.7560    3.0340    0.6420 o         1 IP1     -0.766300
     17 N29         7.6440   -0.3360    4.4770 n         1 IP1     -0.309800
     18 C30         7.7560    0.5560    5.6120 c3        1 IP1     -0.101300
     19 C31         7.5860    2.0670    5.1110 c         1 IP1      0.967600
     20 C32         6.6360    0.2440    6.6410 c3        1 IP1      0.112100
     21 C33         6.1690    1.4750    7.3670 c3        1 IP1     -0.099100
     22 C37         7.0400   -0.8480    7.5970 c3        1 IP1     -0.099100
     23 O42         8.3740    2.8840    5.6190 o         1 IP1     -0.811300
     24 O43         6.6630    2.3060    4.2790 o         1 IP1     -0.811300
     25 H2          4.9980    0.9990    1.3810 hx        1 IP1      0.079700
     26 H32         2.3100    0.6100    2.7980 hc        1 IP1      0.066200
     27 H31         3.7780    0.4770    3.8490 hc        1 IP1      0.066200
     28 H42A        4.7190   -1.0840    1.8840 hc        1 IP1      0.084700
     29 H41         3.0100   -1.1120    1.3130 hc        1 IP1      0.084700
     30 H72         3.2540   -1.6110    4.2900 hc        1 IP1      0.108200
     31 H71         2.3620   -2.5530    3.0130 hc        1 IP1      0.108200
     32 H11         6.0910   -3.8560    4.2710 hn        1 IP1      0.469800
     33 H12         6.6540   -2.0900    2.5420 hx        1 IP1      0.141700
     34 H142        3.9960    3.4580    2.2510 hn        1 IP1      0.462467
     35 H141        5.5490    2.8270    2.4500 hn        1 IP1      0.462467
     36 H16         5.9130    0.2530    3.3130 h2        1 IP1      0.163700
     37 H30         8.7680    0.4590    6.0890 h1        1 IP1      0.119700
     38 H333        5.4840    1.2050    8.2060 hc        1 IP1      0.059700
     39 H332        5.6390    2.1690    6.6660 hc        1 IP1      0.059700
     40 H331        7.0580    2.0230    7.7760 hc        1 IP1      0.059700
     41 H373        6.1690   -1.1840    8.2110 hc        1 IP1      0.059700
     42 H372        7.4580   -1.7290    7.0510 hc        1 IP1      0.059700
     43 H371        7.8290   -0.4620    8.2910 hc        1 IP1      0.059700
     44 H112        5.2630   -2.6300    5.1110 hn        1 IP1      0.469800
     45 H143        4.4320    2.5700    3.6240 hn        1 IP1      0.462467
@<TRIPOS>BOND
     1    1    2 1   
     2    1   15 1   
     3    1   16 1   
     4    2    3 1   
     5    2   10 1   
     6    2   25 1   
     7    3    4 1   
     8    3   26 1   
     9    3   27 1   
    10    4    5 1   
    11    4   28 1   
    12    4   29 1   
    13    5    6 1   
    14    5   30 1   
    15    5   31 1   
    16    6    7 1   
    17    6   11 2   
    18    7    8 1   
    19    7   32 1   
    20    7   44 1   
    21    8    9 1   
    22    8   12 1   
    23    8   33 1   
    24    9   14 2   
    25    9   17 1   
    26   10   34 1   
    27   10   35 1   
    28   10   45 1   
    29   12   13 1   
    30   12   17 1   
    31   12   36 1   
    32   13   20 1   
    33   17   18 1   
    34   18   19 1   
    35   18   20 1   
    36   18   37 1   
    37   19   23 1   
    38   19   24 1   
    39   20   21 1   
    40   20   22 1   
    41   21   38 1   
    42   21   39 1   
    43   21   40 1   
    44   22   41 1   
    45   22   42 1   
    46   22   43 1   
@<TRIPOS>SUBSTRUCTURE
     1 IP1         1 TEMP              0 ****  ****    0 ROOT
