@<TRIPOS>MOLECULE
IP1
   45    46     1     0     0
SMALL
bcc


@<TRIPOS>ATOM
      1 C1          3.0910    1.8350    0.7040 c         1 IP1      0.938600
      2 C2          4.1130    1.4510    1.8830 c3        1 IP1     -0.076500
      3 C3          3.4280    0.4090    2.7650 c3        1 IP1     -0.088400
      4 C4          3.6820   -0.9800    2.2030 c3        1 IP1     -0.083400
      5 C7          3.3640   -2.0650    3.2240 c3        1 IP1     -0.150400
      6 C10         4.4060   -3.1490    3.2300 c         1 IP1      0.555100
      7 N11         5.6030   -2.9640    4.1530 ny        1 IP1     -0.671800
      8 C12         6.5310   -1.9430    3.6450 cy        1 IP1     -0.060500
      9 C13         7.9070   -1.7200    4.4180 c         1 IP1      0.681500
     10 N14         4.5530    2.6660    2.6220 nz        1 IP1     -0.818600
     11 O15         4.4130   -4.1960    2.6000 o         1 IP1     -0.424100
     12 C16         6.2300   -0.4790    4.0920 cy        1 IP1      0.147800
     13 S17         5.2120   -0.4030    5.5940 ss        1 IP1     -0.464200
     14 O18         8.8010   -2.5020    4.6830 o         1 IP1     -0.509500
     15 O19         2.7320    0.8650    0.0090 o         1 IP1     -0.766300
     16 O20         2.7800    3.0470    0.6350 o         1 IP1     -0.766300
     17 N29         7.6410   -0.3280    4.5000 n         1 IP1     -0.309800
     18 C30         7.7370    0.5570    5.6420 c3        1 IP1     -0.101300
     19 C31         7.5650    2.0700    5.1490 c         1 IP1      0.967600
     20 C32         6.6070    0.2310    6.6570 c3        1 IP1      0.112100
     21 C33         6.1260    1.4560    7.3850 c3        1 IP1     -0.099100
     22 C37         7.0050   -0.8650    7.6090 c3        1 IP1     -0.099100
     23 O42         8.3430    2.8880    5.6730 o         1 IP1     -0.811300
     24 O43         6.6500    2.3110    4.3100 o         1 IP1     -0.811300
     25 H2          5.0240    1.0170    1.3850 hx        1 IP1      0.079700
     26 H32         3.7790    0.4720    3.8340 hc        1 IP1      0.066200
     27 H31         2.3220    0.6050    2.7680 hc        1 IP1      0.066200
     28 H42A        3.0470   -1.1030    1.2780 hc        1 IP1      0.084700
     29 H41         4.7500   -1.0710    1.8690 hc        1 IP1      0.084700
     30 H72         3.2600   -1.6230    4.2550 hc        1 IP1      0.108200
     31 H71         2.3870   -2.5590    2.9610 hc        1 IP1      0.108200
     32 H11         5.2650   -2.6380    5.0910 hn        1 IP1      0.469800
     33 H12         6.6820   -2.0720    2.5410 hx        1 IP1      0.141700
     34 H142        4.0000    3.4650    2.2600 hn        1 IP1      0.462467
     35 H141        5.5540    2.8400    2.4730 hn        1 IP1      0.462467
     36 H16         5.9210    0.2620    3.3210 h2        1 IP1      0.163700
     37 H30         8.7440    0.4600    6.1300 h1        1 IP1      0.119700
     38 H333        5.6000    2.1520    6.6840 hc        1 IP1      0.059700
     39 H332        7.0070    2.0050    7.8090 hc        1 IP1      0.059700
     40 H331        5.4330    1.1760    8.2150 hc        1 IP1      0.059700
     41 H373        6.1300   -1.2090    8.2110 hc        1 IP1      0.059700
     42 H372        7.4340   -1.7400    7.0610 hc        1 IP1      0.059700
     43 H371        7.7840   -0.4800    8.3150 hc        1 IP1      0.059700
     44 H112        6.1080   -3.8530    4.2510 hn        1 IP1      0.469800
     45 H143        4.4250    2.5690    3.6320 hn        1 IP1      0.462467
@<TRIPOS>BOND
     1    1    2 1   
     2    1   15 1   
     3    1   16 1   
     4    2    3 1   
     5    2   10 1   
     6    2   25 1   
     7    3    4 1   
     8    3   26 1   
     9    3   27 1   
    10    4    5 1   
    11    4   28 1   
    12    4   29 1   
    13    5    6 1   
    14    5   30 1   
    15    5   31 1   
    16    6    7 1   
    17    6   11 2   
    18    7    8 1   
    19    7   32 1   
    20    7   44 1   
    21    8    9 1   
    22    8   12 1   
    23    8   33 1   
    24    9   14 2   
    25    9   17 1   
    26   10   34 1   
    27   10   35 1   
    28   10   45 1   
    29   12   13 1   
    30   12   17 1   
    31   12   36 1   
    32   13   20 1   
    33   17   18 1   
    34   18   19 1   
    35   18   20 1   
    36   18   37 1   
    37   19   23 1   
    38   19   24 1   
    39   20   21 1   
    40   20   22 1   
    41   21   38 1   
    42   21   39 1   
    43   21   40 1   
    44   22   41 1   
    45   22   42 1   
    46   22   43 1   
@<TRIPOS>SUBSTRUCTURE
     1 IP1         1 TEMP              0 ****  ****    0 ROOT
