@<TRIPOS>MOLECULE
IP1
   43    44     1     0     0
SMALL
bcc


@<TRIPOS>ATOM
      1 C1          0.7520    0.0330   -7.1490 c         1 IP1      0.885600
      2 C2         -0.0410   -0.5910   -5.9530 c3        1 IP1      0.023500
      3 C3          0.3380    0.1640   -4.6780 c3        1 IP1     -0.065400
      4 C4         -0.5830   -0.1490   -3.5170 c3        1 IP1     -0.072400
      5 C7         -0.2060    0.6750   -2.3020 c3        1 IP1     -0.144400
      6 C10        -1.1860    0.4690   -1.1630 c         1 IP1      0.663100
      7 N11        -0.6590    0.4040    0.1220 n         1 IP1     -0.552900
      8 C12        -1.4590    0.1790    1.2670 cy        1 IP1     -0.000300
      9 C13        -1.3530    1.2340    2.4290 c         1 IP1      0.646500
     10 N14         0.0970   -2.0370   -5.8340 n3        1 IP1     -0.890800
     11 O15        -2.4190    0.4180   -1.3450 o         1 IP1     -0.620100
     12 C16        -0.9190   -0.8350    2.3530 cy        1 IP1      0.125800
     13 S17         0.7940   -1.3430    2.2170 ss        1 IP1     -0.422200
     14 O18        -1.5430    2.4410    2.5170 o         1 IP1     -0.576500
     15 O19         0.6990    1.2850   -7.3030 o         1 IP1     -0.849800
     16 O20         1.3850   -0.7480   -7.9190 o         1 IP1     -0.849800
     17 N29        -1.0360    0.2160    3.3850 n         1 IP1     -0.348800
     18 C30         0.0900    0.2990    4.2920 c3        1 IP1     -0.071300
     19 C31        -0.2090   -0.3260    5.7130 c         1 IP1      0.939600
     20 C32         1.3530   -0.3570    3.6600 c3        1 IP1      0.083100
     21 C33         2.0490   -1.2930    4.6150 c3        1 IP1     -0.087100
     22 C37         2.3070    0.6960    3.1490 c3        1 IP1     -0.087100
     23 O42         0.2250    0.3570    6.6810 o         1 IP1     -0.820300
     24 O43        -0.8070   -1.4260    5.8030 o         1 IP1     -0.820300
     25 H2         -1.1330   -0.3950   -6.1640 h1        1 IP1      0.043700
     26 H32         0.2920    1.2600   -4.9200 hc        1 IP1      0.044200
     27 H31         1.3970   -0.0720   -4.3930 hc        1 IP1      0.044200
     28 H42A       -0.5270   -1.2390   -3.2630 hc        1 IP1      0.053200
     29 H41        -1.6460    0.0700   -3.8000 hc        1 IP1      0.053200
     30 H72        -0.2370    1.7680   -2.5610 hc        1 IP1      0.058700
     31 H71         0.8440    0.4290   -1.9960 hc        1 IP1      0.058700
     32 H11         0.3250    0.2910    0.2430 hn        1 IP1      0.326500
     33 H12        -2.5250   -0.0170    0.9780 h1        1 IP1      0.112700
     34 H142        0.1210   -2.4120   -6.7690 hn        1 IP1      0.328800
     35 H141        0.9920   -2.2420   -5.4260 hn        1 IP1      0.328800
     36 H16        -1.5740   -1.7120    2.5420 h2        1 IP1      0.114700
     37 H30         0.3050    1.3930    4.4820 h1        1 IP1      0.076700
     38 H333        2.9750   -1.7080    4.1510 hc        1 IP1      0.044200
     39 H332        2.3200   -0.7390    5.5500 hc        1 IP1      0.044200
     40 H331        1.3660   -2.1330    4.9000 hc        1 IP1      0.044200
     41 H373        3.1670    0.2230    2.6150 hc        1 IP1      0.044200
     42 H372        1.7890    1.3920    2.4450 hc        1 IP1      0.044200
     43 H371        2.7080    1.2920    4.0060 hc        1 IP1      0.044200
@<TRIPOS>BOND
     1    1    2 1   
     2    1   15 1   
     3    1   16 1   
     4    2    3 1   
     5    2   10 1   
     6    2   25 1   
     7    3    4 1   
     8    3   26 1   
     9    3   27 1   
    10    4    5 1   
    11    4   28 1   
    12    4   29 1   
    13    5    6 1   
    14    5   30 1   
    15    5   31 1   
    16    6    7 1   
    17    6   11 2   
    18    7    8 1   
    19    7   32 1   
    20    8    9 1   
    21    8   12 1   
    22    8   33 1   
    23    9   14 2   
    24    9   17 1   
    25   10   34 1   
    26   10   35 1   
    27   12   13 1   
    28   12   17 1   
    29   12   36 1   
    30   13   20 1   
    31   17   18 1   
    32   18   19 1   
    33   18   20 1   
    34   18   37 1   
    35   19   23 1   
    36   19   24 1   
    37   20   21 1   
    38   20   22 1   
    39   21   38 1   
    40   21   39 1   
    41   21   40 1   
    42   22   41 1   
    43   22   42 1   
    44   22   43 1   
@<TRIPOS>SUBSTRUCTURE
     1 IP1         1 TEMP              0 ****  ****    0 ROOT
