@<TRIPOS>MOLECULE
IP2
   30    30     1     0     0
SMALL
bcc


@<TRIPOS>ATOM
      1 C1         -0.0500   -0.0010    0.0370 c3        1 IP2      0.109600
      2 C2          1.4760    0.1530    0.1020 c3        1 IP2      0.109600
      3 C3          1.9760    0.0300    1.5540 c3        1 IP2      0.086100
      4 C4          1.5190   -1.3520    2.1650 c3        1 IP2      0.198100
      5 C5         -0.0440   -1.1490    2.3070 c3        1 IP2      0.198100
      6 C6         -0.5260   -1.2490    0.8060 c3        1 IP2      0.086100
      7 O1         -0.4480   -0.0310   -1.3350 oh        1 IP2     -0.655800
      8 O2          2.0880   -0.7760   -0.7860 oh        1 IP2     -0.655800
      9 O3          3.3620    0.2880    1.5200 oh        1 IP2     -0.704800
     10 O4          2.2460   -1.6610    3.2840 os        1 IP2     -0.546700
     11 O5         -0.7330   -2.0290    3.0990 os        1 IP2     -0.546700
     12 O6         -1.9130   -1.3710    0.5980 oh        1 IP2     -0.704800
     13 P4          3.5560   -2.7870    3.1060 p5        1 IP2      1.331400
     14 O41         4.6820   -1.7830    2.9100 o         1 IP2     -0.936500
     15 O42         3.6780   -3.5920    4.3700 o         1 IP2     -0.936500
     16 O43         3.2770   -3.5610    1.8420 o         1 IP2     -0.936500
     17 P5         -1.9990   -1.3920    4.1010 p5        1 IP2      1.331400
     18 O51        -3.1520   -1.4770    3.1110 o         1 IP2     -0.936500
     19 O52        -2.1570   -2.3250    5.2710 o         1 IP2     -0.936500
     20 O53        -1.6350    0.0320    4.4280 o         1 IP2     -0.936500
     21 H1         -0.5500    0.9150    0.4520 h1        1 IP2      0.025700
     22 H2          1.7580    1.1650   -0.3120 h1        1 IP2      0.025700
     23 H3          1.5120    0.8630    2.1550 h1        1 IP2      0.020200
     24 H4          1.7000   -2.1630    1.3930 h1        1 IP2      0.036200
     25 H5         -0.2510   -0.0980    2.6740 h1        1 IP2      0.036200
     26 H6         -0.0570   -2.1570    0.3260 h1        1 IP2      0.020200
     27 HO1        -0.1870   -0.9020   -1.6540 ho        1 IP2      0.417500
     28 HO2         2.5390   -1.4380   -0.2380 ho        1 IP2      0.417500
     29 HO3         3.8110   -0.4150    2.0610 ho        1 IP2      0.491500
     30 HO6        -2.3430   -1.4600    1.4890 ho        1 IP2      0.491500
@<TRIPOS>BOND
     1    1    2 1   
     2    1    6 1   
     3    1    7 1   
     4    1   21 1   
     5    2    3 1   
     6    2    8 1   
     7    2   22 1   
     8    3    4 1   
     9    3    9 1   
    10    3   23 1   
    11    4    5 1   
    12    4   10 1   
    13    4   24 1   
    14    5    6 1   
    15    5   11 1   
    16    5   25 1   
    17    6   12 1   
    18    6   26 1   
    19    7   27 1   
    20    8   28 1   
    21    9   29 1   
    22   10   13 1   
    23   11   17 1   
    24   12   30 1   
    25   13   14 1   
    26   13   15 1   
    27   13   16 1   
    28   17   18 1   
    29   17   19 1   
    30   17   20 1   
@<TRIPOS>SUBSTRUCTURE
     1 IP2         1 TEMP              0 ****  ****    0 ROOT
