@<TRIPOS>MOLECULE
IP2
   30    30     1     0     0
SMALL
bcc


@<TRIPOS>ATOM
      1 C1          0.4400    0.2810    3.0070 c3        1 IP2      0.109600
      2 C2         -1.0540    0.5690    2.8010 c3        1 IP2      0.109600
      3 C3         -1.3150    1.1150    1.3860 c3        1 IP2      0.086100
      4 C4         -0.7800    0.0940    0.3070 c3        1 IP2      0.198100
      5 C5          0.7870    0.2140    0.4880 c3        1 IP2      0.198100
      6 C6          1.0210   -0.5540    1.8490 c3        1 IP2      0.086100
      7 O1          0.6120   -0.3630    4.2710 oh        1 IP2     -0.655800
      8 O2         -1.8100   -0.5990    3.1030 oh        1 IP2     -0.655800
      9 O3         -2.6860    1.4440    1.3330 oh        1 IP2     -0.704800
     10 O4         -1.3200    0.3510   -0.9250 os        1 IP2     -0.546700
     11 O5          1.5860   -0.2960   -0.5010 os        1 IP2     -0.546700
     12 O6          2.3540   -0.8630    2.1760 oh        1 IP2     -0.704800
     13 P4         -2.6550   -0.6360   -1.4390 p5        1 IP2      1.331400
     14 O41        -3.7860    0.2750   -0.9880 o         1 IP2     -0.936500
     15 O42        -2.5800   -0.8130   -2.9300 o         1 IP2     -0.936500
     16 O43        -2.5910   -1.8950   -0.6100 o         1 IP2     -0.936500
     17 P5          3.0030    0.6040   -0.9390 p5        1 IP2      1.331400
     18 O51         3.9810    0.0150    0.0670 o         1 IP2     -0.936500
     19 O52         3.3370    0.2500   -2.3630 o         1 IP2     -0.936500
     20 O53         2.7110    2.0570   -0.6640 o         1 IP2     -0.936500
     21 H1          1.0100    1.2430    3.1050 h1        1 IP2      0.025700
     22 H2         -1.3880    1.3260    3.5690 h1        1 IP2      0.025700
     23 H3         -0.7510    2.0860    1.2770 h1        1 IP2      0.020200
     24 H4         -1.0920   -0.9510    0.6170 h1        1 IP2      0.036200
     25 H5          1.0620    1.3010    0.6460 h1        1 IP2      0.036200
     26 H6          0.4700   -1.5400    1.8170 h1        1 IP2      0.020200
     27 HO1         0.2940   -1.2630    4.1420 ho        1 IP2      0.417500
     28 HO2        -2.1740   -0.9260    2.2650 ho        1 IP2      0.417500
     29 HO3        -3.0480    1.0770    0.4840 ho        1 IP2      0.491500
     30 HO6         2.9210   -0.5970    1.4040 ho        1 IP2      0.491500
@<TRIPOS>BOND
     1    1    2 1   
     2    1    6 1   
     3    1    7 1   
     4    1   21 1   
     5    2    3 1   
     6    2    8 1   
     7    2   22 1   
     8    3    4 1   
     9    3    9 1   
    10    3   23 1   
    11    4    5 1   
    12    4   10 1   
    13    4   24 1   
    14    5    6 1   
    15    5   11 1   
    16    5   25 1   
    17    6   12 1   
    18    6   26 1   
    19    7   27 1   
    20    8   28 1   
    21    9   29 1   
    22   10   13 1   
    23   11   17 1   
    24   12   30 1   
    25   13   14 1   
    26   13   15 1   
    27   13   16 1   
    28   17   18 1   
    29   17   19 1   
    30   17   20 1   
@<TRIPOS>SUBSTRUCTURE
     1 IP2         1 TEMP              0 ****  ****    0 ROOT
