@<TRIPOS>MOLECULE
IP2
   30    30     1     0     0
SMALL
bcc


@<TRIPOS>ATOM
      1 C1         -0.0550   -0.0060    0.0290 c3        1 IP2      0.109600
      2 C2          1.4720    0.1410    0.0840 c3        1 IP2      0.109600
      3 C3          1.9810    0.0260    1.5330 c3        1 IP2      0.086100
      4 C4          1.5210   -1.3500    2.1570 c3        1 IP2      0.198100
      5 C5         -0.0400   -1.1390    2.3070 c3        1 IP2      0.198100
      6 C6         -0.5330   -1.2470    0.8100 c3        1 IP2      0.086100
      7 O1         -0.4620   -0.0440   -1.3400 oh        1 IP2     -0.655800
      8 O2          2.0740   -0.7970   -0.8010 oh        1 IP2     -0.655800
      9 O3          3.3680    0.2770    1.4900 oh        1 IP2     -0.704800
     10 O4          2.2530   -1.6540    3.2740 os        1 IP2     -0.546700
     11 O5         -0.7290   -2.0100    3.1090 os        1 IP2     -0.546700
     12 O6         -1.9210   -1.3640    0.6110 oh        1 IP2     -0.704800
     13 P4          3.5570   -2.7880    3.0960 p5        1 IP2      1.331400
     14 O41         4.6860   -1.7900    2.8860 o         1 IP2     -0.936500
     15 O42         3.6830   -3.5840    4.3650 o         1 IP2     -0.936500
     16 O43         3.2670   -3.5690    1.8390 o         1 IP2     -0.936500
     17 P5         -1.9860   -1.3610    4.1150 p5        1 IP2      1.331400
     18 O51        -3.1450   -1.4470    3.1330 o         1 IP2     -0.936500
     19 O52        -2.1400   -2.2840    5.2920 o         1 IP2     -0.936500
     20 O53        -1.6130    0.0650    4.4300 o         1 IP2     -0.936500
     21 H1         -0.5480    0.9150    0.4410 h1        1 IP2      0.025700
     22 H2          1.7560    1.1490   -0.3390 h1        1 IP2      0.025700
     23 H3          1.5240    0.8650    2.1310 h1        1 IP2      0.020200
     24 H4          1.6940   -2.1670    1.3900 h1        1 IP2      0.036200
     25 H5         -0.2400   -0.0840    2.6680 h1        1 IP2      0.036200
     26 H6         -0.0700   -2.1600    0.3330 h1        1 IP2      0.020200
     27 HO1        -0.2070   -0.9180   -1.6550 ho        1 IP2      0.417500
     28 HO2         2.5250   -1.4570   -0.2510 ho        1 IP2      0.417500
     29 HO3         3.8160   -0.4240    2.0330 ho        1 IP2      0.491500
     30 HO6        -2.3460   -1.4450    1.5060 ho        1 IP2      0.491500
@<TRIPOS>BOND
     1    1    2 1   
     2    1    6 1   
     3    1    7 1   
     4    1   21 1   
     5    2    3 1   
     6    2    8 1   
     7    2   22 1   
     8    3    4 1   
     9    3    9 1   
    10    3   23 1   
    11    4    5 1   
    12    4   10 1   
    13    4   24 1   
    14    5    6 1   
    15    5   11 1   
    16    5   25 1   
    17    6   12 1   
    18    6   26 1   
    19    7   27 1   
    20    8   28 1   
    21    9   29 1   
    22   10   13 1   
    23   11   17 1   
    24   12   30 1   
    25   13   14 1   
    26   13   15 1   
    27   13   16 1   
    28   17   18 1   
    29   17   19 1   
    30   17   20 1   
@<TRIPOS>SUBSTRUCTURE
     1 IP2         1 TEMP              0 ****  ****    0 ROOT
