@<TRIPOS>MOLECULE
IP3
   18    17     1     0     0
SMALL
bcc


@<TRIPOS>ATOM
      1 C1          0.2550    0.3620   -1.4380 c3        1 IP3      0.132400
      2 C2         -0.4730   -0.2400   -0.2480 c3        1 IP3     -0.081400
      3 C3          0.0610    0.3000    1.0690 c3        1 IP3     -0.066700
      4 C4         -0.9250    0.0110    2.1830 c3        1 IP3     -0.090600
      5 C5          1.4140   -0.2910    1.4030 c3        1 IP3     -0.090600
      6 O1         -0.3660   -0.1530   -2.6060 oh        1 IP3     -0.602800
      7 H11         0.1730    1.4830   -1.4260 h1        1 IP3      0.020200
      8 H12         1.3410    0.0790   -1.4270 h1        1 IP3      0.020200
      9 H21        -0.3700   -1.3560   -0.2770 hc        1 IP3      0.055700
     10 H22        -1.5660   -0.0050   -0.3400 hc        1 IP3      0.055700
     11 H3          0.1730    1.4180    0.9780 hc        1 IP3      0.044700
     12 H41        -0.5340    0.3980    3.1550 hc        1 IP3      0.034367
     13 H42        -1.9060    0.5010    1.9740 hc        1 IP3      0.034367
     14 H43        -1.0920   -1.0890    2.2810 hc        1 IP3      0.034367
     15 H51         1.3450   -1.4020    1.4940 hc        1 IP3      0.034367
     16 H52         2.1580   -0.0470    0.6070 hc        1 IP3      0.034367
     17 H53         1.7860    0.1190    2.3720 hc        1 IP3      0.034367
     18 HO1         0.1050    0.2250   -3.3570 ho        1 IP3      0.398000
@<TRIPOS>BOND
     1    1    2 1   
     2    1    6 1   
     3    1    7 1   
     4    1    8 1   
     5    2    3 1   
     6    2    9 1   
     7    2   10 1   
     8    3    4 1   
     9    3    5 1   
    10    3   11 1   
    11    4   12 1   
    12    4   13 1   
    13    4   14 1   
    14    5   15 1   
    15    5   16 1   
    16    5   17 1   
    17    6   18 1   
@<TRIPOS>SUBSTRUCTURE
     1 IP3         1 TEMP              0 ****  ****    0 ROOT
