@<TRIPOS>MOLECULE
IP3
   18    17     1     0     0
SMALL
bcc


@<TRIPOS>ATOM
      1 C1         -1.6630   -0.0000   -0.8010 c3        1 IP3      0.132400
      2 C2         -0.1500   -0.0000   -0.8010 c3        1 IP3     -0.083400
      3 C3          0.3540   -0.0000    0.6250 c3        1 IP3     -0.066700
      4 C4          1.1950   -1.2350    0.8630 c3        1 IP3     -0.090100
      5 C5          1.1950    1.2350    0.8630 c3        1 IP3     -0.090100
      6 O1         -2.1330   -0.0000   -2.1310 oh        1 IP3     -0.602800
      7 H11        -1.9880    0.7970   -0.3410 h1        1 IP3      0.019700
      8 H12        -1.9880   -0.7970   -0.3410 h1        1 IP3      0.019700
      9 H21         0.1750    0.7970   -1.2620 hc        1 IP3      0.056700
     10 H22         0.1750   -0.7970   -1.2620 hc        1 IP3      0.056700
     11 H3         -0.4050   -0.0000    1.2380 hc        1 IP3      0.042700
     12 H41         1.5210   -1.2350    1.7830 hc        1 IP3      0.034033
     13 H42         1.9530   -1.2360    0.2480 hc        1 IP3      0.034033
     14 H43         0.6520   -2.0320    0.7110 hc        1 IP3      0.034033
     15 H51         1.5210    1.2350    1.7830 hc        1 IP3      0.034033
     16 H52         0.6520    2.0320    0.7110 hc        1 IP3      0.034033
     17 H53         1.9530    1.2360    0.2480 hc        1 IP3      0.034033
     18 HO1        -3.0210   -0.0000   -2.1310 ho        1 IP3      0.398000
@<TRIPOS>BOND
     1    1    2 1   
     2    1    6 1   
     3    1    7 1   
     4    1    8 1   
     5    2    3 1   
     6    2    9 1   
     7    2   10 1   
     8    3    4 1   
     9    3    5 1   
    10    3   11 1   
    11    4   12 1   
    12    4   13 1   
    13    4   14 1   
    14    5   15 1   
    15    5   16 1   
    16    5   17 1   
    17    6   18 1   
@<TRIPOS>SUBSTRUCTURE
     1 IP3         1 TEMP              0 ****  ****    0 ROOT
