@<TRIPOS>MOLECULE
IP3
   18    17     1     0     0
SMALL
bcc


@<TRIPOS>ATOM
      1 C1         -0.0310   -0.1320   -0.0060 c3        1 IP3      0.132400
      2 C2          1.4640    0.1350    0.0180 c3        1 IP3     -0.081400
      3 C3          2.0190    0.0920    1.4330 c3        1 IP3     -0.066700
      4 C4          3.5280   -0.0470    1.3920 c3        1 IP3     -0.090600
      5 C5          1.6310    1.3280    2.2180 c3        1 IP3     -0.090600
      6 O1         -0.4270   -0.1410   -1.3700 oh        1 IP3     -0.602800
      7 H11        -0.2640   -1.1250    0.4640 h1        1 IP3      0.020200
      8 H12        -0.5890    0.6700    0.5470 h1        1 IP3      0.020200
      9 H21         1.6700    1.1340   -0.4470 hc        1 IP3      0.055700
     10 H22         1.9770   -0.6370   -0.6140 hc        1 IP3      0.055700
     11 H3          1.5950   -0.8110    1.9570 hc        1 IP3      0.044700
     12 H41         3.8190   -0.9910    0.8720 hc        1 IP3      0.034367
     13 H42         3.9420   -0.0700    2.4280 hc        1 IP3      0.034367
     14 H43         3.9850    0.8140    0.8470 hc        1 IP3      0.034367
     15 H51         2.0270    2.2480    1.7240 hc        1 IP3      0.034367
     16 H52         2.0480    1.2750    3.2520 hc        1 IP3      0.034367
     17 H53         0.5200    1.4150    2.2890 hc        1 IP3      0.034367
     18 HO1        -1.3770   -0.3000   -1.3780 ho        1 IP3      0.398000
@<TRIPOS>BOND
     1    1    2 1   
     2    1    6 1   
     3    1    7 1   
     4    1    8 1   
     5    2    3 1   
     6    2    9 1   
     7    2   10 1   
     8    3    4 1   
     9    3    5 1   
    10    3   11 1   
    11    4   12 1   
    12    4   13 1   
    13    4   14 1   
    14    5   15 1   
    15    5   16 1   
    16    5   17 1   
    17    6   18 1   
@<TRIPOS>SUBSTRUCTURE
     1 IP3         1 TEMP              0 ****  ****    0 ROOT
