@<TRIPOS>MOLECULE
IP3
   18    17     1     0     0
SMALL
bcc


@<TRIPOS>ATOM
      1 C1         -0.0320   -0.1310   -0.0050 c3        1 IP3      0.132400
      2 C2          1.4640    0.1310    0.0190 c3        1 IP3     -0.081400
      3 C3          2.0180    0.0940    1.4340 c3        1 IP3     -0.066700
      4 C4          3.5260   -0.0510    1.3940 c3        1 IP3     -0.090600
      5 C5          1.6340    1.3340    2.2130 c3        1 IP3     -0.090600
      6 O1         -0.4280   -0.1440   -1.3680 oh        1 IP3     -0.602800
      7 H11        -0.2680   -1.1220    0.4690 h1        1 IP3      0.020200
      8 H12        -0.5880    0.6740    0.5460 h1        1 IP3      0.020200
      9 H21         1.6730    1.1270   -0.4510 hc        1 IP3      0.055700
     10 H22         1.9740   -0.6450   -0.6100 hc        1 IP3      0.055700
     11 H3          1.5910   -0.8060    1.9620 hc        1 IP3      0.044700
     12 H41         3.8140   -0.9990    0.8790 hc        1 IP3      0.034367
     13 H42         3.9400   -0.0700    2.4310 hc        1 IP3      0.034367
     14 H43         3.9870    0.8050    0.8450 hc        1 IP3      0.034367
     15 H51         2.0340    2.2500    1.7150 hc        1 IP3      0.034367
     16 H52         2.0510    1.2850    3.2480 hc        1 IP3      0.034367
     17 H53         0.5240    1.4260    2.2830 hc        1 IP3      0.034367
     18 HO1        -1.3790   -0.3010   -1.3760 ho        1 IP3      0.398000
@<TRIPOS>BOND
     1    1    2 1   
     2    1    6 1   
     3    1    7 1   
     4    1    8 1   
     5    2    3 1   
     6    2    9 1   
     7    2   10 1   
     8    3    4 1   
     9    3    5 1   
    10    3   11 1   
    11    4   12 1   
    12    4   13 1   
    13    4   14 1   
    14    5   15 1   
    15    5   16 1   
    16    5   17 1   
    17    6   18 1   
@<TRIPOS>SUBSTRUCTURE
     1 IP3         1 TEMP              0 ****  ****    0 ROOT
