@<TRIPOS>MOLECULE
IP4
   22    22     1     0     0
SMALL
bcc


@<TRIPOS>ATOM
      1 N1          0.0110    0.1130   -0.0250 n         1 IP4     -0.484800
      2 C2          1.3940   -0.0300   -0.0510 c         1 IP4      0.701500
      3 O2          2.0810   -0.0180   -1.0850 o         1 IP4     -0.633500
      4 C3          1.9220   -0.1940    1.3660 c3        1 IP4     -0.158400
      5 C4          0.6950   -0.1610    2.2690 c3        1 IP4     -0.089400
      6 C5         -0.5410    0.0340    1.3320 c3        1 IP4      0.116400
      7 CM1        -0.8170    0.2260   -1.1770 c3        1 IP4      0.096300
      8 CM2        -1.2860    1.3140    1.7330 c3        1 IP4     -0.102600
      9 CM3        -1.5040   -1.1460    1.5080 c3        1 IP4     -0.102600
     10 H31         2.4750   -1.1620    1.4430 hc        1 IP4      0.079200
     11 H32         2.6340    0.6370    1.5930 hc        1 IP4      0.079200
     12 H41         0.5960   -1.1130    2.8440 hc        1 IP4      0.056200
     13 H42         0.7600    0.6800    3.0010 hc        1 IP4      0.056200
     14 HM11       -1.4900   -0.6690   -1.2700 h1        1 IP4      0.042033
     15 HM12       -1.4570    1.1470   -1.1050 h1        1 IP4      0.042033
     16 HM13       -0.1690    0.2960   -2.0930 h1        1 IP4      0.042033
     17 HM21       -2.1840    1.4640    1.0870 hc        1 IP4      0.043533
     18 HM22       -1.6200    1.2220    2.7940 hc        1 IP4      0.043533
     19 HM23       -0.6250    2.2080    1.6410 hc        1 IP4      0.043533
     20 HM31       -1.8320   -1.1920    2.5750 hc        1 IP4      0.043533
     21 HM32       -2.4060   -1.0160    0.8630 hc        1 IP4      0.043533
     22 HM33       -1.0110   -2.1100    1.2420 hc        1 IP4      0.043533
@<TRIPOS>BOND
     1    1    2 1   
     2    1    6 1   
     3    1    7 1   
     4    2    3 2   
     5    2    4 1   
     6    4    5 1   
     7    4   10 1   
     8    4   11 1   
     9    5    6 1   
    10    5   12 1   
    11    5   13 1   
    12    6    8 1   
    13    6    9 1   
    14    7   14 1   
    15    7   15 1   
    16    7   16 1   
    17    8   17 1   
    18    8   18 1   
    19    8   19 1   
    20    9   20 1   
    21    9   21 1   
    22    9   22 1   
@<TRIPOS>SUBSTRUCTURE
     1 IP4         1 TEMP              0 ****  ****    0 ROOT
