@<TRIPOS>MOLECULE
IP4
   22    22     1     0     0
SMALL
bcc


@<TRIPOS>ATOM
      1 N1          0.6400    0.0860    0.2870 n         1 IP4     -0.484800
      2 C2         -0.1950   -0.1060    1.3830 c         1 IP4      0.701500
      3 O2          0.1890   -0.1180    2.5630 o         1 IP4     -0.633500
      4 C3         -1.6310   -0.2870    0.9120 c3        1 IP4     -0.158400
      5 C4         -1.5790   -0.2040   -0.6080 c3        1 IP4     -0.089400
      6 C5         -0.0820    0.0350   -0.9900 c3        1 IP4      0.116400
      7 CM1         2.0520    0.2430    0.3570 c3        1 IP4      0.096300
      8 CM2         0.0390    1.3440   -1.7810 c3        1 IP4     -0.103100
      9 CM3         0.4020   -1.1070   -1.8930 c3        1 IP4     -0.103100
     10 H31        -2.0120   -1.2760    1.2670 hc        1 IP4      0.079200
     11 H32        -2.2680    0.5160    1.3550 hc        1 IP4      0.079200
     12 H41        -1.9480   -1.1510   -1.0730 hc        1 IP4      0.056200
     13 H42        -2.2110    0.6350   -0.9850 hc        1 IP4      0.056200
     14 HM11        2.3680    0.2730    1.4350 h1        1 IP4      0.042367
     15 HM12        2.5710   -0.6140   -0.1550 h1        1 IP4      0.042367
     16 HM13        2.3620    1.1980   -0.1470 h1        1 IP4      0.042367
     17 HM21        1.0990    1.5260   -2.0790 hc        1 IP4      0.043367
     18 HM22       -0.5850    1.2690   -2.7030 hc        1 IP4      0.043367
     19 HM23       -0.3170    2.2120   -1.1760 hc        1 IP4      0.043367
     20 HM31        1.4640   -0.9440   -2.1960 hc        1 IP4      0.043367
     21 HM32        0.3250   -2.0900   -1.3730 hc        1 IP4      0.043367
     22 HM33       -0.2310   -1.1350   -2.8130 hc        1 IP4      0.043367
@<TRIPOS>BOND
     1    1    2 1   
     2    1    6 1   
     3    1    7 1   
     4    2    3 2   
     5    2    4 1   
     6    4    5 1   
     7    4   10 1   
     8    4   11 1   
     9    5    6 1   
    10    5   12 1   
    11    5   13 1   
    12    6    8 1   
    13    6    9 1   
    14    7   14 1   
    15    7   15 1   
    16    7   16 1   
    17    8   17 1   
    18    8   18 1   
    19    8   19 1   
    20    9   20 1   
    21    9   21 1   
    22    9   22 1   
@<TRIPOS>SUBSTRUCTURE
     1 IP4         1 TEMP              0 ****  ****    0 ROOT
