@<TRIPOS>MOLECULE
IP4
   22    22     1     0     0
SMALL
bcc


@<TRIPOS>ATOM
      1 N1          0.0160    0.1330   -0.0220 n         1 IP4     -0.484800
      2 C2          1.3940   -0.0460   -0.0500 c         1 IP4      0.700500
      3 O2          2.0840   -0.0270   -1.0810 o         1 IP4     -0.633500
      4 C3          1.9150   -0.2560    1.3650 c3        1 IP4     -0.158400
      5 C4          0.6870   -0.2130    2.2660 c3        1 IP4     -0.089400
      6 C5         -0.5410    0.0350    1.3320 c3        1 IP4      0.116400
      7 CM1        -0.8070    0.2880   -1.1730 c3        1 IP4      0.096300
      8 CM2        -1.2560    1.3220    1.7620 c3        1 IP4     -0.103100
      9 CM3        -1.5340   -1.1250    1.4770 c3        1 IP4     -0.103100
     10 H31         2.4440   -1.2390    1.4200 hc        1 IP4      0.079200
     11 H32         2.6470    0.5520    1.6120 hc        1 IP4      0.079200
     12 H41         0.5630   -1.1760    2.8180 hc        1 IP4      0.056200
     13 H42         0.7710    0.6080    3.0180 hc        1 IP4      0.056200
     14 HM11       -1.4310    1.2180   -1.0800 h1        1 IP4      0.042367
     15 HM12       -1.4960   -0.5930   -1.2900 h1        1 IP4      0.042367
     16 HM13       -0.1550    0.3680   -2.0850 h1        1 IP4      0.042367
     17 HM21       -2.1470    1.5110    1.1180 hc        1 IP4      0.043533
     18 HM22       -1.5950    1.2130    2.8200 hc        1 IP4      0.043533
     19 HM23       -0.5730    2.2020    1.6930 hc        1 IP4      0.043533
     20 HM31       -2.4310   -0.9570    0.8340 hc        1 IP4      0.043533
     21 HM32       -1.8650   -1.1890    2.5410 hc        1 IP4      0.043533
     22 HM33       -1.0640   -2.0950    1.1890 hc        1 IP4      0.043533
@<TRIPOS>BOND
     1    1    2 1   
     2    1    6 1   
     3    1    7 1   
     4    2    3 2   
     5    2    4 1   
     6    4    5 1   
     7    4   10 1   
     8    4   11 1   
     9    5    6 1   
    10    5   12 1   
    11    5   13 1   
    12    6    8 1   
    13    6    9 1   
    14    7   14 1   
    15    7   15 1   
    16    7   16 1   
    17    8   17 1   
    18    8   18 1   
    19    8   19 1   
    20    9   20 1   
    21    9   21 1   
    22    9   22 1   
@<TRIPOS>SUBSTRUCTURE
     1 IP4         1 TEMP              0 ****  ****    0 ROOT
