@<TRIPOS>MOLECULE
IP4
   22    22     1     0     0
SMALL
bcc


@<TRIPOS>ATOM
      1 N1          0.0190    0.1060   -0.0240 n         1 IP4     -0.484800
      2 C2          1.4000   -0.0510   -0.0470 c         1 IP4      0.701500
      3 O2          2.0900   -0.0410   -1.0790 o         1 IP4     -0.633500
      4 C3          1.9240   -0.2250    1.3710 c3        1 IP4     -0.158400
      5 C4          0.6960   -0.1760    2.2720 c3        1 IP4     -0.089400
      6 C5         -0.5360    0.0360    1.3330 c3        1 IP4      0.116400
      7 CM1        -0.8040    0.2490   -1.1760 c3        1 IP4      0.096300
      8 CM2        -1.2640    1.3250    1.7330 c3        1 IP4     -0.103100
      9 CM3        -1.5160   -1.1310    1.5080 c3        1 IP4     -0.103100
     10 H31         2.6470    0.5960    1.6010 hc        1 IP4      0.079200
     11 H32         2.4630   -1.2010    1.4470 hc        1 IP4      0.079200
     12 H41         0.7710    0.6630    3.0040 hc        1 IP4      0.056200
     13 H42         0.5830   -1.1270    2.8460 hc        1 IP4      0.056200
     14 HM11       -0.1540    0.2970   -2.0910 h1        1 IP4      0.042367
     15 HM12       -1.5080   -0.6230   -1.2690 h1        1 IP4      0.042367
     16 HM13       -1.4120    1.1910   -1.1040 h1        1 IP4      0.042367
     17 HM21       -1.6010    1.2380    2.7940 hc        1 IP4      0.043367
     18 HM22       -0.5920    2.2110    1.6410 hc        1 IP4      0.043367
     19 HM23       -2.1590    1.4870    1.0860 hc        1 IP4      0.043367
     20 HM31       -1.0340   -2.1030    1.2430 hc        1 IP4      0.043367
     21 HM32       -1.8450   -1.1730    2.5740 hc        1 IP4      0.043367
     22 HM33       -2.4140   -0.9890    0.8610 hc        1 IP4      0.043367
@<TRIPOS>BOND
     1    1    2 1   
     2    1    6 1   
     3    1    7 1   
     4    2    3 2   
     5    2    4 1   
     6    4    5 1   
     7    4   10 1   
     8    4   11 1   
     9    5    6 1   
    10    5   12 1   
    11    5   13 1   
    12    6    8 1   
    13    6    9 1   
    14    7   14 1   
    15    7   15 1   
    16    7   16 1   
    17    8   17 1   
    18    8   18 1   
    19    8   19 1   
    20    9   20 1   
    21    9   21 1   
    22    9   22 1   
@<TRIPOS>SUBSTRUCTURE
     1 IP4         1 TEMP              0 ****  ****    0 ROOT
