@<TRIPOS>MOLECULE
IP6
   42    45     1     0     0
SMALL
bcc


@<TRIPOS>ATOM
      1 N1          0.0110   -0.5710    0.0010 nh        1 IP6     -0.905500
      2 C2          1.4110   -0.3420   -0.0300 ca        1 IP6      0.555200
      3 N3          2.0960   -0.2790    1.1460 nb        1 IP6     -0.697000
      4 C4          3.4030    0.0230    1.1170 ca        1 IP6      0.385200
      5 C5          4.1170    0.2590   -0.0640 ca        1 IP6     -0.241300
      6 C6          3.4390    0.1920   -1.2790 ca        1 IP6     -0.140000
      7 C7          2.0620   -0.1060   -1.3080 ca        1 IP6      0.008300
      8 N8          1.3490   -0.2710   -2.5080 nh        1 IP6     -0.713600
      9 C9          1.9790    0.2000   -3.7270 c3        1 IP6      0.223100
     10 C10         1.0350    0.2090   -4.8950 ca        1 IP6     -0.107300
     11 C11         0.6780    1.4180   -5.4990 ca        1 IP6     -0.119000
     12 C12        -0.1710    1.4160   -6.6050 ca        1 IP6     -0.133000
     13 C13        -0.6680    0.2160   -7.1080 ca        1 IP6     -0.112000
     14 C14        -0.3200   -1.0020   -6.5060 cp        1 IP6     -0.035000
     15 C15         0.5350   -0.9950   -5.3950 ca        1 IP6     -0.100000
     16 C16        -0.8410   -2.2650   -7.0310 cp        1 IP6     -0.026000
     17 C17        -0.9100   -2.4600   -8.4300 ca        1 IP6     -0.146000
     18 C18        -1.3940   -3.6370   -8.9770 ca        1 IP6     -0.084000
     19 C19        -1.8280   -4.6540   -8.1260 ca        1 IP6     -0.090800
     20 C20        -2.3800   -5.9730   -8.3280 cc        1 IP6     -0.188200
     21 C21        -2.6190   -6.5150   -7.0680 cd        1 IP6     -0.105100
     22 N22        -2.2470   -5.6050   -6.0740 na        1 IP6     -0.195400
     23 C23        -1.7580   -4.4530   -6.6950 ca        1 IP6     -0.049200
     24 C24        -1.2630   -3.2590   -6.1510 ca        1 IP6     -0.132000
     25 HN11       -0.3550   -0.6600    0.9280 hn        1 IP6      0.385300
     26 HN12       -0.2400   -1.3620   -0.5580 hn        1 IP6      0.385300
     27 H4          3.8970    0.0680    2.1040 h4        1 IP6      0.021100
     28 H5          5.1890    0.4930   -0.0330 ha        1 IP6      0.142000
     29 H6          3.9950    0.3740   -2.2110 ha        1 IP6      0.139000
     30 HN8         0.3960    0.0320   -2.4390 hn        1 IP6      0.405800
     31 H91         2.4160    1.2350   -3.5980 h1        1 IP6      0.046200
     32 H92         2.8330   -0.5010   -3.9590 h1        1 IP6      0.046200
     33 H11         1.0670    2.3690   -5.1070 ha        1 IP6      0.134000
     34 H12        -0.4520    2.3670   -7.0810 ha        1 IP6      0.134000
     35 H13        -1.3440    0.2210   -7.9770 ha        1 IP6      0.139000
     36 H15         0.8220   -1.9450   -4.9170 ha        1 IP6      0.145000
     37 H17        -0.5590   -1.6550   -9.0940 ha        1 IP6      0.133000
     38 H18        -1.4380   -3.7750  -10.0670 ha        1 IP6      0.135000
     39 H20        -2.5680   -6.4450   -9.2870 ha        1 IP6      0.157000
     40 H21        -3.0300   -7.4900   -6.7980 h4        1 IP6      0.165000
     41 HN22       -2.3170   -5.7460   -5.1030 hn        1 IP6      0.298700
     42 H24        -1.2150   -3.1080   -5.0640 ha        1 IP6      0.136000
@<TRIPOS>BOND
     1    1    2 1   
     2    1   25 1   
     3    1   26 1   
     4    2    3 ar  
     5    2    7 ar  
     6    3    4 ar  
     7    4    5 ar  
     8    4   27 1   
     9    5    6 ar  
    10    5   28 1   
    11    6    7 ar  
    12    6   29 1   
    13    7    8 1   
    14    8    9 1   
    15    8   30 1   
    16    9   10 1   
    17    9   31 1   
    18    9   32 1   
    19   10   11 ar  
    20   10   15 ar  
    21   11   12 ar  
    22   11   33 1   
    23   12   13 ar  
    24   12   34 1   
    25   13   14 ar  
    26   13   35 1   
    27   14   15 ar  
    28   14   16 1   
    29   15   36 1   
    30   16   17 ar  
    31   16   24 ar  
    32   17   18 ar  
    33   17   37 1   
    34   18   19 ar  
    35   18   38 1   
    36   19   20 1   
    37   19   23 ar  
    38   20   21 2   
    39   20   39 1   
    40   21   22 1   
    41   21   40 1   
    42   22   23 1   
    43   22   41 1   
    44   23   24 ar  
    45   24   42 1   
@<TRIPOS>SUBSTRUCTURE
     1 IP6         1 TEMP              0 ****  ****    0 ROOT
