@<TRIPOS>MOLECULE
IP6
   42    45     1     0     0
SMALL
bcc


@<TRIPOS>ATOM
      1 N1          0.7490    2.2120   -6.8540 nh        1 IP6     -0.905500
      2 C2          1.6880    3.1500   -6.3510 ca        1 IP6      0.555200
      3 N3          2.0550    4.2020   -7.1360 nb        1 IP6     -0.697000
      4 C4          2.8760    5.1320   -6.6250 ca        1 IP6      0.385200
      5 C5          3.4020    5.0750   -5.3280 ca        1 IP6     -0.241300
      6 C6          3.0460    4.0050   -4.5110 ca        1 IP6     -0.141000
      7 C7          2.1730    3.0070   -4.9890 ca        1 IP6      0.009300
      8 N8          1.8490    1.8640   -4.2370 nh        1 IP6     -0.714600
      9 C9          2.1540    1.8890   -2.8190 c3        1 IP6      0.224100
     10 C10         1.5200    0.7530   -2.0710 ca        1 IP6     -0.107300
     11 C11         1.8320   -0.5690   -2.4050 ca        1 IP6     -0.110000
     12 C12         1.2680   -1.6190   -1.6830 ca        1 IP6     -0.134000
     13 C13         0.3960   -1.3590   -0.6280 ca        1 IP6     -0.112000
     14 C14         0.0740   -0.0370   -0.2870 cp        1 IP6     -0.034000
     15 C15         0.6400    1.0160   -1.0190 ca        1 IP6     -0.111000
     16 C16        -0.8450    0.2410    0.8170 cp        1 IP6     -0.026000
     17 C17        -0.7360   -0.5030    2.0160 ca        1 IP6     -0.146000
     18 C18        -1.5800   -0.2780    3.0900 ca        1 IP6     -0.083000
     19 C19        -2.5660    0.7040    2.9860 ca        1 IP6     -0.090800
     20 C20        -3.5970    1.1980    3.8690 cc        1 IP6     -0.188200
     21 C21        -4.2780    2.2000    3.1840 cd        1 IP6     -0.104100
     22 N22        -3.7290    2.3710    1.9090 na        1 IP6     -0.195400
     23 C23        -2.6790    1.4630    1.7580 ca        1 IP6     -0.049200
     24 C24        -1.8160    1.2300    0.6780 ca        1 IP6     -0.133000
     25 HN11        1.1110    1.2790   -6.8120 hn        1 IP6      0.386300
     26 HN12        0.4300    2.4280   -7.7770 hn        1 IP6      0.386300
     27 H4          3.1270    5.9630   -7.3090 h4        1 IP6      0.021100
     28 H5          4.0790    5.8570   -4.9640 ha        1 IP6      0.142000
     29 H6          3.4570    3.9510   -3.4920 ha        1 IP6      0.138000
     30 HN8         0.9210    1.5290   -4.4140 hn        1 IP6      0.405800
     31 H91         1.8400    2.8670   -2.3430 h1        1 IP6      0.046200
     32 H92         3.2760    1.8080   -2.7130 h1        1 IP6      0.046200
     33 H11         2.5240   -0.7740   -3.2360 ha        1 IP6      0.143000
     34 H12         1.5120   -2.6590   -1.9470 ha        1 IP6      0.134000
     35 H13        -0.0500   -2.1910   -0.0630 ha        1 IP6      0.139000
     36 H15         0.3940    2.0550   -0.7510 ha        1 IP6      0.137000
     37 H17         0.0490   -1.2710    2.0900 ha        1 IP6      0.133000
     38 H18        -1.4790   -0.8610    4.0170 ha        1 IP6      0.136000
     39 H20        -3.7940    0.8470    4.8770 ha        1 IP6      0.158000
     40 H21        -5.1200    2.8140    3.5090 h4        1 IP6      0.165000
     41 HN22       -4.0430    3.0020    1.2220 hn        1 IP6      0.298700
     42 H24        -1.9070    1.8040   -0.2540 ha        1 IP6      0.136000
@<TRIPOS>BOND
     1    1    2 1   
     2    1   25 1   
     3    1   26 1   
     4    2    3 ar  
     5    2    7 ar  
     6    3    4 ar  
     7    4    5 ar  
     8    4   27 1   
     9    5    6 ar  
    10    5   28 1   
    11    6    7 ar  
    12    6   29 1   
    13    7    8 1   
    14    8    9 1   
    15    8   30 1   
    16    9   10 1   
    17    9   31 1   
    18    9   32 1   
    19   10   11 ar  
    20   10   15 ar  
    21   11   12 ar  
    22   11   33 1   
    23   12   13 ar  
    24   12   34 1   
    25   13   14 ar  
    26   13   35 1   
    27   14   15 ar  
    28   14   16 1   
    29   15   36 1   
    30   16   17 ar  
    31   16   24 ar  
    32   17   18 ar  
    33   17   37 1   
    34   18   19 ar  
    35   18   38 1   
    36   19   20 1   
    37   19   23 ar  
    38   20   21 2   
    39   20   39 1   
    40   21   22 1   
    41   21   40 1   
    42   22   23 1   
    43   22   41 1   
    44   23   24 ar  
    45   24   42 1   
@<TRIPOS>SUBSTRUCTURE
     1 IP6         1 TEMP              0 ****  ****    0 ROOT
