@<TRIPOS>MOLECULE
IP6
   42    45     1     0     0
SMALL
bcc


@<TRIPOS>ATOM
      1 N1          0.0460   -0.6010    0.0040 nv        1 IP6     -0.905500
      2 C2          1.4430   -0.3560   -0.0380 ca        1 IP6      0.555200
      3 N3          2.1370   -0.2910    1.1330 nb        1 IP6     -0.697000
      4 C4          3.4400    0.0260    1.0940 ca        1 IP6      0.385200
      5 C5          4.1410    0.2770   -0.0920 ca        1 IP6     -0.241300
      6 C6          3.4540    0.2090   -1.3010 ca        1 IP6     -0.140000
      7 C7          2.0800   -0.1050   -1.3190 ca        1 IP6      0.008300
      8 N8          1.3590   -0.2710   -2.5140 nu        1 IP6     -0.713600
      9 C9          1.9720    0.2130   -3.7360 c3        1 IP6      0.223100
     10 C10         1.0190    0.2190   -4.8960 ca        1 IP6     -0.107300
     11 C11         0.6460    1.4260   -5.4940 ca        1 IP6     -0.119000
     12 C12        -0.2120    1.4200   -6.5930 ca        1 IP6     -0.133000
     13 C13        -0.7030    0.2170   -7.0950 ca        1 IP6     -0.112000
     14 C14        -0.3400   -1.0000   -6.4990 cp        1 IP6     -0.035000
     15 C15         0.5240   -0.9890   -5.3960 ca        1 IP6     -0.100000
     16 C16        -0.8540   -2.2650   -7.0240 cp        1 IP6     -0.026000
     17 C17        -0.9330   -2.4570   -8.4230 ca        1 IP6     -0.146000
     18 C18        -1.4120   -3.6360   -8.9690 ca        1 IP6     -0.084000
     19 C19        -1.8310   -4.6590   -8.1180 ca        1 IP6     -0.090800
     20 C20        -2.3720   -5.9830   -8.3190 cc        1 IP6     -0.188200
     21 C21        -2.5970   -6.5300   -7.0590 cd        1 IP6     -0.105100
     22 N22        -2.2240   -5.6200   -6.0650 na        1 IP6     -0.195400
     23 C23        -1.7500   -4.4620   -6.6860 ca        1 IP6     -0.049200
     24 C24        -1.2600   -3.2650   -6.1430 ca        1 IP6     -0.132000
     25 HN11       -0.3100   -0.7000    0.9340 hn        1 IP6      0.385300
     26 HN12       -0.2000   -1.3920   -0.5580 hn        1 IP6      0.385300
     27 H4          3.9420    0.0710    2.0770 h4        1 IP6      0.021100
     28 H5          5.2110    0.5230   -0.0680 ha        1 IP6      0.142000
     29 H6          3.9990    0.4030   -2.2370 ha        1 IP6      0.139000
     30 HN8         0.4020    0.0210   -2.4360 hn        1 IP6      0.405800
     31 H91         2.3980    1.2530   -3.6050 h1        1 IP6      0.046200
     32 H92         2.8330   -0.4760   -3.9800 h1        1 IP6      0.046200
     33 H11         1.0300    2.3790   -5.1020 ha        1 IP6      0.134000
     34 H12        -0.5050    2.3700   -7.0630 ha        1 IP6      0.134000
     35 H13        -1.3860    0.2190   -7.9580 ha        1 IP6      0.139000
     36 H15         0.8230   -1.9370   -4.9230 ha        1 IP6      0.145000
     37 H17        -0.5940   -1.6470   -9.0870 ha        1 IP6      0.133000
     38 H18        -1.4630   -3.7710  -10.0590 ha        1 IP6      0.135000
     39 H20        -2.5640   -6.4540   -9.2780 ha        1 IP6      0.157000
     40 H21        -2.9970   -7.5090   -6.7880 h4        1 IP6      0.165000
     41 HN22       -2.2850   -5.7640   -5.0940 hn        1 IP6      0.298700
     42 H24        -1.2050   -3.1170   -5.0560 ha        1 IP6      0.136000
@<TRIPOS>BOND
     1    1    2 1   
     2    1   25 1   
     3    1   26 1   
     4    2    3 ar  
     5    2    7 ar  
     6    3    4 ar  
     7    4    5 ar  
     8    4   27 1   
     9    5    6 ar  
    10    5   28 1   
    11    6    7 ar  
    12    6   29 1   
    13    7    8 1   
    14    8    9 1   
    15    8   30 1   
    16    9   10 1   
    17    9   31 1   
    18    9   32 1   
    19   10   11 ar  
    20   10   15 ar  
    21   11   12 ar  
    22   11   33 1   
    23   12   13 ar  
    24   12   34 1   
    25   13   14 ar  
    26   13   35 1   
    27   14   15 ar  
    28   14   16 1   
    29   15   36 1   
    30   16   17 ar  
    31   16   24 ar  
    32   17   18 ar  
    33   17   37 1   
    34   18   19 ar  
    35   18   38 1   
    36   19   20 1   
    37   19   23 ar  
    38   20   21 2   
    39   20   39 1   
    40   21   22 1   
    41   21   40 1   
    42   22   23 1   
    43   22   41 1   
    44   23   24 ar  
    45   24   42 1   
@<TRIPOS>SUBSTRUCTURE
     1 IP6         1 TEMP              0 ****  ****    0 ROOT
