@<TRIPOS>MOLECULE
IP6
   42    33     1     0     0
SMALL
bcc


@<TRIPOS>ATOM
      1 N1          4.2540    0.4590    0.6730 n3        1 IP6     -0.304000
      2 C2          4.1930    1.0620    1.9630 c2        1 IP6      0.036000
      3 N3          5.2840    1.0210    2.7870 n2        1 IP6     -0.171000
      4 C4          5.2490    1.6440    4.0010 c1        1 IP6     -0.080000
      5 C5          4.1040    2.3220    4.4010 c1        1 IP6     -0.136500
      6 C6          3.0080    2.3650    3.5760 c1        1 IP6     -0.136500
      7 C7          3.0440    1.7400    2.3610 c1        1 IP6     -0.008000
      8 N8          1.9000    1.8200    1.4680 n3        1 IP6     -0.270000
      9 C9          0.5790    1.4780    1.9540 c3        1 IP6     -0.019000
     10 C10        -0.4240    1.4900    0.7760 c2        1 IP6     -0.098000
     11 C11        -0.9370    2.6980    0.3120 c2        1 IP6     -0.119000
     12 C12        -1.8940    2.7060   -0.6940 c1        1 IP6     -0.132000
     13 C13        -2.3400    1.5090   -1.2380 c1        1 IP6     -0.124000
     14 C14        -1.8290    0.3010   -0.7760 c1        1 IP6     -0.030500
     15 C15        -0.8690    0.2940    0.2330 c1        1 IP6     -0.100000
     16 C16        -2.1830   -0.8980   -1.4150 c1        1 IP6     -0.030500
     17 C17        -3.2760   -1.5130   -0.8260 c1        1 IP6     -0.136500
     18 C18        -3.7830   -2.6930   -1.3610 c1        1 IP6     -0.136500
     19 C19        -3.1860   -3.2620   -2.4980 c1        1 IP6     -0.139500
     20 C20        -3.4760   -4.3990   -3.2200 c1        1 IP6     -0.139500
     21 C21        -2.5670   -4.4900   -4.2530 c1        1 IP6     -0.041000
     22 N22        -1.7230   -3.4200   -4.1700 n2        1 IP6     -0.218000
     23 C23        -2.1070   -2.6560   -3.0800 c1        1 IP6     -0.041000
     24 C24        -1.5930   -1.4600   -2.5380 c1        1 IP6     -0.124000
     25 HN11        3.5090    0.4390    0.1410 hn        1 IP6      0.182000
     26 HN12        5.0300    0.0630    0.3890 hn        1 IP6      0.182000
     27 H4          6.0360    1.6140    4.5930 ha        1 IP6      0.157000
     28 H5          4.0800    2.7690    5.2710 ha        1 IP6      0.137250
     29 H6          2.2070    2.8400    3.8560 ha        1 IP6      0.137250
     30 HN8         2.0020    2.1570    0.6260 hn        1 IP6      0.202000
     31 H91         0.3000    2.1310    2.6270 h1        1 IP6      0.085500
     32 H92         0.6010    0.5810    2.3570 h1        1 IP6      0.085500
     33 H11        -0.6250    3.5370    0.6920 ha        1 IP6      0.133000
     34 H12        -2.2550    3.5590   -1.0210 ha        1 IP6      0.133000
     35 H13        -3.0100    1.5150   -1.9410 ha        1 IP6      0.135500
     36 H15        -0.5100   -0.5510    0.5570 ha        1 IP6      0.149000
     37 H17        -3.6690   -1.1360   -0.0180 ha        1 IP6      0.137250
     38 H18        -4.5490   -3.1230   -0.9480 ha        1 IP6      0.137250
     39 H20        -4.1980   -5.0290   -3.0330 DU        1 IP6      0.190667
     40 H21        -2.5000   -5.2240   -4.8960 DU        1 IP6      0.190667
     41 HN22       -1.0340   -3.2400   -4.7290 DU        1 IP6      0.190667
     42 H24        -0.8430   -1.0200   -2.9610 ha        1 IP6      0.135500
@<TRIPOS>BOND
     1    1    2 1   
     2    1   25 1   
     3    1   26 1   
     4    2    3 1   
     5    2    7 1   
     6    3    4 1   
     7    4   27 1   
     8    5    6 1   
     9    5   28 1   
    10    6   29 1   
    11    7    8 1   
    12    8    9 1   
    13    8   30 1   
    14    9   10 1   
    15    9   31 1   
    16    9   32 1   
    17   10   11 1   
    18   10   15 1   
    19   11   12 1   
    20   11   33 1   
    21   12   34 1   
    22   13   14 1   
    23   13   35 1   
    24   15   36 1   
    25   16   24 1   
    26   17   18 1   
    27   17   37 1   
    28   18   38 1   
    29   19   23 1   
    30   20   21 1   
    31   21   22 1   
    32   22   23 1   
    33   24   42 1   
@<TRIPOS>SUBSTRUCTURE
     1 IP6         1 TEMP              0 ****  ****    0 ROOT
