@<TRIPOS>MOLECULE
IP6
   44    47     1     0     0
SMALL
bcc


@<TRIPOS>ATOM
      1 N1         -0.0150   -0.3270   -1.7900 n4        1 IP6     -0.847300
      2 C2          1.2080   -0.1360   -0.9840 ca        1 IP6      0.502200
      3 N3          1.0110    0.4560    0.2230 nb        1 IP6     -0.620000
      4 C4          2.0700    0.6770    1.0150 ca        1 IP6      0.492200
      5 C5          3.3870    0.3200    0.6460 ca        1 IP6     -0.154300
      6 C6          3.5950   -0.2900   -0.5870 ca        1 IP6     -0.057000
      7 C7          2.4940   -0.5400   -1.4440 ca        1 IP6     -0.126700
      8 N8          2.7400   -1.1950   -2.7250 n4        1 IP6     -0.651400
      9 C9          2.7550   -0.2560   -3.9180 c3        1 IP6      0.174100
     10 C10         1.4050   -0.0930   -4.5180 ca        1 IP6     -0.238300
     11 C11         0.8120    1.1780   -4.5520 ca        1 IP6     -0.154000
     12 C12        -0.3830    1.3560   -5.2520 ca        1 IP6     -0.114000
     13 C13        -0.9820    0.2860   -5.9110 ca        1 IP6     -0.079000
     14 C14        -0.3930   -0.9950   -5.8910 cp        1 IP6      0.040000
     15 C15         0.8060   -1.1710   -5.1860 ca        1 IP6     -0.154000
     16 C16        -1.0050   -2.1000   -6.6180 cp        1 IP6     -0.099000
     17 C17        -1.6340   -1.8350   -7.8560 ca        1 IP6     -0.129000
     18 C18        -2.2290   -2.8440   -8.5990 ca        1 IP6     -0.063000
     19 C19        -2.2120   -4.1480   -8.1090 ca        1 IP6     -0.049800
     20 C20        -2.7210   -5.4080   -8.5910 cc        1 IP6     -0.179200
     21 C21        -2.3850   -6.3740   -7.6440 cd        1 IP6     -0.062100
     22 N22        -1.6900   -5.7890   -6.5800 na        1 IP6     -0.193400
     23 C23        -1.5630   -4.4230   -6.8360 ca        1 IP6     -0.056200
     24 C24        -0.9590   -3.3990   -6.1010 ca        1 IP6     -0.126000
     25 HN11        0.1070    0.1050   -2.7280 hn        1 IP6      0.490467
     26 HN12       -0.2190   -1.3280   -1.8830 hn        1 IP6      0.490467
     27 H4          1.8430    1.1650    1.9920 h4        1 IP6      0.107100
     28 H5          4.2330    0.5240    1.3310 ha        1 IP6      0.223000
     29 H6          4.6230   -0.5760   -0.8820 ha        1 IP6      0.198000
     30 HN8         2.0390   -1.9300   -2.8890 hn        1 IP6      0.465800
     31 H91         3.1880    0.7300   -3.5820 hx        1 IP6      0.132200
     32 H92         3.4560   -0.7240   -4.6760 hx        1 IP6      0.132200
     33 H11         1.3110    2.0450   -4.0920 ha        1 IP6      0.156000
     34 H12        -0.8400    2.3600   -5.3060 ha        1 IP6      0.180000
     35 H13        -1.9210    0.4430   -6.4730 ha        1 IP6      0.187000
     36 H15         1.3060   -2.1520   -5.2240 ha        1 IP6      0.147000
     37 H17        -1.6320   -0.8090   -8.2540 ha        1 IP6      0.140000
     38 H18        -2.7090   -2.6220   -9.5650 ha        1 IP6      0.165000
     39 H20        -3.2640   -5.5660   -9.5200 ha        1 IP6      0.184000
     40 H21        -2.5920   -7.4490   -7.6470 h4        1 IP6      0.190000
     41 HN22       -1.3310   -6.2660   -5.7970 hn        1 IP6      0.303700
     42 H24        -0.4740   -3.6110   -5.1400 ha        1 IP6      0.100000
     43 H131       -0.8240    0.1230   -1.3220 hn        1 IP6      0.490467
     44 H82         3.6650   -1.6550   -2.6720 hn        1 IP6      0.465800
@<TRIPOS>BOND
     1    1    2 1   
     2    1   25 1   
     3    1   26 1   
     4    1   43 1   
     5    2    3 ar  
     6    2    7 ar  
     7    3    4 ar  
     8    4    5 ar  
     9    4   27 1   
    10    5    6 ar  
    11    5   28 1   
    12    6    7 ar  
    13    6   29 1   
    14    7    8 1   
    15    8    9 1   
    16    8   30 1   
    17    8   44 1   
    18    9   10 1   
    19    9   31 1   
    20    9   32 1   
    21   10   11 ar  
    22   10   15 ar  
    23   11   12 ar  
    24   11   33 1   
    25   12   13 ar  
    26   12   34 1   
    27   13   14 ar  
    28   13   35 1   
    29   14   15 ar  
    30   14   16 1   
    31   15   36 1   
    32   16   17 ar  
    33   16   24 ar  
    34   17   18 ar  
    35   17   37 1   
    36   18   19 ar  
    37   18   38 1   
    38   19   20 1   
    39   19   23 ar  
    40   20   21 2   
    41   20   39 1   
    42   21   22 1   
    43   21   40 1   
    44   22   23 1   
    45   22   41 1   
    46   23   24 ar  
    47   24   42 1   
@<TRIPOS>SUBSTRUCTURE
     1 IP6         1 TEMP              0 ****  ****    0 ROOT
