@<TRIPOS>MOLECULE
IP7
   55    59     1     0     0
SMALL
bcc


@<TRIPOS>ATOM
      1 N1         -2.0890   -4.3180   -4.3660 nh        1 IP7     -0.905500
      2 C2         -1.6630   -3.6110   -5.5230 ca        1 IP7      0.547200
      3 N3         -2.2570   -3.8810   -6.7190 nb        1 IP7     -0.695000
      4 C4         -1.9080   -3.1550   -7.7910 ca        1 IP7      0.381200
      5 C5         -0.9420   -2.1410   -7.7590 ca        1 IP7     -0.238300
      6 C6         -0.3160   -1.8530   -6.5490 ca        1 IP7     -0.143000
      7 C7         -0.6580   -2.5720   -5.3850 ca        1 IP7      0.014300
      8 N8          0.0020   -2.3780   -4.1610 nh        1 IP7     -0.713600
      9 C9          0.7890   -1.1680   -4.0060 c3        1 IP7      0.229100
     10 C10         1.1110   -0.8700   -2.5710 ca        1 IP7     -0.123300
     11 C11         0.0880   -0.5480   -1.6800 ca        1 IP7     -0.091000
     12 C12         0.3600   -0.2430   -0.3400 cp        1 IP7     -0.060000
     13 C13         1.6890   -0.2580    0.1040 ca        1 IP7     -0.079000
     14 C14         2.7270   -0.5720   -0.7680 ca        1 IP7     -0.200000
     15 C15         2.4420   -0.8810   -2.1050 ca        1 IP7      0.143100
     16 O16         3.4060   -1.1700   -3.0510 os        1 IP7     -0.333900
     17 C17         4.7080   -1.4830   -2.5310 c3        1 IP7      0.080100
     18 C18         5.5040   -2.0670   -3.6720 ca        1 IP7      0.391600
     19 C19         4.8420   -2.7300   -4.7250 ca        1 IP7     -0.218300
     20 C20         5.6040   -3.2890   -5.7530 ca        1 IP7     -0.095000
     21 C21         6.9930   -3.1780   -5.7030 ca        1 IP7     -0.243300
     22 C22         7.5670   -2.4990   -4.6120 ca        1 IP7      0.395200
     23 N23         6.8560   -1.9490   -3.6140 nb        1 IP7     -0.665000
     24 C24        -0.7270    0.0880    0.5810 cp        1 IP7     -0.022000
     25 C25        -0.5560    1.1390    1.5120 ca        1 IP7     -0.148000
     26 C26        -1.5550    1.4920    2.4030 ca        1 IP7     -0.082000
     27 C27        -2.7620    0.7920    2.3840 ca        1 IP7     -0.090800
     28 C28        -3.9900    0.8740    3.1390 cc        1 IP7     -0.189200
     29 C29        -4.8410   -0.1110    2.6460 cd        1 IP7     -0.104100
     30 N30        -4.2150   -0.8180    1.6150 na        1 IP7     -0.195400
     31 C31        -2.9370   -0.2840    1.4310 ca        1 IP7     -0.047200
     32 C32        -1.9190   -0.6320    0.5310 ca        1 IP7     -0.134000
     33 HN11       -1.3200   -4.7860   -3.9290 hn        1 IP7      0.383800
     34 HN12       -2.8330   -4.9620   -4.5530 hn        1 IP7      0.383800
     35 H4         -2.4340   -3.4160   -8.7270 h4        1 IP7      0.020100
     36 H5         -0.6850   -1.5840   -8.6690 ha        1 IP7      0.142000
     37 H6          0.4470   -1.0610   -6.5160 ha        1 IP7      0.141000
     38 HN8        -0.5840   -2.5520   -3.3660 hn        1 IP7      0.402800
     39 H91         0.2570   -0.2660   -4.4350 h1        1 IP7      0.055700
     40 H92         1.7430   -1.3120   -4.5930 h1        1 IP7      0.055700
     41 H11        -0.9540   -0.5210   -2.0390 ha        1 IP7      0.140000
     42 H13         1.9160   -0.0240    1.1560 ha        1 IP7      0.142000
     43 H14         3.7620   -0.5730   -0.3980 ha        1 IP7      0.143000
     44 H171        4.6220   -2.2410   -1.7080 h1        1 IP7      0.064200
     45 H172        5.1750   -0.5390   -2.1400 h1        1 IP7      0.064200
     46 H19         3.7440   -2.7930   -4.7300 ha        1 IP7      0.163000
     47 H20         5.1120   -3.8090   -6.5880 ha        1 IP7      0.141000
     48 H21         7.6290   -3.6030   -6.4890 ha        1 IP7      0.144000
     49 H22         8.6640   -2.3850   -4.5300 h4        1 IP7      0.023100
     50 H25         0.3960    1.6920    1.5140 ha        1 IP7      0.132000
     51 H26        -1.4070    2.3140    3.1180 ha        1 IP7      0.136000
     52 H28        -4.2000    1.5760    3.9390 ha        1 IP7      0.157000
     53 H29        -5.8570   -0.3680    2.9530 h4        1 IP7      0.165000
     54 HN30       -4.6060   -1.5570    1.0970 hn        1 IP7      0.299700
     55 H32        -2.0540   -1.4540   -0.1850 ha        1 IP7      0.135000
@<TRIPOS>BOND
     1    1    2 1   
     2    1   33 1   
     3    1   34 1   
     4    2    3 ar  
     5    2    7 ar  
     6    3    4 ar  
     7    4    5 ar  
     8    4   35 1   
     9    5    6 ar  
    10    5   36 1   
    11    6    7 ar  
    12    6   37 1   
    13    7    8 1   
    14    8    9 1   
    15    8   38 1   
    16    9   10 1   
    17    9   39 1   
    18    9   40 1   
    19   10   11 ar  
    20   10   15 ar  
    21   11   12 ar  
    22   11   41 1   
    23   12   13 ar  
    24   12   24 1   
    25   13   14 ar  
    26   13   42 1   
    27   14   15 ar  
    28   14   43 1   
    29   15   16 1   
    30   16   17 1   
    31   17   18 1   
    32   17   44 1   
    33   17   45 1   
    34   18   19 ar  
    35   18   23 ar  
    36   19   20 ar  
    37   19   46 1   
    38   20   21 ar  
    39   20   47 1   
    40   21   22 ar  
    41   21   48 1   
    42   22   23 ar  
    43   22   49 1   
    44   24   25 ar  
    45   24   32 ar  
    46   25   26 ar  
    47   25   50 1   
    48   26   27 ar  
    49   26   51 1   
    50   27   28 1   
    51   27   31 ar  
    52   28   29 2   
    53   28   52 1   
    54   29   30 1   
    55   29   53 1   
    56   30   31 1   
    57   30   54 1   
    58   31   32 ar  
    59   32   55 1   
@<TRIPOS>SUBSTRUCTURE
     1 IP7         1 TEMP              0 ****  ****    0 ROOT
