@<TRIPOS>MOLECULE
IP7
   55    45     1     0     0
SMALL
bcc


@<TRIPOS>ATOM
      1 N1          3.9910    0.3190    0.2020 n3        1 IP7     -0.303000
      2 C2          3.7950    0.2010    1.6520 c2        1 IP7      0.032000
      3 N3          4.8680    0.3410    2.5030 n2        1 IP7     -0.171000
      4 C4          4.6830    0.2610    3.8670 c1        1 IP7     -0.082000
      5 C5          3.4050    0.0380    4.3880 c1        1 IP7     -0.134875
      6 C6          2.3340   -0.1020    3.5410 c1        1 IP7     -0.134875
      7 C7          2.5210   -0.0210    2.1670 c1        1 IP7     -0.006000
      8 N8          1.3700   -0.2120    1.2490 n3        1 IP7     -0.270000
      9 C9         -0.0040   -0.0960    1.7610 c3        1 IP7     -0.015000
     10 C10        -0.9850   -0.0060    0.5850 c2        1 IP7     -0.113000
     11 C11        -1.4310   -1.1640   -0.0310 c2        1 IP7     -0.089000
     12 C12        -2.3980   -1.0940   -1.0340 c1        1 IP7     -0.060000
     13 C13        -2.9160    0.1370   -1.4170 c1        1 IP7     -0.134875
     14 C14        -2.4680    1.3080   -0.7960 c1        1 IP7     -0.134875
     15 C15        -1.5060    1.2380    0.2010 c1        1 IP7      0.098000
     16 O16        -1.0460    2.4640    0.8660 os        1 IP7     -0.217000
     17 C17        -0.4330    3.4280   -0.0310 c3        1 IP7      0.024000
     18 C18         0.7150    4.1150    0.6710 c2        1 IP7     -0.032000
     19 C19         2.0000    3.5920    0.5810 c2        1 IP7     -0.152000
     20 C20         3.0370    4.2270    1.1930 c1        1 IP7     -0.095000
     21 C21         2.8120    5.3780    1.8960 c1        1 IP7     -0.134875
     22 C22         1.5300    5.8970    1.9840 c1        1 IP7     -0.134875
     23 N23         0.4940    5.2610    1.3710 n1        1 IP7     -0.140000
     24 C24        -2.7980   -2.2640   -1.7040 c1        1 IP7     -0.021000
     25 C25        -3.8290   -3.0620   -1.2090 c1        1 IP7     -0.134875
     26 C26        -4.1850   -4.2210   -1.8740 c1        1 IP7     -0.134875
     27 C27        -3.5090   -4.5910   -3.0430 c1        1 IP7     -0.139000
     28 C28        -3.6480   -5.6720   -3.8980 c1        1 IP7     -0.139000
     29 C29        -2.7080   -5.5390   -4.9120 c1        1 IP7     -0.040500
     30 N30        -1.9990   -4.3900   -4.6840 n2        1 IP7     -0.219000
     31 C31        -2.4920   -3.8000   -3.5270 c1        1 IP7     -0.040500
     32 C32        -2.1340   -2.6300   -2.8540 c1        1 IP7     -0.135000
     33 HN11        3.2570    0.4070   -0.3610 hn        1 IP7      0.181000
     34 HN12        4.8380    0.3040   -0.1480 hn        1 IP7      0.181000
     35 H4          5.4640    0.3620    4.4850 ha        1 IP7      0.157000
     36 H5          3.2730   -0.0190    5.3640 ha        1 IP7      0.141875
     37 H6          1.4380   -0.2580    3.9060 ha        1 IP7      0.141875
     38 HN8         1.5150   -0.3350    0.3560 hn        1 IP7      0.200000
     39 H91        -0.2190   -0.8930    2.3100 h1        1 IP7      0.094000
     40 H92        -0.0800    0.7140    2.3140 h1        1 IP7      0.094000
     41 H11        -1.0640   -2.0410    0.2400 ha        1 IP7      0.142000
     42 H13        -3.5940    0.1850   -2.1210 ha        1 IP7      0.141875
     43 H14        -2.8320    2.1730   -1.0650 ha        1 IP7      0.141875
     44 H171       -1.1050    4.1020   -0.2980 h1        1 IP7      0.103500
     45 H172       -0.1020    2.9690   -0.8230 h1        1 IP7      0.103500
     46 H19         2.1580    2.7710    0.0790 ha        1 IP7      0.163000
     47 H20         3.9470    3.8580    1.1310 ha        1 IP7      0.141000
     48 H21         3.5530    5.8330    2.3350 ha        1 IP7      0.141875
     49 H22         1.3680    6.7260    2.4900 ha        1 IP7      0.141875
     50 H25        -4.3380   -2.7700   -0.4420 ha        1 IP7      0.141875
     51 H26        -4.9080   -4.7810   -1.5280 ha        1 IP7      0.141875
     52 H28        -4.2930   -6.3990   -3.8050 DU        1 IP7      0.190667
     53 H29        -2.6150   -6.1160   -5.6760 DU        1 IP7      0.190667
     54 HN30       -1.3200   -4.0680   -5.2030 DU        1 IP7      0.190667
     55 H32        -1.4040   -2.0650   -3.2040 ha        1 IP7      0.134000
@<TRIPOS>BOND
     1    1    2 1   
     2    1   33 1   
     3    1   34 1   
     4    2    3 1   
     5    2    7 1   
     6    3    4 1   
     7    4   35 1   
     8    5    6 1   
     9    5   36 1   
    10    6   37 1   
    11    7    8 1   
    12    8    9 1   
    13    8   38 1   
    14    9   10 1   
    15    9   39 1   
    16    9   40 1   
    17   10   11 1   
    18   10   15 1   
    19   11   12 1   
    20   11   41 1   
    21   13   14 1   
    22   13   42 1   
    23   14   43 1   
    24   15   16 1   
    25   16   17 1   
    26   17   18 1   
    27   17   44 1   
    28   17   45 1   
    29   18   19 1   
    30   18   23 1   
    31   19   20 1   
    32   19   46 1   
    33   20   47 1   
    34   21   22 1   
    35   21   48 1   
    36   22   49 1   
    37   24   32 1   
    38   25   26 1   
    39   25   50 1   
    40   26   51 1   
    41   27   31 1   
    42   28   29 1   
    43   29   30 1   
    44   30   31 1   
    45   32   55 1   
@<TRIPOS>SUBSTRUCTURE
     1 IP7         1 TEMP              0 ****  ****    0 ROOT
