@<TRIPOS>MOLECULE
IP7
   55    59     1     0     0
SMALL
bcc


@<TRIPOS>ATOM
      1 N1          0.0900    1.1600    0.3130 nv        1 IP7     -0.907500
      2 C2          1.4210    0.6730    0.2230 ca        1 IP7      0.553200
      3 N3          2.2200    0.7370    1.3240 nb        1 IP7     -0.699000
      4 C4          3.5040    0.3620    1.2110 ca        1 IP7      0.383200
      5 C5          4.0710   -0.1120    0.0220 ca        1 IP7     -0.241300
      6 C6          3.2700   -0.1920   -1.1140 ca        1 IP7     -0.140000
      7 C7          1.9170    0.1970   -1.0580 ca        1 IP7      0.008300
      8 N8          1.0360    0.0490   -2.1440 nu        1 IP7     -0.705600
      9 C9          1.6210   -0.2500   -3.4380 c3        1 IP7      0.234100
     10 C10         0.6230   -0.1740   -4.5550 ca        1 IP7     -0.120300
     11 C11         0.2820   -1.3190   -5.2720 ca        1 IP7     -0.076000
     12 C12        -0.6090   -1.2590   -6.3530 cp        1 IP7     -0.064000
     13 C13        -1.1690   -0.0260   -6.7070 ca        1 IP7     -0.080000
     14 C14        -0.8550    1.1300   -5.9970 ca        1 IP7     -0.200000
     15 C15         0.0360    1.0580   -4.9210 ca        1 IP7      0.132100
     16 O16         0.3930    2.1370   -4.1340 os        1 IP7     -0.341900
     17 C17        -0.0220    3.4240   -4.6190 c3        1 IP7      0.081100
     18 C18         0.5930    4.4480   -3.6980 ca        1 IP7      0.386600
     19 C19         0.7070    4.1650   -2.3210 ca        1 IP7     -0.214300
     20 C20         1.2520    5.1360   -1.4780 ca        1 IP7     -0.092000
     21 C21         1.6590    6.3530   -2.0230 ca        1 IP7     -0.242300
     22 C22         1.5030    6.5480   -3.4090 ca        1 IP7      0.393200
     23 N23         0.9890    5.6270   -4.2410 nb        1 IP7     -0.664000
     24 C24        -0.9490   -2.4720   -7.0970 cp        1 IP7     -0.021000
     25 C25        -1.0320   -2.4210   -8.5080 ca        1 IP7     -0.148000
     26 C26        -1.3510   -3.5410   -9.2590 ca        1 IP7     -0.082000
     27 C27        -1.5990   -4.7490   -8.6050 ca        1 IP7     -0.091800
     28 C28        -1.9510   -6.0800   -9.0420 cc        1 IP7     -0.188200
     29 C29        -2.0670   -6.8690   -7.9010 cd        1 IP7     -0.105100
     30 N30        -1.8020   -6.1060   -6.7590 na        1 IP7     -0.195400
     31 C31        -1.5140   -4.7990   -7.1610 ca        1 IP7     -0.048200
     32 C32        -1.1880   -3.6610   -6.4110 ca        1 IP7     -0.135000
     33 HN11       -0.5690    0.4780   -0.0090 hn        1 IP7      0.385800
     34 HN12       -0.1510    1.4800    1.2300 hn        1 IP7      0.385800
     35 H4          4.1000    0.4440    2.1380 h4        1 IP7      0.020100
     36 H5          5.1260   -0.4110   -0.0140 ha        1 IP7      0.141000
     37 H6          3.7100   -0.5600   -2.0530 ha        1 IP7      0.139000
     38 HN8         0.3750    0.8040   -2.2090 hn        1 IP7      0.407800
     39 H91         2.4670    0.4610   -3.6870 h1        1 IP7      0.048700
     40 H92         2.0500   -1.2920   -3.3860 h1        1 IP7      0.048700
     41 H11         0.7290   -2.2860   -4.9910 ha        1 IP7      0.142000
     42 H13        -1.8740    0.0310   -7.5510 ha        1 IP7      0.141000
     43 H14        -1.3150    2.0840   -6.2900 ha        1 IP7      0.142000
     44 H171       -1.1420    3.4940   -4.5590 h1        1 IP7      0.063200
     45 H172        0.3170    3.5540   -5.6810 h1        1 IP7      0.063200
     46 H19         0.3790    3.1910   -1.9280 ha        1 IP7      0.163000
     47 H20         1.3580    4.9370   -0.4010 ha        1 IP7      0.146000
     48 H21         2.0910    7.1440   -1.3960 ha        1 IP7      0.144000
     49 H22         1.8120    7.4960   -3.8840 h4        1 IP7      0.022100
     50 H25        -0.8280   -1.4660   -9.0150 ha        1 IP7      0.132000
     51 H26        -1.4070   -3.4860  -10.3550 ha        1 IP7      0.135000
     52 H28        -2.0950   -6.3950  -10.0700 ha        1 IP7      0.157000
     53 H29        -2.3180   -7.9270   -7.8110 h4        1 IP7      0.165000
     54 HN30       -1.8340   -6.4240   -5.8290 hn        1 IP7      0.298700
     55 H32        -1.1320   -3.7010   -5.3150 ha        1 IP7      0.136000
@<TRIPOS>BOND
     1    1    2 1   
     2    1   33 1   
     3    1   34 1   
     4    2    3 ar  
     5    2    7 ar  
     6    3    4 ar  
     7    4    5 ar  
     8    4   35 1   
     9    5    6 ar  
    10    5   36 1   
    11    6    7 ar  
    12    6   37 1   
    13    7    8 1   
    14    8    9 1   
    15    8   38 1   
    16    9   10 1   
    17    9   39 1   
    18    9   40 1   
    19   10   11 ar  
    20   10   15 ar  
    21   11   12 ar  
    22   11   41 1   
    23   12   13 ar  
    24   12   24 1   
    25   13   14 ar  
    26   13   42 1   
    27   14   15 ar  
    28   14   43 1   
    29   15   16 1   
    30   16   17 1   
    31   17   18 1   
    32   17   44 1   
    33   17   45 1   
    34   18   19 ar  
    35   18   23 ar  
    36   19   20 ar  
    37   19   46 1   
    38   20   21 ar  
    39   20   47 1   
    40   21   22 ar  
    41   21   48 1   
    42   22   23 ar  
    43   22   49 1   
    44   24   25 ar  
    45   24   32 ar  
    46   25   26 ar  
    47   25   50 1   
    48   26   27 ar  
    49   26   51 1   
    50   27   28 1   
    51   27   31 ar  
    52   28   29 2   
    53   28   52 1   
    54   29   30 1   
    55   29   53 1   
    56   30   31 1   
    57   30   54 1   
    58   31   32 ar  
    59   32   55 1   
@<TRIPOS>SUBSTRUCTURE
     1 IP7         1 TEMP              0 ****  ****    0 ROOT
