@<TRIPOS>MOLECULE
IP7
   57    61     1     0     0
SMALL
bcc


@<TRIPOS>ATOM
      1 N1          2.0250    1.8160   -0.4900 nh        1 IP7     -0.938500
      2 C2          2.9160    0.6970   -0.4430 ca        1 IP7      0.613200
      3 N3          3.6700    0.4730    0.6750 nb        1 IP7     -0.670000
      4 C4          4.5190   -0.5590    0.6890 ca        1 IP7      0.484200
      5 C5          4.6790   -1.4550   -0.3940 ca        1 IP7     -0.214300
      6 C6          3.9330   -1.2430   -1.5440 ca        1 IP7     -0.058000
      7 C7          3.0410   -0.1470   -1.5920 ca        1 IP7     -0.186700
      8 N8          2.3050    0.1240   -2.8200 n4        1 IP7     -0.616400
      9 C9          0.8750   -0.3490   -2.7870 c3        1 IP7      0.190100
     10 C10         0.2660   -0.2200   -4.1380 ca        1 IP7     -0.193300
     11 C11         0.0070   -1.3690   -4.8920 ca        1 IP7     -0.078000
     12 C12        -0.5630   -1.2830   -6.1700 cp        1 IP7      0.018000
     13 C13        -0.8670   -0.0140   -6.6920 ca        1 IP7     -0.053000
     14 C14        -0.6170    1.1420   -5.9560 ca        1 IP7     -0.169000
     15 C15        -0.0570    1.0390   -4.6790 ca        1 IP7      0.093100
     16 O16         0.2590    2.1550   -3.8940 os        1 IP7     -0.393900
     17 C17        -0.5370    3.3070   -4.2040 c3        1 IP7      0.154700
     18 C18        -0.4130    4.3440   -3.1170 ca        1 IP7      0.013400
     19 C19        -1.4260    5.3160   -3.0060 ca        1 IP7     -0.139000
     20 C20        -1.3090    6.3450   -2.0660 ca        1 IP7      0.011000
     21 C21        -0.1790    6.3910   -1.2390 ca        1 IP7     -0.129000
     22 C22         0.8030    5.4040   -1.3680 ca        1 IP7     -0.021300
     23 N23         0.6780    4.4050   -2.2910 na        1 IP7     -0.078100
     24 C24        -0.8220   -2.4860   -6.9530 cp        1 IP7     -0.091000
     25 C25        -0.5290   -2.4820   -8.3360 ca        1 IP7     -0.142000
     26 C26        -0.7540   -3.5960   -9.1270 ca        1 IP7     -0.069000
     27 C27        -1.2940   -4.7440   -8.5460 ca        1 IP7     -0.060800
     28 C28        -1.6630   -6.0450   -9.0470 cc        1 IP7     -0.185200
     29 C29        -2.1650   -6.7710   -7.9680 cd        1 IP7     -0.071100
     30 N30        -2.1220   -5.9990   -6.8030 na        1 IP7     -0.188400
     31 C31        -1.5990   -4.7450   -7.1270 ca        1 IP7     -0.057200
     32 C32        -1.3560   -3.6180   -6.3340 ca        1 IP7     -0.114000
     33 HN11        1.3890    3.6950   -2.3680 hn        1 IP7      0.344700
     34 HN12        1.0870    1.5000   -0.3070 hn        1 IP7      0.395300
     35 H4          5.1040   -0.6840    1.6260 h4        1 IP7      0.076100
     36 H5          5.3860   -2.2980   -0.3190 ha        1 IP7      0.196000
     37 H6          4.0490   -1.9230   -2.4060 ha        1 IP7      0.170000
     38 HN8         2.7840   -0.3430   -3.6040 hn        1 IP7      0.458300
     39 H91         0.8720   -1.4210   -2.4340 hx        1 IP7      0.107700
     40 H92         0.3190    0.2840   -2.0390 hx        1 IP7      0.107700
     41 H11         0.2500   -2.3630   -4.4800 ha        1 IP7      0.159000
     42 H13        -1.3150    0.0660   -7.6990 ha        1 IP7      0.179000
     43 H14        -0.8640    2.1190   -6.3970 ha        1 IP7      0.153000
     44 H171       -0.1590    3.7620   -5.1650 h1        1 IP7      0.107200
     45 H172       -1.6180    3.0130   -4.3120 h1        1 IP7      0.107200
     46 H19        -2.3060    5.2580   -3.6710 ha        1 IP7      0.205000
     47 H20        -2.1010    7.1150   -1.9780 ha        1 IP7      0.209000
     48 H21        -0.0490    7.1930   -0.4890 ha        1 IP7      0.215000
     49 H22         1.7180    5.3980   -0.7390 h4        1 IP7      0.215000
     50 H25        -0.1010   -1.5750   -8.7890 ha        1 IP7      0.129000
     51 H26        -0.5160   -3.5810  -10.2020 ha        1 IP7      0.155000
     52 H28        -1.5660   -6.3860  -10.0740 ha        1 IP7      0.177000
     53 H29        -2.5500   -7.7940   -7.9410 h4        1 IP7      0.185000
     54 HN30       -2.4680   -6.2660   -5.9200 hn        1 IP7      0.306700
     55 H32        -1.5990   -3.6180   -5.2630 ha        1 IP7      0.127000
     56 H131        2.2760    2.5050    0.2010 hn        1 IP7      0.395300
     57 H82         2.3080    1.1360   -3.0070 hn        1 IP7      0.458300
@<TRIPOS>BOND
     1    1    2 1   
     2    1   34 1   
     3    1   56 1   
     4    2    3 ar  
     5    2    7 ar  
     6    3    4 ar  
     7    4    5 ar  
     8    4   35 1   
     9    5    6 ar  
    10    5   36 1   
    11    6    7 ar  
    12    6   37 1   
    13    7    8 1   
    14    8    9 1   
    15    8   38 1   
    16    8   57 1   
    17    9   10 1   
    18    9   39 1   
    19    9   40 1   
    20   10   11 ar  
    21   10   15 ar  
    22   11   12 ar  
    23   11   41 1   
    24   12   13 ar  
    25   12   24 1   
    26   13   14 ar  
    27   13   42 1   
    28   14   15 ar  
    29   14   43 1   
    30   15   16 1   
    31   16   17 1   
    32   17   18 1   
    33   17   44 1   
    34   17   45 1   
    35   18   19 ar  
    36   18   23 2   
    37   19   20 ar  
    38   19   46 1   
    39   20   21 ar  
    40   20   47 1   
    41   21   22 ar  
    42   21   48 1   
    43   22   23 1   
    44   22   49 1   
    45   23   33 1   
    46   24   25 ar  
    47   24   32 ar  
    48   25   26 ar  
    49   25   50 1   
    50   26   27 ar  
    51   26   51 1   
    52   27   28 1   
    53   27   31 ar  
    54   28   29 2   
    55   28   52 1   
    56   29   30 1   
    57   29   53 1   
    58   30   31 1   
    59   30   54 1   
    60   31   32 ar  
    61   32   55 1   
@<TRIPOS>SUBSTRUCTURE
     1 IP7         1 TEMP              0 ****  ****    0 ROOT
