@<TRIPOS>MOLECULE
IP7
   55    59     1     0     0
SMALL
bcc


@<TRIPOS>ATOM
      1 N1          0.1010    1.1650    0.3100 nh        1 IP7     -0.907500
      2 C2          1.4320    0.6790    0.2180 ca        1 IP7      0.553200
      3 N3          2.2330    0.7460    1.3180 nb        1 IP7     -0.699000
      4 C4          3.5170    0.3720    1.2030 ca        1 IP7      0.383200
      5 C5          4.0830   -0.1030    0.0140 ca        1 IP7     -0.241300
      6 C6          3.2790   -0.1860   -1.1210 ca        1 IP7     -0.140000
      7 C7          1.9260    0.2010   -1.0630 ca        1 IP7      0.008300
      8 N8          1.0430    0.0510   -2.1470 nh        1 IP7     -0.705600
      9 C9          1.6270   -0.2490   -3.4420 c3        1 IP7      0.234100
     10 C10         0.6260   -0.1750   -4.5570 ca        1 IP7     -0.120300
     11 C11         0.2840   -1.3210   -5.2710 ca        1 IP7     -0.076000
     12 C12        -0.6090   -1.2640   -6.3510 cp        1 IP7     -0.064000
     13 C13        -1.1690   -0.0310   -6.7070 ca        1 IP7     -0.080000
     14 C14        -0.8540    1.1260   -5.9990 ca        1 IP7     -0.200000
     15 C15         0.0400    1.0560   -4.9240 ca        1 IP7      0.132100
     16 O16         0.3980    2.1360   -4.1400 os        1 IP7     -0.341900
     17 C17        -0.0200    3.4220   -4.6240 c3        1 IP7      0.081100
     18 C18         0.5930    4.4480   -3.7040 ca        1 IP7      0.386600
     19 C19         0.7090    4.1660   -2.3280 ca        1 IP7     -0.214300
     20 C20         1.2520    5.1380   -1.4850 ca        1 IP7     -0.092000
     21 C21         1.6560    6.3560   -2.0310 ca        1 IP7     -0.242300
     22 C22         1.5000    6.5500   -3.4170 ca        1 IP7      0.393200
     23 N23         0.9870    5.6280   -4.2480 nb        1 IP7     -0.664000
     24 C24        -0.9520   -2.4780   -7.0910 cp        1 IP7     -0.021000
     25 C25        -1.0380   -2.4300   -8.5030 ca        1 IP7     -0.148000
     26 C26        -1.3590   -3.5510   -9.2500 ca        1 IP7     -0.082000
     27 C27        -1.6070   -4.7570   -8.5930 ca        1 IP7     -0.091800
     28 C28        -1.9610   -6.0890   -9.0260 cc        1 IP7     -0.188200
     29 C29        -2.0750   -6.8750   -7.8830 cd        1 IP7     -0.105100
     30 N30        -1.8070   -6.1110   -6.7440 na        1 IP7     -0.195400
     31 C31        -1.5190   -4.8050   -7.1490 ca        1 IP7     -0.048200
     32 C32        -1.1900   -3.6650   -6.4020 ca        1 IP7     -0.135000
     33 HN11       -0.1390    1.4870    1.2270 hn        1 IP7      0.385800
     34 HN12       -0.5580    0.4820   -0.0100 hn        1 IP7      0.385800
     35 H4          4.1140    0.4570    2.1280 h4        1 IP7      0.020100
     36 H5          5.1380   -0.4010   -0.0240 ha        1 IP7      0.141000
     37 H6          3.7180   -0.5550   -2.0600 ha        1 IP7      0.139000
     38 HN8         0.3820    0.8050   -2.2120 hn        1 IP7      0.407800
     39 H91         2.4720    0.4610   -3.6930 h1        1 IP7      0.048700
     40 H92         2.0550   -1.2920   -3.3880 h1        1 IP7      0.048700
     41 H11         0.7300   -2.2890   -4.9890 ha        1 IP7      0.142000
     42 H13        -1.8760    0.0250   -7.5500 ha        1 IP7      0.141000
     43 H14        -1.3130    2.0800   -6.2930 ha        1 IP7      0.142000
     44 H171       -1.1400    3.4900   -4.5640 h1        1 IP7      0.063200
     45 H172        0.3180    3.5520   -5.6870 h1        1 IP7      0.063200
     46 H19         0.3830    3.1910   -1.9340 ha        1 IP7      0.163000
     47 H20         1.3590    4.9400   -0.4080 ha        1 IP7      0.146000
     48 H21         2.0870    7.1470   -1.4050 ha        1 IP7      0.144000
     49 H22         1.8060    7.4990   -3.8930 h4        1 IP7      0.022100
     50 H25        -0.8340   -1.4760   -9.0120 ha        1 IP7      0.132000
     51 H26        -1.4190   -3.4990  -10.3460 ha        1 IP7      0.135000
     52 H28        -2.1090   -6.4070  -10.0530 ha        1 IP7      0.157000
     53 H29        -2.3270   -7.9340   -7.7910 h4        1 IP7      0.165000
     54 HN30       -1.8370   -6.4270   -5.8130 hn        1 IP7      0.298700
     55 H32        -1.1310   -3.7030   -5.3060 ha        1 IP7      0.136000
@<TRIPOS>BOND
     1    1    2 1   
     2    1   33 1   
     3    1   34 1   
     4    2    3 ar  
     5    2    7 ar  
     6    3    4 ar  
     7    4    5 ar  
     8    4   35 1   
     9    5    6 ar  
    10    5   36 1   
    11    6    7 ar  
    12    6   37 1   
    13    7    8 1   
    14    8    9 1   
    15    8   38 1   
    16    9   10 1   
    17    9   39 1   
    18    9   40 1   
    19   10   11 ar  
    20   10   15 ar  
    21   11   12 ar  
    22   11   41 1   
    23   12   13 ar  
    24   12   24 1   
    25   13   14 ar  
    26   13   42 1   
    27   14   15 ar  
    28   14   43 1   
    29   15   16 1   
    30   16   17 1   
    31   17   18 1   
    32   17   44 1   
    33   17   45 1   
    34   18   19 ar  
    35   18   23 ar  
    36   19   20 ar  
    37   19   46 1   
    38   20   21 ar  
    39   20   47 1   
    40   21   22 ar  
    41   21   48 1   
    42   22   23 ar  
    43   22   49 1   
    44   24   25 ar  
    45   24   32 ar  
    46   25   26 ar  
    47   25   50 1   
    48   26   27 ar  
    49   26   51 1   
    50   27   28 1   
    51   27   31 ar  
    52   28   29 2   
    53   28   52 1   
    54   29   30 1   
    55   29   53 1   
    56   30   31 1   
    57   30   54 1   
    58   31   32 ar  
    59   32   55 1   
@<TRIPOS>SUBSTRUCTURE
     1 IP7         1 TEMP              0 ****  ****    0 ROOT
