@<TRIPOS>MOLECULE
IP8
   19    17     1     0     0
SMALL
bcc


@<TRIPOS>ATOM
      1 O          -1.9260   -3.3650    0.2430 o         1 IP8     -0.934167
      2 C1         -0.1530   -0.8150    0.0690 c3        1 IP8      0.108000
      3 O1          0.1110   -2.0750   -0.5020 os        1 IP8     -0.722000
      4 P1         -0.4160   -3.3650    0.2430 p5        1 IP8      1.546500
      5 C2          0.3020    0.2740   -0.8770 c3        1 IP8     -0.203000
      6 O2          0.0880   -3.3650    1.6670 o         1 IP8     -0.934167
      7 C3          0.1000    1.6250   -0.2270 c2        1 IP8     -0.048000
      8 O3          0.0880   -4.5980   -0.4690 o         1 IP8     -0.934167
      9 C4          1.2560    2.3100    0.4680 c3        1 IP8     -0.182000
     10 C5         -1.1100    2.2180   -0.2670 c1        1 IP8     -0.300000
     11 H1          0.3280   -0.7330    0.9150 h1        1 IP8      0.019000
     12 H1A        -1.1120   -0.7260    0.2310 h1        1 IP8      0.019000
     13 H2         -0.2200    0.2280   -1.7010 hc        1 IP8      0.096500
     14 H2A         1.2480    0.1510   -1.0840 hc        1 IP8      0.096500
     15 H4          1.0330    2.4500    1.4090 hc        1 IP8      0.063000
     16 H4A         2.0530    1.7510    0.4020 hc        1 IP8      0.063000
     17 H4B         1.4260    3.1720    0.0430 hc        1 IP8      0.063000
     18 H5         -1.8550    1.7760   -0.7160 DU        1 IP8      0.118000
     19 H5A        -1.2400    3.0890    0.1530 ha        1 IP8      0.064000
@<TRIPOS>BOND
     1    1    4 1   
     2    2    3 1   
     3    2    5 1   
     4    2   11 1   
     5    2   12 1   
     6    3    4 1   
     7    4    6 1   
     8    4    8 1   
     9    5    7 1   
    10    5   13 1   
    11    5   14 1   
    12    7    9 1   
    13    7   10 1   
    14    9   15 1   
    15    9   16 1   
    16    9   17 1   
    17   10   19 1   
@<TRIPOS>SUBSTRUCTURE
     1 IP8         1 TEMP              0 ****  ****    0 ROOT
