@<TRIPOS>MOLECULE
IP8
   19    18     1     0     0
SMALL
bcc


@<TRIPOS>ATOM
      1 O           1.8830    0.2800   -1.3370 o         1 IP8     -0.933500
      2 C1         -0.6560   -0.8940   -0.1510 c3        1 IP8      0.251400
      3 O1          0.4740   -0.6080    0.5630 os        1 IP8     -0.565200
      4 P1          1.3480    0.7840   -0.0250 p5        1 IP8      1.320900
      5 C2         -1.9180   -0.7940    0.7430 c3        1 IP8     -0.099200
      6 O2          2.3410    1.0280    1.0740 o         1 IP8     -0.933500
      7 C3         -3.0460   -0.1160    0.0520 c2        1 IP8     -0.013400
      8 O3          0.2180    1.7810   -0.1470 o         1 IP8     -0.933500
      9 C4         -2.9180    1.3570   -0.0600 c3        1 IP8     -0.116900
     10 C5         -4.1050   -0.7820   -0.4320 c2        1 IP8     -0.353000
     11 H1         -0.7620   -0.2040   -1.0360 h1        1 IP8     -0.014300
     12 H1A        -0.6180   -1.9600   -0.5330 h1        1 IP8     -0.014300
     13 H2         -2.2240   -1.8210    1.0740 hc        1 IP8      0.028700
     14 H2A        -1.6410   -0.2070    1.6580 hc        1 IP8      0.028700
     15 H4         -1.8350    1.6360   -0.2780 hc        1 IP8      0.064367
     16 H4A        -3.5850    1.7700   -0.8550 hc        1 IP8      0.064367
     17 H4B        -3.1930    1.8310    0.9150 hc        1 IP8      0.064367
     18 H5         -4.9270   -0.2800   -0.9540 ha        1 IP8      0.075500
     19 H5A        -4.1980   -1.8700   -0.3570 ha        1 IP8      0.075500
@<TRIPOS>BOND
     1    1    4 1   
     2    2    3 1   
     3    2    5 1   
     4    2   11 1   
     5    2   12 1   
     6    3    4 1   
     7    4    6 1   
     8    4    8 1   
     9    5    7 1   
    10    5   13 1   
    11    5   14 1   
    12    7    9 1   
    13    7   10 2   
    14    9   15 1   
    15    9   16 1   
    16    9   17 1   
    17   10   18 1   
    18   10   19 1   
@<TRIPOS>SUBSTRUCTURE
     1 IP8         1 TEMP              0 ****  ****    0 ROOT
