@<TRIPOS>MOLECULE
IP8
   19    18     1     0     0
SMALL
bcc


@<TRIPOS>ATOM
      1 O           0.6590   -0.7080   -0.6740 o         1 IP8     -0.933500
      2 C1          1.1020    2.1500   -1.6030 c3        1 IP8      0.251400
      3 O1          1.7910    1.5490   -0.5870 os        1 IP8     -0.565200
      4 P1          2.0520   -0.1610   -0.8260 p5        1 IP8      1.320900
      5 C2          1.9600    3.2480   -2.2830 c3        1 IP8     -0.099200
      6 O2          3.0410   -0.4890    0.2540 o         1 IP8     -0.933500
      7 C3          1.8360    3.2230   -3.7650 c2        1 IP8     -0.013400
      8 O3          2.5770   -0.1590   -2.2440 o         1 IP8     -0.933500
      9 C4          2.5730    2.1250   -4.4360 c3        1 IP8     -0.116900
     10 C5          1.1170    4.1250   -4.4470 c2        1 IP8     -0.353000
     11 H1          0.1810    2.6710   -1.1960 h1        1 IP8     -0.014300
     12 H1A         0.7710    1.3960   -2.3730 h1        1 IP8     -0.014300
     13 H2          1.6660    4.2530   -1.8840 hc        1 IP8      0.028700
     14 H2A         3.0310    3.0650   -2.0000 hc        1 IP8      0.028700
     15 H4          3.6570    2.3890   -4.5030 hc        1 IP8      0.064367
     16 H4A         2.4940    1.1710   -3.8190 hc        1 IP8      0.064367
     17 H4B         2.1900    1.9420   -5.4690 hc        1 IP8      0.064367
     18 H5          0.5660    4.9320   -3.9520 ha        1 IP8      0.075500
     19 H5A         1.0160    4.0940   -5.5370 ha        1 IP8      0.075500
@<TRIPOS>BOND
     1    1    4 1   
     2    2    3 1   
     3    2    5 1   
     4    2   11 1   
     5    2   12 1   
     6    3    4 1   
     7    4    6 1   
     8    4    8 1   
     9    5    7 1   
    10    5   13 1   
    11    5   14 1   
    12    7    9 1   
    13    7   10 2   
    14    9   15 1   
    15    9   16 1   
    16    9   17 1   
    17   10   18 1   
    18   10   19 1   
@<TRIPOS>SUBSTRUCTURE
     1 IP8         1 TEMP              0 ****  ****    0 ROOT
