@<TRIPOS>MOLECULE
IP8
   19    18     1     0     0
SMALL
bcc


@<TRIPOS>ATOM
      1 O           0.6870   -0.6330   -0.5580 o         1 IP8     -0.933500
      2 C1          1.1400    2.1910   -1.5800 c3        1 IP8      0.251400
      3 O1          1.8550    1.6070   -0.5720 os        1 IP8     -0.565200
      4 P1          2.0810   -0.1120   -0.7720 p5        1 IP8      1.320900
      5 C2          1.9910    3.2560   -2.3190 c3        1 IP8     -0.099200
      6 O2          3.1030   -0.4270    0.2830 o         1 IP8     -0.933500
      7 C3          1.8160    3.1920   -3.7950 c2        1 IP8     -0.013400
      8 O3          2.5570   -0.1580   -2.2070 o         1 IP8     -0.933500
      9 C4          2.5120    2.0650   -4.4600 c3        1 IP8     -0.116900
     10 C5          1.0880    4.0880   -4.4760 c2        1 IP8     -0.353000
     11 H1          0.2420    2.7380   -1.1560 h1        1 IP8     -0.014300
     12 H1A         0.7720    1.4220   -2.3170 h1        1 IP8     -0.014300
     13 H2          1.7260    4.2770   -1.9390 hc        1 IP8      0.028700
     14 H2A         3.0680    3.0640   -2.0680 hc        1 IP8      0.028700
     15 H4          3.5970    2.3100   -4.5720 hc        1 IP8      0.064367
     16 H4A         2.4410    1.1300   -3.8140 hc        1 IP8      0.064367
     17 H4B         2.0900    1.8600   -5.4740 hc        1 IP8      0.064367
     18 H5          0.5670    4.9170   -3.9860 ha        1 IP8      0.075500
     19 H5A         0.9490    4.0290   -5.5610 ha        1 IP8      0.075500
@<TRIPOS>BOND
     1    1    4 1   
     2    2    3 1   
     3    2    5 1   
     4    2   11 1   
     5    2   12 1   
     6    3    4 1   
     7    4    6 1   
     8    4    8 1   
     9    5    7 1   
    10    5   13 1   
    11    5   14 1   
    12    7    9 1   
    13    7   10 2   
    14    9   15 1   
    15    9   16 1   
    16    9   17 1   
    17   10   18 1   
    18   10   19 1   
@<TRIPOS>SUBSTRUCTURE
     1 IP8         1 TEMP              0 ****  ****    0 ROOT
