@<TRIPOS>MOLECULE
IPA
   12    11     1     0     0
SMALL
bcc


@<TRIPOS>ATOM
      1 C1         -0.0510    0.0170    0.0080 c3        1 IPA     -0.111600
      2 C2          1.4650    0.0550   -0.0510 c3        1 IPA      0.139100
      3 C3          2.0790   -0.0210    1.3350 c3        1 IPA     -0.111600
      4 O2          1.8650   -1.0540   -0.8510 oh        1 IPA     -0.601800
      5 H11        -0.4720    0.0260   -1.0250 hc        1 IPA      0.043367
      6 H12        -0.4250    0.9070    0.5670 hc        1 IPA      0.043367
      7 H13        -0.3950   -0.9120    0.5220 hc        1 IPA      0.043367
      8 H2          1.8020    1.0050   -0.5590 h1        1 IPA      0.028700
      9 H31         1.8070   -0.9860    1.8260 hc        1 IPA      0.043367
     10 H32         1.7060    0.8210    1.9640 hc        1 IPA      0.043367
     11 H33         3.1920    0.0430    1.2730 hc        1 IPA      0.043367
     12 HO2         2.8280   -1.0890   -0.8170 ho        1 IPA      0.397000
@<TRIPOS>BOND
     1    1    2 1   
     2    1    5 1   
     3    1    6 1   
     4    1    7 1   
     5    2    3 1   
     6    2    4 1   
     7    2    8 1   
     8    3    9 1   
     9    3   10 1   
    10    3   11 1   
    11    4   12 1   
@<TRIPOS>SUBSTRUCTURE
     1 IPA         1 TEMP              0 ****  ****    0 ROOT
