@<TRIPOS>MOLECULE
IPA
   12    11     1     0     0
SMALL
bcc


@<TRIPOS>ATOM
      1 C1         -0.6430    1.2860    0.1090 c3        1 IPA     -0.111600
      2 C2          0.0130    0.0050   -0.3760 c3        1 IPA      0.139100
      3 C3          1.4510   -0.0980    0.0980 c3        1 IPA     -0.111600
      4 O2         -0.6620   -1.1420    0.1320 oh        1 IPA     -0.601800
      5 H11        -0.0640    2.1700   -0.2490 hc        1 IPA      0.043367
      6 H12        -1.6870    1.3590   -0.2780 hc        1 IPA      0.043367
      7 H13        -0.6760    1.3040    1.2250 hc        1 IPA      0.043367
      8 H2         -0.0200   -0.0290   -1.5030 h1        1 IPA      0.028700
      9 H31         1.4960   -0.0510    1.2120 hc        1 IPA      0.043367
     10 H32         1.8910   -1.0690   -0.2320 hc        1 IPA      0.043367
     11 H33         2.0460    0.7420   -0.3310 hc        1 IPA      0.043367
     12 HO2        -1.5950   -1.0360   -0.0860 ho        1 IPA      0.397000
@<TRIPOS>BOND
     1    1    2 1   
     2    1    5 1   
     3    1    6 1   
     4    1    7 1   
     5    2    3 1   
     6    2    4 1   
     7    2    8 1   
     8    3    9 1   
     9    3   10 1   
    10    3   11 1   
    11    4   12 1   
@<TRIPOS>SUBSTRUCTURE
     1 IPA         1 TEMP              0 ****  ****    0 ROOT
