@<TRIPOS>MOLECULE
IPA
   12    11     1     0     0
SMALL
bcc


@<TRIPOS>ATOM
      1 C1          0.0860    0.0130   -0.0560 c3        1 IPA     -0.111600
      2 C2          1.6000    0.0480    0.0410 c3        1 IPA      0.139100
      3 C3          2.0680   -0.0090    1.4840 c3        1 IPA     -0.111600
      4 O2          2.1820   -1.0750   -0.6160 oh        1 IPA     -0.601800
      5 H11        -0.2380    0.0900   -1.1210 hc        1 IPA      0.043367
      6 H12        -0.3520    0.8660    0.5150 hc        1 IPA      0.043367
      7 H13        -0.3070   -0.9430    0.3660 hc        1 IPA      0.043367
      8 H2          1.9860    0.9890   -0.4480 h1        1 IPA      0.028700
      9 H31         1.6800   -0.9290    1.9800 hc        1 IPA      0.043367
     10 H32         1.6970    0.8890    2.0310 hc        1 IPA      0.043367
     11 H33         3.1830   -0.0300    1.5220 hc        1 IPA      0.043367
     12 HO2         1.8170   -1.0970   -1.5070 ho        1 IPA      0.397000
@<TRIPOS>BOND
     1    1    2 1   
     2    1    5 1   
     3    1    6 1   
     4    1    7 1   
     5    2    3 1   
     6    2    4 1   
     7    2    8 1   
     8    3    9 1   
     9    3   10 1   
    10    3   11 1   
    11    4   12 1   
@<TRIPOS>SUBSTRUCTURE
     1 IPA         1 TEMP              0 ****  ****    0 ROOT
