@<TRIPOS>MOLECULE
IPB
   25    25     1     0     0
SMALL
bcc


@<TRIPOS>ATOM
      1 C4          0.1000    0.0890    0.5830 ca        1 IPB     -0.156300
      2 C5          1.2970    0.4070   -0.0700 ca        1 IPB     -0.088000
      3 C6          1.3950    0.3800   -1.4560 ca        1 IPB     -0.166000
      4 C1          0.2890    0.0280   -2.2410 ca        1 IPB     -0.046300
      5 C2         -0.9130   -0.3030   -1.6170 ca        1 IPB     -0.158000
      6 C3         -1.0020   -0.2770   -0.2150 ca        1 IPB      0.130100
      7 C8         -0.0140    0.1340    2.0740 c3        1 IPB     -0.020400
      8 C7          0.4040   -0.0050   -3.7170 c3        1 IPB     -0.054800
      9 O          -2.2370   -0.6210    0.2890 oh        1 IPB     -0.504100
     10 C9          0.0840   -1.2630    2.6630 c3        1 IPB     -0.090600
     11 C10         1.0120    1.0420    2.7240 c3        1 IPB     -0.090600
     12 H5          2.1830    0.6870    0.5220 ha        1 IPB      0.133000
     13 H6          2.3460    0.6370   -1.9440 ha        1 IPB      0.132000
     14 H2         -1.8000   -0.5860   -2.2030 ha        1 IPB      0.149000
     15 H8         -1.0300    0.5590    2.3320 hc        1 IPB      0.042700
     16 H73         0.9650   -0.9200   -4.0350 hc        1 IPB      0.046033
     17 H72        -0.6020   -0.0230   -4.2020 hc        1 IPB      0.046033
     18 H71         0.9610    0.8910   -4.0880 hc        1 IPB      0.046033
     19 H          -2.1740   -0.6800    1.2520 ho        1 IPB      0.421000
     20 H93        -0.0720   -1.2240    3.7670 hc        1 IPB      0.038367
     21 H92        -0.6860   -1.9350    2.2130 hc        1 IPB      0.038367
     22 H91         1.0910   -1.7010    2.4610 hc        1 IPB      0.038367
     23 H103        2.0340    0.5920    2.6750 hc        1 IPB      0.038367
     24 H102        1.0330    2.0360    2.2170 hc        1 IPB      0.038367
     25 H101        0.7510    1.1940    3.7990 hc        1 IPB      0.038367
@<TRIPOS>BOND
     1    1    2 ar  
     2    1    6 ar  
     3    1    7 1   
     4    2    3 ar  
     5    2   12 1   
     6    3    4 ar  
     7    3   13 1   
     8    4    5 ar  
     9    4    8 1   
    10    5    6 ar  
    11    5   14 1   
    12    6    9 1   
    13    7   10 1   
    14    7   11 1   
    15    7   15 1   
    16    8   16 1   
    17    8   17 1   
    18    8   18 1   
    19    9   19 1   
    20   10   20 1   
    21   10   21 1   
    22   10   22 1   
    23   11   23 1   
    24   11   24 1   
    25   11   25 1   
@<TRIPOS>SUBSTRUCTURE
     1 IPB         1 TEMP              0 ****  ****    0 ROOT
