@<TRIPOS>MOLECULE
IPB
   25    22     1     0     0
SMALL
bcc


@<TRIPOS>ATOM
      1 C4         -0.3200    0.0350   -0.3640 c1        1 IPB     -0.065100
      2 C5          1.0660    0.0350   -0.3640 c1        1 IPB     -0.071000
      3 C6          1.7590    0.0350    0.8360 c1        1 IPB     -0.071000
      4 C1          1.0660    0.0350    2.0360 c1        1 IPB     -0.008100
      5 C2         -0.3200    0.0350    2.0360 c1        1 IPB     -0.156500
      6 C3         -1.0130    0.0350    0.8360 c1        1 IPB      0.111600
      7 C8         -1.0770   -0.0120   -1.6740 c3        1 IPB     -0.053600
      8 C7          1.8220    0.0050    3.3460 c3        1 IPB     -0.090000
      9 O          -2.4200    0.0160    0.8360 oh        1 IPB     -0.484600
     10 C9         -0.8460    1.2750   -2.4350 c3        1 IPB     -0.086100
     11 C10        -0.5850   -1.1800   -2.4990 c3        1 IPB     -0.086100
     12 H5          1.5540    0.0350   -1.2100 ha        1 IPB      0.076000
     13 H6          2.7350    0.0350    0.8360 ha        1 IPB      0.076000
     14 H2         -0.8080    0.0350    2.8820 ha        1 IPB      0.073500
     15 H8         -2.0300   -0.1180   -1.4950 hc        1 IPB      0.071700
     16 H73         1.8790   -0.9140    3.6690 hc        1 IPB      0.045700
     17 H72         2.7220    0.3590    3.2100 hc        1 IPB      0.045700
     18 H71         1.3540    0.5530    4.0050 hc        1 IPB      0.045700
     19 H          -2.7070   -0.6580    1.3380 ho        1 IPB      0.418000
     20 H93        -1.4940    1.3440   -3.1620 hc        1 IPB      0.034700
     21 H92        -0.9540    2.0350   -1.8310 hc        1 IPB      0.034700
     22 H91         0.0580    1.2780   -2.8030 hc        1 IPB      0.034700
     23 H103       -1.2190   -1.3600   -3.2190 hc        1 IPB      0.034700
     24 H102       -0.5070   -1.9700   -1.9300 hc        1 IPB      0.034700
     25 H101        0.2880   -0.9660   -2.8790 hc        1 IPB      0.034700
@<TRIPOS>BOND
     1    1    6 3   
     2    1    7 1   
     3    2    3 3   
     4    2   12 1   
     5    3   13 1   
     6    4    5 3   
     7    4    8 1   
     8    5   14 1   
     9    6    9 1   
    10    7   10 1   
    11    7   11 1   
    12    7   15 1   
    13    8   16 1   
    14    8   17 1   
    15    8   18 1   
    16    9   19 1   
    17   10   20 1   
    18   10   21 1   
    19   10   22 1   
    20   11   23 1   
    21   11   24 1   
    22   11   25 1   
@<TRIPOS>SUBSTRUCTURE
     1 IPB         1 TEMP              0 ****  ****    0 ROOT
