@<TRIPOS>MOLECULE
IPB
   25    25     1     0     0
SMALL
bcc


@<TRIPOS>ATOM
      1 C4          0.0100   -0.0310   -0.0310 ca        1 IPB     -0.099300
      2 C5          1.4060    0.0340    0.0010 ca        1 IPB     -0.093000
      3 C6          2.1060    0.0300    1.2050 ca        1 IPB     -0.164000
      4 C1          1.4200   -0.0370    2.4220 ca        1 IPB     -0.042300
      5 C2          0.0250   -0.1040    2.4180 ca        1 IPB     -0.214000
      6 C3         -0.6710   -0.1010    1.2020 ca        1 IPB      0.128100
      7 C8         -0.7350   -0.0280   -1.3280 c3        1 IPB     -0.019400
      8 C7          2.1620   -0.0250    3.7040 c3        1 IPB     -0.055800
      9 O          -2.0480   -0.1650    1.1620 oh        1 IPB     -0.501100
     10 C9         -0.4790    1.2550   -2.0970 c3        1 IPB     -0.086100
     11 C10        -0.3620   -1.2340   -2.1700 c3        1 IPB     -0.086100
     12 H5          1.9600    0.0870   -0.9500 ha        1 IPB      0.135000
     13 H6          3.2040    0.0810    1.1990 ha        1 IPB      0.132000
     14 H2         -0.5270   -0.1600    3.3670 ha        1 IPB      0.131000
     15 H8         -1.8410   -0.0860   -1.1080 hc        1 IPB      0.071700
     16 H73         2.2990    1.0300    4.0540 hc        1 IPB      0.045367
     17 H72         1.6080   -0.5860    4.4950 hc        1 IPB      0.045367
     18 H71         3.1730   -0.4870    3.5850 hc        1 IPB      0.045367
     19 H          -2.3690   -0.2080    2.0750 ho        1 IPB      0.418000
     20 H93         0.6030    1.3540   -2.3540 hc        1 IPB      0.034700
     21 H92        -0.7820    2.1400   -1.4880 hc        1 IPB      0.034700
     22 H91        -1.0700    1.2540   -3.0450 hc        1 IPB      0.034700
     23 H103       -0.9530   -1.2330   -3.1180 hc        1 IPB      0.034700
     24 H102        0.7230   -1.2160   -2.4290 hc        1 IPB      0.034700
     25 H101       -0.5800   -2.1780   -1.6150 hc        1 IPB      0.034700
@<TRIPOS>BOND
     1    1    2 ar  
     2    1    6 ar  
     3    1    7 1   
     4    2    3 ar  
     5    2   12 1   
     6    3    4 ar  
     7    3   13 1   
     8    4    5 ar  
     9    4    8 1   
    10    5    6 ar  
    11    5   14 1   
    12    6    9 1   
    13    7   10 1   
    14    7   11 1   
    15    7   15 1   
    16    8   16 1   
    17    8   17 1   
    18    8   18 1   
    19    9   19 1   
    20   10   20 1   
    21   10   21 1   
    22   10   22 1   
    23   11   23 1   
    24   11   24 1   
    25   11   25 1   
@<TRIPOS>SUBSTRUCTURE
     1 IPB         1 TEMP              0 ****  ****    0 ROOT
