@<TRIPOS>MOLECULE
IPB
   25    25     1     0     0
SMALL
bcc


@<TRIPOS>ATOM
      1 C4          0.0100   -0.0330   -0.0310 ca        1 IPB     -0.099300
      2 C5          1.4070    0.0330    0.0030 ca        1 IPB     -0.093000
      3 C6          2.1040    0.0340    1.2080 ca        1 IPB     -0.164000
      4 C1          1.4160   -0.0310    2.4250 ca        1 IPB     -0.042300
      5 C2          0.0210   -0.0980    2.4180 ca        1 IPB     -0.214000
      6 C3         -0.6730   -0.0990    1.2000 ca        1 IPB      0.128100
      7 C8         -0.7310   -0.0340   -1.3300 c3        1 IPB     -0.019400
      8 C7          2.1560   -0.0140    3.7080 c3        1 IPB     -0.055800
      9 O          -2.0500   -0.1640    1.1580 oh        1 IPB     -0.501100
     10 C9         -0.4750    1.2470   -2.1020 c3        1 IPB     -0.086100
     11 C10        -0.3570   -1.2420   -2.1680 c3        1 IPB     -0.086100
     12 H5          1.9620    0.0840   -0.9470 ha        1 IPB      0.135000
     13 H6          3.2020    0.0840    1.2050 ha        1 IPB      0.132000
     14 H2         -0.5340   -0.1510    3.3660 ha        1 IPB      0.131000
     15 H8         -1.8380   -0.0920   -1.1120 hc        1 IPB      0.071700
     16 H73         2.3110    1.0430    4.0430 hc        1 IPB      0.045700
     17 H72         1.5900   -0.5550    4.5060 hc        1 IPB      0.045700
     18 H71         3.1580   -0.4960    3.5960 hc        1 IPB      0.045700
     19 H          -2.3730   -0.2040    2.0700 ho        1 IPB      0.418000
     20 H93         0.6080    1.3460   -2.3570 hc        1 IPB      0.034700
     21 H92        -0.7790    2.1340   -1.4960 hc        1 IPB      0.034700
     22 H91        -1.0630    1.2430   -3.0510 hc        1 IPB      0.034700
     23 H103       -0.9450   -1.2440   -3.1170 hc        1 IPB      0.034700
     24 H102        0.7300   -1.2240   -2.4250 hc        1 IPB      0.034700
     25 H101       -0.5740   -2.1840   -1.6110 hc        1 IPB      0.034700
@<TRIPOS>BOND
     1    1    2 ar  
     2    1    6 ar  
     3    1    7 1   
     4    2    3 ar  
     5    2   12 1   
     6    3    4 ar  
     7    3   13 1   
     8    4    5 ar  
     9    4    8 1   
    10    5    6 ar  
    11    5   14 1   
    12    6    9 1   
    13    7   10 1   
    14    7   11 1   
    15    7   15 1   
    16    8   16 1   
    17    8   17 1   
    18    8   18 1   
    19    9   19 1   
    20   10   20 1   
    21   10   21 1   
    22   10   22 1   
    23   11   23 1   
    24   11   24 1   
    25   11   25 1   
@<TRIPOS>SUBSTRUCTURE
     1 IPB         1 TEMP              0 ****  ****    0 ROOT
