@<TRIPOS>MOLECULE
IPC
   47    49     1     0     0
SMALL
bcc


@<TRIPOS>ATOM
      1 N1          0.1220   -0.2100    0.0150 n         1 IPC     -0.344000
      2 C2          1.5400   -0.0990    0.3700 c3        1 IPC      0.118700
      3 C3          1.7810   -0.0020    1.8780 c3        1 IPC     -0.113100
      4 C4          2.3780   -1.2430   -0.2040 c3        1 IPC     -0.113100
      5 C5         -0.6790   -1.1940    0.5790 c         1 IPC      0.688700
      6 O6         -0.1750   -2.2150    1.0990 o         1 IPC     -0.633100
      7 C7         -2.1650   -1.0490    0.5210 ca        1 IPC     -0.128600
      8 C8         -2.9260   -2.0820   -0.0360 ca        1 IPC     -0.088000
      9 C9         -4.3160   -1.9960   -0.0460 ca        1 IPC     -0.148500
     10 C10        -4.9580   -0.8850    0.5130 ca        1 IPC     -0.080300
     11 C11        -4.1900    0.1390    1.0770 ca        1 IPC     -0.148500
     12 C12        -2.7970    0.0650    1.0830 ca        1 IPC     -0.088000
     13 C13        -6.4370   -0.8010    0.5190 c3        1 IPC     -0.046800
     14 C14        -0.4340    0.8720   -0.6980 cc        1 IPC     -0.037400
     15 C15        -0.5370    2.1920   -0.2560 cd        1 IPC     -0.115700
     16 S16        -1.1800    3.1780   -1.4230 ss        1 IPC      0.055200
     17 C17        -1.3680    1.9430   -2.5600 cd        1 IPC     -0.144100
     18 C18        -0.9190    0.7380   -2.0490 cc        1 IPC     -0.114000
     19 C19        -0.1200    2.6930    1.1150 c         1 IPC      0.932200
     20 O20        -0.9280    2.5070    2.0670 o         1 IPC     -0.804800
     21 O21         1.0020    3.2550    1.2150 o         1 IPC     -0.804800
     22 C22        -1.9210    2.1650   -3.8700 ca        1 IPC      0.048000
     23 C23        -1.7780    1.2110   -4.8920 ca        1 IPC     -0.140000
     24 C24        -2.3190    1.4400   -6.1550 ca        1 IPC     -0.127500
     25 C25        -3.0090    2.6210   -6.4230 ca        1 IPC     -0.158000
     26 C26        -3.1550    3.5770   -5.4180 ca        1 IPC     -0.127500
     27 C27        -2.6190    3.3530   -4.1530 ca        1 IPC     -0.140000
     28 H2          1.9060    0.8730   -0.0860 h1        1 IPC      0.078700
     29 H31         1.4070   -0.9130    2.4020 hc        1 IPC      0.043367
     30 H32         2.8770    0.0990    2.0600 hc        1 IPC      0.043367
     31 H33         1.2640    0.9040    2.2870 hc        1 IPC      0.043367
     32 H41         2.2670   -1.3040   -1.3120 hc        1 IPC      0.043367
     33 H42         2.0680   -2.2180    0.2440 hc        1 IPC      0.043367
     34 H43         3.4510   -1.0560    0.0380 hc        1 IPC      0.043367
     35 H8         -2.4200   -2.9640   -0.4570 ha        1 IPC      0.173500
     36 H9         -4.9110   -2.8050   -0.4920 ha        1 IPC      0.124000
     37 H11        -4.6840    1.0170    1.5190 ha        1 IPC      0.124000
     38 H12        -2.1930    0.8910    1.5220 ha        1 IPC      0.173500
     39 H131       -6.8750   -1.3660   -0.3400 hc        1 IPC      0.035033
     40 H132       -6.8410   -1.2380    1.4670 hc        1 IPC      0.035033
     41 H133       -6.7760    0.2620    0.4530 hc        1 IPC      0.035033
     42 H18        -0.9330   -0.2150   -2.5810 ha        1 IPC      0.143000
     43 H23        -1.2310    0.2790   -4.6910 ha        1 IPC      0.134000
     44 H24        -2.2000    0.6830   -6.9430 ha        1 IPC      0.118500
     45 H25        -3.4340    2.7990   -7.4200 ha        1 IPC      0.117000
     46 H26        -3.6980    4.5110   -5.6230 ha        1 IPC      0.118500
     47 H27        -2.7410    4.1090   -3.3620 ha        1 IPC      0.134000
@<TRIPOS>BOND
     1    1    2 1   
     2    1    5 1   
     3    1   14 1   
     4    2    3 1   
     5    2    4 1   
     6    2   28 1   
     7    3   29 1   
     8    3   30 1   
     9    3   31 1   
    10    4   32 1   
    11    4   33 1   
    12    4   34 1   
    13    5    6 2   
    14    5    7 1   
    15    7    8 ar  
    16    7   12 ar  
    17    8    9 ar  
    18    8   35 1   
    19    9   10 ar  
    20    9   36 1   
    21   10   11 ar  
    22   10   13 1   
    23   11   12 ar  
    24   11   37 1   
    25   12   38 1   
    26   13   39 1   
    27   13   40 1   
    28   13   41 1   
    29   14   15 2   
    30   14   18 1   
    31   15   16 1   
    32   15   19 1   
    33   16   17 1   
    34   17   18 2   
    35   17   22 1   
    36   18   42 1   
    37   19   20 1   
    38   19   21 1   
    39   22   23 ar  
    40   22   27 ar  
    41   23   24 ar  
    42   23   43 1   
    43   24   25 ar  
    44   24   44 1   
    45   25   26 ar  
    46   25   45 1   
    47   26   27 ar  
    48   26   46 1   
    49   27   47 1   
@<TRIPOS>SUBSTRUCTURE
     1 IPC         1 TEMP              0 ****  ****    0 ROOT
