@<TRIPOS>MOLECULE
IPC
   47    49     1     0     0
SMALL
bcc


@<TRIPOS>ATOM
      1 N1          1.8320    0.4940   -1.1960 n         1 IPC     -0.344000
      2 C2          3.2160    0.1230   -1.5020 c3        1 IPC      0.118700
      3 C3          3.3850   -0.4900   -2.8930 c3        1 IPC     -0.113100
      4 C4          4.1850    1.2960   -1.3450 c3        1 IPC     -0.113100
      5 C5          1.1090    1.3170   -2.0490 c         1 IPC      0.688700
      6 O6          1.6890    2.0500   -2.8810 o         1 IPC     -0.633100
      7 C7         -0.3810    1.3590   -1.9370 ca        1 IPC     -0.128600
      8 C8         -1.0120    2.5920   -1.7490 ca        1 IPC     -0.088000
      9 C9         -2.4020    2.6630   -1.7030 ca        1 IPC     -0.148500
     10 C10        -3.1740    1.5050   -1.8570 ca        1 IPC     -0.080300
     11 C11        -2.5330    0.2770   -2.0550 ca        1 IPC     -0.148500
     12 C12        -1.1420    0.1960   -2.0930 ca        1 IPC     -0.088000
     13 C13        -4.6520    1.5790   -1.8250 c3        1 IPC     -0.046800
     14 C14         1.2020   -0.2270   -0.1600 cc        1 IPC     -0.037400
     15 C15         0.9510   -1.6010   -0.1400 cd        1 IPC     -0.115700
     16 S16         0.2630   -2.0740    1.2920 ss        1 IPC      0.055200
     17 C17         0.2450   -0.5220    1.9570 cd        1 IPC     -0.144100
     18 C18         0.7890    0.3940    1.0720 cc        1 IPC     -0.114000
     19 C19         1.2600   -2.5660   -1.2700 c         1 IPC      0.932200
     20 O20         0.4370   -2.6190   -2.2240 o         1 IPC     -0.804800
     21 O21         2.3160   -3.2460   -1.1850 o         1 IPC     -0.804800
     22 C22        -0.2740   -0.2400    3.2700 ca        1 IPC      0.048000
     23 C23        -0.0000    0.9780    3.9150 ca        1 IPC     -0.140000
     24 C24        -0.5090    1.2360    5.1860 ca        1 IPC     -0.127500
     25 C25        -1.2950    0.2870    5.8370 ca        1 IPC     -0.158000
     26 C26        -1.5710   -0.9270    5.2080 ca        1 IPC     -0.127500
     27 C27        -1.0680   -1.1900    3.9370 ca        1 IPC     -0.140000
     28 H2          3.5040   -0.6770   -0.7510 h1        1 IPC      0.078700
     29 H31         2.7650   -1.4210   -2.9760 hc        1 IPC      0.043367
     30 H32         3.0810    0.2310   -3.6880 hc        1 IPC      0.043367
     31 H33         4.4570   -0.7610   -3.0380 hc        1 IPC      0.043367
     32 H41         4.1260    1.7300   -0.3190 hc        1 IPC      0.043367
     33 H42         5.2240    0.9270   -1.5170 hc        1 IPC      0.043367
     34 H43         3.9550    2.0970   -2.0890 hc        1 IPC      0.043367
     35 H8         -0.4050    3.5030   -1.6480 ha        1 IPC      0.173500
     36 H9         -2.8960    3.6320   -1.5470 ha        1 IPC      0.124000
     37 H11        -3.1300   -0.6400   -2.1770 ha        1 IPC      0.124000
     38 H12        -0.6410   -0.7880   -2.2370 ha        1 IPC      0.173500
     39 H131       -5.0870    0.6610   -1.3580 hc        1 IPC      0.035033
     40 H132       -4.9990    2.4690   -1.2440 hc        1 IPC      0.035033
     41 H133       -5.0530    1.6640   -2.8670 hc        1 IPC      0.035033
     42 H18         0.8890    1.4650    1.2590 ha        1 IPC      0.143000
     43 H23         0.6240    1.7310    3.4120 ha        1 IPC      0.134000
     44 H24        -0.2870    2.1940    5.6770 ha        1 IPC      0.118500
     45 H25        -1.6940    0.4930    6.8390 ha        1 IPC      0.117000
     46 H26        -2.1910   -1.6800    5.7150 ha        1 IPC      0.118500
     47 H27        -1.2930   -2.1480    3.4440 ha        1 IPC      0.134000
@<TRIPOS>BOND
     1    1    2 1   
     2    1    5 1   
     3    1   14 1   
     4    2    3 1   
     5    2    4 1   
     6    2   28 1   
     7    3   29 1   
     8    3   30 1   
     9    3   31 1   
    10    4   32 1   
    11    4   33 1   
    12    4   34 1   
    13    5    6 2   
    14    5    7 1   
    15    7    8 ar  
    16    7   12 ar  
    17    8    9 ar  
    18    8   35 1   
    19    9   10 ar  
    20    9   36 1   
    21   10   11 ar  
    22   10   13 1   
    23   11   12 ar  
    24   11   37 1   
    25   12   38 1   
    26   13   39 1   
    27   13   40 1   
    28   13   41 1   
    29   14   15 2   
    30   14   18 1   
    31   15   16 1   
    32   15   19 1   
    33   16   17 1   
    34   17   18 2   
    35   17   22 1   
    36   18   42 1   
    37   19   20 1   
    38   19   21 1   
    39   22   23 ar  
    40   22   27 ar  
    41   23   24 ar  
    42   23   43 1   
    43   24   25 ar  
    44   24   44 1   
    45   25   26 ar  
    46   25   45 1   
    47   26   27 ar  
    48   26   46 1   
    49   27   47 1   
@<TRIPOS>SUBSTRUCTURE
     1 IPC         1 TEMP              0 ****  ****    0 ROOT
