@<TRIPOS>MOLECULE
IPC
   48    50     1     0     0
SMALL
bcc


@<TRIPOS>ATOM
      1 N1          0.0060    0.0570    0.1950 n         1 IPC     -0.394000
      2 C2          1.4380   -0.1370   -0.0640 c3        1 IPC      0.111700
      3 C3          2.2860   -0.0490    1.2060 c3        1 IPC     -0.113600
      4 C4          1.7570   -1.4510   -0.7790 c3        1 IPC     -0.113600
      5 C5         -0.7140   -0.8850    0.9480 c         1 IPC      0.688700
      6 O6         -0.1040   -1.7410    1.6130 o         1 IPC     -0.577100
      7 C7         -2.2020   -0.8140    0.9690 ca        1 IPC     -0.146600
      8 C8         -2.9490   -0.9910   -0.1980 ca        1 IPC     -0.083000
      9 C9         -4.3410   -0.9940   -0.1380 ca        1 IPC     -0.136000
     10 C10        -4.9990   -0.8130    1.0850 ca        1 IPC     -0.052300
     11 C11        -4.2420   -0.6390    2.2500 ca        1 IPC     -0.136000
     12 C12        -2.8510   -0.6460    2.1970 ca        1 IPC     -0.083000
     13 C13        -6.4780   -0.7920    1.1470 c3        1 IPC     -0.058800
     14 C14        -0.6480    0.9770   -0.6460 cc        1 IPC      0.055600
     15 C15        -1.2080    2.2010   -0.2440 cd        1 IPC     -0.245700
     16 S16        -1.8800    3.0180   -1.5300 ss        1 IPC      0.182200
     17 C17        -1.4500    1.8660   -2.6560 cd        1 IPC     -0.063100
     18 C18        -0.7910    0.7980   -2.0650 cc        1 IPC     -0.175000
     19 C19        -1.2590    2.7370    1.1130 c         1 IPC      0.679700
     20 O20        -2.2090    3.3210    1.6390 o         1 IPC     -0.492000
     21 O21        -0.1640    2.6510    1.9210 oh        1 IPC     -0.569100
     22 C22        -1.7450    1.9990   -4.0650 ca        1 IPC     -0.022000
     23 C23        -0.9190    1.4000   -5.0270 ca        1 IPC     -0.115500
     24 C24        -1.2080    1.5350   -6.3830 ca        1 IPC     -0.125500
     25 C25        -2.3200    2.2690   -6.7940 ca        1 IPC     -0.119000
     26 C26        -3.1470    2.8690   -5.8430 ca        1 IPC     -0.125500
     27 C27        -2.8640    2.7360   -4.4860 ca        1 IPC     -0.115500
     28 H2          1.7540    0.7120   -0.7460 h1        1 IPC      0.050700
     29 H31         3.3630   -0.1130    0.9180 hc        1 IPC      0.049700
     30 H32         2.1200    0.9150    1.7420 hc        1 IPC      0.049700
     31 H33         2.0460   -0.8900    1.9020 hc        1 IPC      0.049700
     32 H41         2.8530   -1.4920   -0.9870 hc        1 IPC      0.049700
     33 H42         1.4790   -2.3240   -0.1390 hc        1 IPC      0.049700
     34 H43         1.2070   -1.5220   -1.7480 hc        1 IPC      0.049700
     35 H8         -2.4400   -1.1260   -1.1650 ha        1 IPC      0.143500
     36 H9         -4.9260   -1.1380   -1.0580 ha        1 IPC      0.137500
     37 H11        -4.7510   -0.4970    3.2160 ha        1 IPC      0.137500
     38 H12        -2.2580   -0.5240    3.1180 ha        1 IPC      0.143500
     39 H131       -6.8430   -1.2900    2.0800 hc        1 IPC      0.048033
     40 H132       -6.9270   -1.3150    0.2680 hc        1 IPC      0.048033
     41 H133       -6.8430    0.2670    1.1510 hc        1 IPC      0.048033
     42 H18        -0.4240   -0.0840   -2.5970 ha        1 IPC      0.166000
     43 H23        -0.0370    0.8250   -4.7070 ha        1 IPC      0.136000
     44 H24        -0.5540    1.0620   -7.1310 ha        1 IPC      0.137500
     45 H25        -2.5470    2.3750   -7.8660 ha        1 IPC      0.137000
     46 H26        -4.0260    3.4470   -6.1640 ha        1 IPC      0.137500
     47 H27        -3.5230    3.2050   -3.7390 ha        1 IPC      0.136000
     48 H111        0.5560    2.1880    1.4700 ho        1 IPC      0.439000
@<TRIPOS>BOND
     1    1    2 1   
     2    1    5 1   
     3    1   14 1   
     4    2    3 1   
     5    2    4 1   
     6    2   28 1   
     7    3   29 1   
     8    3   30 1   
     9    3   31 1   
    10    4   32 1   
    11    4   33 1   
    12    4   34 1   
    13    5    6 2   
    14    5    7 1   
    15    7    8 ar  
    16    7   12 ar  
    17    8    9 ar  
    18    8   35 1   
    19    9   10 ar  
    20    9   36 1   
    21   10   11 ar  
    22   10   13 1   
    23   11   12 ar  
    24   11   37 1   
    25   12   38 1   
    26   13   39 1   
    27   13   40 1   
    28   13   41 1   
    29   14   15 2   
    30   14   18 1   
    31   15   16 1   
    32   15   19 1   
    33   16   17 1   
    34   17   18 2   
    35   17   22 1   
    36   18   42 1   
    37   19   20 2   
    38   19   21 1   
    39   21   48 1   
    40   22   23 ar  
    41   22   27 ar  
    42   23   24 ar  
    43   23   43 1   
    44   24   25 ar  
    45   24   44 1   
    46   25   26 ar  
    47   25   45 1   
    48   26   27 ar  
    49   26   46 1   
    50   27   47 1   
@<TRIPOS>SUBSTRUCTURE
     1 IPC         1 TEMP              0 ****  ****    0 ROOT
