@<TRIPOS>MOLECULE
IPC
   47    49     1     0     0
SMALL
bcc


@<TRIPOS>ATOM
      1 N1          0.1350   -0.1830    0.0130 n         1 IPC     -0.344000
      2 C2          1.5530   -0.0540    0.3560 c3        1 IPC      0.118700
      3 C3          1.8040    0.0650    1.8610 c3        1 IPC     -0.113100
      4 C4          2.3980   -1.1970   -0.2090 c3        1 IPC     -0.113100
      5 C5         -0.6530   -1.1680    0.5940 c         1 IPC      0.688700
      6 O6         -0.1360   -2.1770    1.1230 o         1 IPC     -0.633100
      7 C7         -2.1410   -1.0390    0.5430 ca        1 IPC     -0.128600
      8 C8         -2.8950   -2.0860    0.0040 ca        1 IPC     -0.088000
      9 C9         -4.2850   -2.0150    0.0020 ca        1 IPC     -0.148500
     10 C10        -4.9360   -0.9030    0.5510 ca        1 IPC     -0.080300
     11 C11        -4.1740    0.1350    1.0980 ca        1 IPC     -0.148500
     12 C12        -2.7800    0.0760    1.0950 ca        1 IPC     -0.088000
     13 C13        -6.4150   -0.8310    0.5660 c3        1 IPC     -0.046800
     14 C14        -0.4370    0.8840   -0.7110 cc        1 IPC     -0.037400
     15 C15        -0.5510    2.2090   -0.2840 cd        1 IPC     -0.115700
     16 S16        -1.2110    3.1740   -1.4590 ss        1 IPC      0.055200
     17 C17        -1.3930    1.9240   -2.5790 cd        1 IPC     -0.144100
     18 C18        -0.9290    0.7290   -2.0560 cc        1 IPC     -0.114000
     19 C19        -0.1300    2.7310    1.0790 c         1 IPC      0.932200
     20 O20        -0.9290    2.5480    2.0380 o         1 IPC     -0.804800
     21 O21         0.9870    3.3050    1.1650 o         1 IPC     -0.804800
     22 C22        -1.9570    2.1240   -3.8880 ca        1 IPC      0.048000
     23 C23        -1.8160    1.1570   -4.8980 ca        1 IPC     -0.140000
     24 C24        -2.3680    1.3650   -6.1600 ca        1 IPC     -0.127500
     25 C25        -3.0660    2.5390   -6.4400 ca        1 IPC     -0.158000
     26 C26        -3.2100    3.5070   -5.4460 ca        1 IPC     -0.127500
     27 C27        -2.6640    3.3040   -4.1830 ca        1 IPC     -0.140000
     28 H2          1.9070    0.9150   -0.1150 h1        1 IPC      0.078700
     29 H31         2.9000    0.1780    2.0340 hc        1 IPC      0.043367
     30 H32         1.4420   -0.8430    2.3990 hc        1 IPC      0.043367
     31 H33         1.2800    0.9710    2.2630 hc        1 IPC      0.043367
     32 H41         2.2810   -1.2730   -1.3160 hc        1 IPC      0.043367
     33 H42         2.1020   -2.1690    0.2530 hc        1 IPC      0.043367
     34 H43         3.4720   -0.9960    0.0220 hc        1 IPC      0.043367
     35 H8         -2.3820   -2.9680   -0.4090 ha        1 IPC      0.173500
     36 H9         -4.8750   -2.8350   -0.4300 ha        1 IPC      0.124000
     37 H11        -4.6750    1.0140    1.5310 ha        1 IPC      0.124000
     38 H12        -2.1830    0.9130    1.5200 ha        1 IPC      0.173500
     39 H131       -6.7630    0.2210    0.4210 hc        1 IPC      0.035033
     40 H132       -6.8580   -1.4640   -0.2420 hc        1 IPC      0.035033
     41 H133       -6.8050   -1.1960    1.5490 hc        1 IPC      0.035033
     42 H18        -0.9380   -0.2310   -2.5770 ha        1 IPC      0.143000
     43 H23        -1.2620    0.2310   -4.6880 ha        1 IPC      0.134000
     44 H24        -2.2490    0.5990   -6.9390 ha        1 IPC      0.118500
     45 H25        -3.4990    2.7010   -7.4360 ha        1 IPC      0.117000
     46 H26        -3.7600    4.4360   -5.6600 ha        1 IPC      0.118500
     47 H27        -2.7850    4.0710   -3.4010 ha        1 IPC      0.134000
@<TRIPOS>BOND
     1    1    2 1   
     2    1    5 1   
     3    1   14 1   
     4    2    3 1   
     5    2    4 1   
     6    2   28 1   
     7    3   29 1   
     8    3   30 1   
     9    3   31 1   
    10    4   32 1   
    11    4   33 1   
    12    4   34 1   
    13    5    6 2   
    14    5    7 1   
    15    7    8 ar  
    16    7   12 ar  
    17    8    9 ar  
    18    8   35 1   
    19    9   10 ar  
    20    9   36 1   
    21   10   11 ar  
    22   10   13 1   
    23   11   12 ar  
    24   11   37 1   
    25   12   38 1   
    26   13   39 1   
    27   13   40 1   
    28   13   41 1   
    29   14   15 2   
    30   14   18 1   
    31   15   16 1   
    32   15   19 1   
    33   16   17 1   
    34   17   18 2   
    35   17   22 1   
    36   18   42 1   
    37   19   20 1   
    38   19   21 1   
    39   22   23 ar  
    40   22   27 ar  
    41   23   24 ar  
    42   23   43 1   
    43   24   25 ar  
    44   24   44 1   
    45   25   26 ar  
    46   25   45 1   
    47   26   27 ar  
    48   26   46 1   
    49   27   47 1   
@<TRIPOS>SUBSTRUCTURE
     1 IPC         1 TEMP              0 ****  ****    0 ROOT
