@<TRIPOS>MOLECULE
IPD
   27    27     1     0     0
SMALL
bcc


@<TRIPOS>ATOM
      1 C1         -0.1160   -0.1110    0.0160 c3        1 IPD      0.173100
      2 C2          0.7060   -1.4160    0.2110 c3        1 IPD      0.116100
      3 C3          2.0400   -1.3410   -0.5420 c3        1 IPD      0.120100
      4 C4          2.8610   -0.1260   -0.0870 c3        1 IPD      0.103100
      5 C5          2.0500    1.1460   -0.3530 c3        1 IPD      0.120100
      6 C6          0.7450    1.0990    0.4610 c3        1 IPD      0.116100
      7 O1         -1.2400   -0.1890    0.7970 os        1 IPD     -0.559200
      8 O2          0.9540   -1.6580    1.5890 oh        1 IPD     -0.672800
      9 O3          2.7600   -2.5490   -0.3360 oh        1 IPD     -0.630800
     10 O4          4.0860   -0.1350   -0.8210 oh        1 IPD     -0.646800
     11 O5          2.8660    2.2580    0.0090 oh        1 IPD     -0.630800
     12 O6          0.1050    2.3390    0.2970 oh        1 IPD     -0.672800
     13 O7         -2.4710    1.5810   -0.3940 o         1 IPD     -0.913500
     14 O8         -2.5390   -0.7980   -1.2650 o         1 IPD     -0.913500
     15 O9         -3.7870   -0.2030    0.9050 o         1 IPD     -0.913500
     16 H1         -0.3840   -0.0040   -1.0760 h1        1 IPD      0.070700
     17 H2          0.1110   -2.2810   -0.1960 h1        1 IPD      0.045700
     18 H3          1.8190   -1.2420   -1.6440 h1        1 IPD      0.042700
     19 H4          3.1030   -0.2160    1.0080 h1        1 IPD      0.060700
     20 H5          1.8200    1.2390   -1.4510 h1        1 IPD      0.042700
     21 H6          1.0040    0.9870    1.5530 h1        1 IPD      0.045700
     22 HO2         0.1640   -1.3260    2.0480 ho        1 IPD      0.475000
     23 HO3         3.6510   -2.3890   -0.6670 ho        1 IPD      0.408000
     24 HO4         4.4310    0.7640   -0.7800 ho        1 IPD      0.409000
     25 HO5         2.2570    2.9560    0.2850 ho        1 IPD      0.408000
     26 HO6        -0.8610    2.1610    0.0890 ho        1 IPD      0.475000
     27 P1         -2.7190    0.1190   -0.0910 p5        1 IPD      1.319900
@<TRIPOS>BOND
     1    1    2 1   
     2    1    6 1   
     3    1    7 1   
     4    1   16 1   
     5    2    3 1   
     6    2    8 1   
     7    2   17 1   
     8    3    4 1   
     9    3    9 1   
    10    3   18 1   
    11    4    5 1   
    12    4   10 1   
    13    4   19 1   
    14    5    6 1   
    15    5   11 1   
    16    5   20 1   
    17    6   12 1   
    18    6   21 1   
    19    7   27 1   
    20    8   22 1   
    21    9   23 1   
    22   10   24 1   
    23   11   25 1   
    24   12   26 1   
    25   13   27 1   
    26   14   27 1   
    27   15   27 1   
@<TRIPOS>SUBSTRUCTURE
     1 IPD         1 TEMP              0 ****  ****    0 ROOT
