@<TRIPOS>MOLECULE
IPD
   27    25     1     0     0
SMALL
bcc


@<TRIPOS>ATOM
      1 C1          0.1690   -0.0540   -0.4270 c3        1 IPD      0.032000
      2 C2          1.2190   -0.6040   -1.4030 c1        1 IPD     -0.044000
      3 C3          2.7540   -0.2860    1.8030 c3        1 IPD     -0.063000
      4 C4          1.6660   -1.0890    2.5160 c3        1 IPD     -0.034000
      5 C5          0.2520   -0.6100    2.0850 c3        1 IPD      0.148000
      6 C6          0.0010   -1.0300    0.6820 c2        1 IPD     -0.628000
      7 O1         -1.0280    0.2580   -1.1380 oh        1 IPD     -0.402000
      8 O2          1.7210   -1.7480   -1.0770 oh        1 IPD     -0.244000
      9 O3          4.0330   -0.8730    2.0200 oh        1 IPD     -0.369000
     10 O4          1.8010   -0.9420    3.9260 oh        1 IPD     -0.331000
     11 O5         -0.6940   -1.1520    2.9980 oh        1 IPD     -0.352000
     12 O6         -1.0210   -1.9510    0.5340 oh        1 IPD     -0.283000
     13 O7         -3.1590    0.2660   -2.2900 o         1 IPD     -1.150000
     14 O8         -3.0220    2.5130   -1.0680 o         1 IPD     -1.150000
     15 O9         -1.8950    2.2330   -3.3230 o         1 IPD     -1.150000
     16 H1         -1.5040   -0.5700   -1.3170 ho        1 IPD      0.250000
     17 H2          0.5480    0.9430   -0.0630 h1        1 IPD      0.083000
     18 H3          2.5290   -0.2270    0.7050 h1        1 IPD      0.104500
     19 H4          2.8380    0.7440    2.2390 h1        1 IPD      0.104500
     20 H5          1.7720   -2.1800    2.2570 h1        1 IPD      0.065000
     21 H6          0.2000    0.5040    2.2520 h1        1 IPD      0.064000
     22 HO2         1.2890   -2.1230   -0.2310 ho        1 IPD      0.221000
     23 HO3         4.0290   -1.7120    1.5460 ho        1 IPD      0.191000
     24 HO4         2.7350   -1.0920    4.1160 ho        1 IPD      0.167000
     25 HO5        -0.9440   -2.0210    2.6570 ho        1 IPD      0.197000
     26 HO6        -1.8630   -1.4670    0.6190 ho        1 IPD      0.127000
     27 P1         -2.5840    1.6250   -2.1650 p3        1 IPD      2.447000
@<TRIPOS>BOND
     1    1    2 1   
     2    1    6 1   
     3    1    7 1   
     4    1   17 1   
     5    2    8 1   
     6    3    4 1   
     7    3    9 1   
     8    3   18 1   
     9    3   19 1   
    10    4    5 1   
    11    4   10 1   
    12    4   20 1   
    13    5    6 1   
    14    5   11 1   
    15    5   21 1   
    16    6   12 1   
    17    7   16 1   
    18    8   22 1   
    19    9   23 1   
    20   10   24 1   
    21   11   25 1   
    22   12   26 1   
    23   13   27 1   
    24   14   27 1   
    25   15   27 1   
@<TRIPOS>SUBSTRUCTURE
     1 IPD         1 TEMP              0 ****  ****    0 ROOT
