@<TRIPOS>MOLECULE
IPD
   27    26     1     0     0
SMALL
bcc


@<TRIPOS>ATOM
      1 C1          0.0040   -0.7350   -0.2150 c3        1 IPD     -0.004000
      2 C2          1.4820   -0.3400   -0.0390 c3        1 IPD     -0.008000
      3 C3          1.8410    0.0370    1.4090 c3        1 IPD     -0.004000
      4 C4          1.5980   -1.1600    2.3580 c3        1 IPD      0.147000
      5 C5          0.4680   -1.9590    1.8960 c2        1 IPD     -0.701000
      6 C6         -0.5860   -1.3900    1.0620 c3        1 IPD      0.147000
      7 O1         -0.7360    0.3780   -0.6890 oh        1 IPD     -0.382000
      8 O2          2.3250   -1.4120   -0.4540 oh        1 IPD     -0.368000
      9 O3          3.1980    0.4600    1.4670 oh        1 IPD     -0.382000
     10 O4          1.4100   -0.6240    3.6830 oh        1 IPD     -0.393500
     11 O5          0.3610   -3.2600    2.3260 oh        1 IPD     -0.240000
     12 O6         -1.3750   -0.4020    1.7420 oh        1 IPD     -0.393500
     13 O7         -2.0060    2.3710   -1.1600 o         1 IPD     -1.149000
     14 O8         -0.2730    2.1680   -3.0300 o         1 IPD     -1.149000
     15 O9         -2.4020    0.7830   -3.1300 o         1 IPD     -1.149000
     16 H1         -1.1740    0.8360    0.0520 ho        1 IPD      0.228000
     17 H2         -0.0450   -1.4860   -1.0560 h1        1 IPD      0.103000
     18 H3          1.7380    0.5090   -0.7330 h1        1 IPD      0.127000
     19 H4          1.2470    0.9300    1.7400 h1        1 IPD      0.103000
     20 H5          2.5460   -1.7710    2.4350 h1        1 IPD      0.057000
     21 H6         -1.3390   -2.1670    0.7520 h1        1 IPD      0.057000
     22 HO2         2.0500   -2.1790    0.0700 ho        1 IPD      0.214000
     23 HO3         3.7130   -0.2400    1.0460 ho        1 IPD      0.228000
     24 HO4         0.5540   -0.9490    3.9820 ho        1 IPD      0.193000
     25 HO5         0.8150   -3.8020    1.6540 ho        1 IPD      0.083000
     26 HO6        -0.8010    0.0070    2.3980 ho        1 IPD      0.193000
     27 P1         -1.5090    1.6890   -2.3770 p3        1 IPD      2.442000
@<TRIPOS>BOND
     1    1    2 1   
     2    1    6 1   
     3    1    7 1   
     4    1   17 1   
     5    2    3 1   
     6    2    8 1   
     7    2   18 1   
     8    3    4 1   
     9    3    9 1   
    10    3   19 1   
    11    4    5 1   
    12    4   10 1   
    13    4   20 1   
    14    5    6 1   
    15    5   11 1   
    16    6   12 1   
    17    6   21 1   
    18    7   16 1   
    19    8   22 1   
    20    9   23 1   
    21   10   24 1   
    22   11   25 1   
    23   12   26 1   
    24   13   27 1   
    25   14   27 1   
    26   15   27 1   
@<TRIPOS>SUBSTRUCTURE
     1 IPD         1 TEMP              0 ****  ****    0 ROOT
