@<TRIPOS>MOLECULE
IPE
   23    21     1     0     0
SMALL
bcc


@<TRIPOS>ATOM
      1 C1         -0.3150   -0.0800    0.0360 c3        1 IPE      0.154000
      2 O1          1.0910    0.0120    0.0560 os        1 IPE     -0.713000
      3 C2         -0.8360   -0.1530    1.4540 c3        1 IPE     -0.214000
      4 C3         -2.3160   -0.4650    1.4320 c2        1 IPE      0.026000
      5 C4         -2.7360   -1.7250    1.2060 c1        1 IPE     -0.395000
      6 C5         -3.3250    0.6390    1.6640 c3        1 IPE     -0.245000
      7 PA          1.8480    0.2780   -1.3060 p5        1 IPE      2.075000
      8 O1A         1.5230    1.6680   -1.7990 o         1 IPE     -0.943000
      9 O2A         1.4070   -0.7360   -2.3340 o         1 IPE     -0.943000
     10 O3A         3.4060    0.1510   -1.0760 os        1 IPE     -1.196000
     11 PB          4.4860    0.5280   -2.1660 p5        1 IPE      1.613500
     12 O1B         4.7890    2.0060   -2.0850 o         1 IPE     -0.924833
     13 O2B         3.9510    0.1990   -3.5390 o         1 IPE     -0.924833
     14 O3B         5.7500   -0.2590   -1.9170 o         1 IPE     -0.924833
     15 H11        -0.5830   -0.8860   -0.4520 h1        1 IPE     -0.007000
     16 H12        -0.6870    0.7100   -0.4080 h1        1 IPE     -0.007000
     17 H21        -0.6900    0.7050    1.9000 hc        1 IPE      0.064000
     18 H22        -0.3610   -0.8580    1.9400 hc        1 IPE      0.064000
     19 H41        -2.0840   -2.4380    1.0560 DU        1 IPE      0.071000
     20 H42        -3.6930   -1.9260    1.1920 ha        1 IPE      0.056000
     21 H51        -3.8430    0.4430    2.4730 hc        1 IPE      0.103667
     22 H52        -2.8560    1.4920    1.7750 hc        1 IPE      0.103667
     23 H53        -3.9290    0.6960    0.8950 hc        1 IPE      0.103667
@<TRIPOS>BOND
     1    1    2 1   
     2    1    3 1   
     3    1   15 1   
     4    1   16 1   
     5    2    7 1   
     6    3    4 1   
     7    3   17 1   
     8    3   18 1   
     9    4    5 1   
    10    4    6 1   
    11    5   20 1   
    12    6   21 1   
    13    6   22 1   
    14    6   23 1   
    15    7    8 1   
    16    7    9 1   
    17    7   10 1   
    18   10   11 1   
    19   11   12 1   
    20   11   13 1   
    21   11   14 1   
@<TRIPOS>SUBSTRUCTURE
     1 IPE         1 TEMP              0 ****  ****    0 ROOT
