@<TRIPOS>MOLECULE
IPG
   18    17     1     0     0
SMALL
bcc


@<TRIPOS>ATOM
      1 N           0.6300   -0.5610    0.5900 n3        1 IPG     -0.807200
      2 CA         -0.1780   -0.8570   -0.5790 c3        1 IPG      0.024800
      3 C          -0.7060    0.3510   -1.3940 c         1 IPG      0.883600
      4 O          -0.1590    1.4810   -1.2300 o         1 IPG     -0.849300
      5 CN         -0.1400   -0.3160    1.8080 c3        1 IPG      0.173500
      6 CG1         0.7370   -0.4830    3.0530 c3        1 IPG     -0.105600
      7 CG2        -0.8270    1.0490    1.8850 c3        1 IPG     -0.105600
      8 OXT        -1.6570    0.1310   -2.1950 o         1 IPG     -0.849300
      9 H           1.1740    0.2640    0.3870 hn        1 IPG      0.363800
     10 HA1         0.4810   -1.4550   -1.2690 h1        1 IPG      0.030700
     11 HA2        -1.0520   -1.5030   -0.2970 h1        1 IPG      0.030700
     12 HCN        -0.9480   -1.1080    1.8600 h1        1 IPG      0.034700
     13 HG11        0.1100   -0.3340    3.9640 hc        1 IPG      0.029033
     14 HG12        1.1850   -1.5040    3.0890 hc        1 IPG      0.029033
     15 HG13        1.5620    0.2680    3.0620 hc        1 IPG      0.029033
     16 HG21       -0.0780    1.8530    2.0780 hc        1 IPG      0.029033
     17 HG22       -1.3360    1.2800    0.9140 hc        1 IPG      0.029033
     18 HG23       -1.5770    1.0530    2.7100 hc        1 IPG      0.029033
@<TRIPOS>BOND
     1    1    2 1   
     2    1    5 1   
     3    1    9 1   
     4    2    3 1   
     5    2   10 1   
     6    2   11 1   
     7    3    4 1   
     8    3    8 1   
     9    5    6 1   
    10    5    7 1   
    11    5   12 1   
    12    6   13 1   
    13    6   14 1   
    14    6   15 1   
    15    7   16 1   
    16    7   17 1   
    17    7   18 1   
@<TRIPOS>SUBSTRUCTURE
     1 IPG         1 TEMP              0 ****  ****    0 ROOT
