@<TRIPOS>MOLECULE
IPH
   13    13     1     0     0
SMALL
bcc


@<TRIPOS>ATOM
      1 C1          0.1000    0.1320    0.9040 ca        1 IPH      0.123100
      2 C2          1.2960    0.0350    0.1720 ca        1 IPH     -0.185000
      3 C3          1.2290   -0.0510   -1.2150 ca        1 IPH     -0.094500
      4 C4         -0.0040   -0.0420   -1.8690 ca        1 IPH     -0.166000
      5 C5         -1.1840    0.0540   -1.1330 ca        1 IPH     -0.094500
      6 C6         -1.1430    0.1420    0.2570 ca        1 IPH     -0.185000
      7 O1          0.2250    0.2140    2.2730 oh        1 IPH     -0.499100
      8 H2          2.2580    0.0300    0.7020 ha        1 IPH      0.141500
      9 H3          2.1590   -0.1260   -1.7990 ha        1 IPH      0.133000
     10 H4         -0.0440   -0.1100   -2.9660 ha        1 IPH      0.133000
     11 H5         -2.1560    0.0610   -1.6490 ha        1 IPH      0.133000
     12 H6         -2.0710    0.2170    0.8400 ha        1 IPH      0.141500
     13 HO1        -0.6640    0.2750    2.6500 ho        1 IPH      0.418000
@<TRIPOS>BOND
     1    1    2 ar  
     2    1    6 ar  
     3    1    7 1   
     4    2    3 ar  
     5    2    8 1   
     6    3    4 ar  
     7    3    9 1   
     8    4    5 ar  
     9    4   10 1   
    10    5    6 ar  
    11    5   11 1   
    12    6   12 1   
    13    7   13 1   
@<TRIPOS>SUBSTRUCTURE
     1 IPH         1 TEMP              0 ****  ****    0 ROOT
