@<TRIPOS>MOLECULE
IPH
   13    13     1     0     0
SMALL
bcc


@<TRIPOS>ATOM
      1 C1          0.0910   -0.1450   -0.0450 ca        1 IPH      0.123100
      2 C2          1.4920   -0.0380   -0.0100 ca        1 IPH     -0.185000
      3 C3          2.1270    0.0610    1.2240 ca        1 IPH     -0.094500
      4 C4          1.3870    0.0540    2.4080 ca        1 IPH     -0.166000
      5 C5         -0.0020   -0.0530    2.3620 ca        1 IPH     -0.094500
      6 C6         -0.6610   -0.1540    1.1380 ca        1 IPH     -0.185000
      7 O1         -0.4850   -0.2400   -1.2920 oh        1 IPH     -0.499100
      8 H2          2.0600   -0.0340   -0.9500 ha        1 IPH      0.141500
      9 H3          3.2240    0.1460    1.2640 ha        1 IPH      0.133000
     10 H4          1.9010    0.1320    3.3770 ha        1 IPH      0.133000
     11 H5         -0.5850   -0.0590    3.2950 ha        1 IPH      0.133000
     12 H6         -1.7560   -0.2380    1.0990 ha        1 IPH      0.141500
     13 HO1        -1.4430   -0.3080   -1.1730 ho        1 IPH      0.418000
@<TRIPOS>BOND
     1    1    2 ar  
     2    1    6 ar  
     3    1    7 1   
     4    2    3 ar  
     5    2    8 1   
     6    3    4 ar  
     7    3    9 1   
     8    4    5 ar  
     9    4   10 1   
    10    5    6 ar  
    11    5   11 1   
    12    6   12 1   
    13    7   13 1   
@<TRIPOS>SUBSTRUCTURE
     1 IPH         1 TEMP              0 ****  ****    0 ROOT
