@<TRIPOS>MOLECULE
IPI
   20    19     1     0     0
SMALL
bcc


@<TRIPOS>ATOM
      1 P          -1.4960    0.1660   -0.0270 p5        1 IPI      1.217700
      2 O1         -2.5620   -0.6200    0.7040 o         1 IPI     -0.962167
      3 O2         -1.4350    1.6370    0.3300 o         1 IPI     -0.962167
      4 C5          0.0530   -0.5020    0.6440 c3        1 IPI     -0.274600
      5 C4          1.1060    0.2750   -0.0590 c3        1 IPI     -0.052400
      6 C2          2.5390   -0.0590    0.3540 c3        1 IPI     -0.072700
      7 C3          2.9580   -1.4130   -0.1750 c3        1 IPI     -0.075100
      8 C1          3.5000    1.0100   -0.1240 c3        1 IPI     -0.075100
      9 OXT        -1.3970   -0.1240   -1.5100 o         1 IPI     -0.962167
     10 H51C        0.0660   -0.3490    1.7410 hc        1 IPI      0.009700
     11 H52C        0.0970   -1.5880    0.4270 hc        1 IPI      0.009700
     12 H41C        0.9750    0.1130   -1.1630 hc        1 IPI      0.062200
     13 H42C        0.9030    1.3650    0.1390 hc        1 IPI      0.062200
     14 HA          2.5780   -0.0910    1.4800 hc        1 IPI      0.020700
     15 H31C        3.9770   -1.6910    0.1940 hc        1 IPI      0.008533
     16 H32C        2.2260   -2.1870    0.1590 hc        1 IPI      0.008533
     17 H33C        2.9780   -1.4070   -1.2910 hc        1 IPI      0.008533
     18 H11C        3.2280    1.9980    0.3200 hc        1 IPI      0.008533
     19 H12C        4.5510    0.7660    0.1670 hc        1 IPI      0.008533
     20 H13C        3.4540    1.1020   -1.2360 hc        1 IPI      0.008533
@<TRIPOS>BOND
     1    1    2 1   
     2    1    3 1   
     3    1    4 1   
     4    1    9 1   
     5    4    5 1   
     6    4   10 1   
     7    4   11 1   
     8    5    6 1   
     9    5   12 1   
    10    5   13 1   
    11    6    7 1   
    12    6    8 1   
    13    6   14 1   
    14    7   15 1   
    15    7   16 1   
    16    7   17 1   
    17    8   18 1   
    18    8   19 1   
    19    8   20 1   
@<TRIPOS>SUBSTRUCTURE
     1 IPI         1 TEMP              0 ****  ****    0 ROOT
