@<TRIPOS>MOLECULE
IPI
   20    19     1     0     0
SMALL
bcc


@<TRIPOS>ATOM
      1 P          -0.0910    0.0040    0.0630 p5        1 IPI      1.217700
      2 O1          1.4210    0.0200    0.1000 o         1 IPI     -0.962167
      3 O2         -0.7620    0.1830    1.4090 o         1 IPI     -0.962167
      4 C5         -0.5060    1.5310   -0.8290 c3        1 IPI     -0.274600
      5 C4         -1.9910    1.5300   -0.8570 c3        1 IPI     -0.052400
      6 C2         -2.6240    2.7490   -1.5250 c3        1 IPI     -0.072700
      7 C3         -2.4350    2.7110   -3.0250 c3        1 IPI     -0.075100
      8 C1         -4.0980    2.8440   -1.1870 c3        1 IPI     -0.075100
      9 OXT        -0.6940   -1.0870   -0.7980 o         1 IPI     -0.962167
     10 H51C       -0.0870    2.3950   -0.2760 hc        1 IPI      0.009700
     11 H52C       -0.0510    1.4880   -1.8380 hc        1 IPI      0.009700
     12 H41C       -2.3250    0.5890   -1.3740 hc        1 IPI      0.062200
     13 H42C       -2.3450    1.4610    0.2100 hc        1 IPI      0.062200
     14 HA         -2.1110    3.6700   -1.1280 hc        1 IPI      0.020700
     15 H31C       -2.8270    3.6410   -3.5050 hc        1 IPI      0.008533
     16 H32C       -1.3480    2.6100   -3.2620 hc        1 IPI      0.008533
     17 H33C       -2.9710    1.8350   -3.4640 hc        1 IPI      0.008533
     18 H11C       -4.5690    3.7290   -1.6810 hc        1 IPI      0.008533
     19 H12C       -4.2330    2.9390   -0.0830 hc        1 IPI      0.008533
     20 H13C       -4.6330    1.9250   -1.5270 hc        1 IPI      0.008533
@<TRIPOS>BOND
     1    1    2 1   
     2    1    3 1   
     3    1    4 1   
     4    1    9 1   
     5    4    5 1   
     6    4   10 1   
     7    4   11 1   
     8    5    6 1   
     9    5   12 1   
    10    5   13 1   
    11    6    7 1   
    12    6    8 1   
    13    6   14 1   
    14    7   15 1   
    15    7   16 1   
    16    7   17 1   
    17    8   18 1   
    18    8   19 1   
    19    8   20 1   
@<TRIPOS>SUBSTRUCTURE
     1 IPI         1 TEMP              0 ****  ****    0 ROOT
