@<TRIPOS>MOLECULE
IPI
   20    19     1     0     0
SMALL
bcc


@<TRIPOS>ATOM
      1 P          -0.0710    0.0270    0.0650 p5        1 IPI      1.217700
      2 O1          1.4420    0.0470    0.0840 o         1 IPI     -0.962167
      3 O2         -0.7260    0.2220    1.4170 o         1 IPI     -0.962167
      4 C5         -0.5000    1.5400   -0.8420 c3        1 IPI     -0.274600
      5 C4         -1.9860    1.5350   -0.8530 c3        1 IPI     -0.052400
      6 C2         -2.6310    2.7430   -1.5290 c3        1 IPI     -0.072700
      7 C3         -2.4580    2.6860   -3.0310 c3        1 IPI     -0.075100
      8 C1         -4.1000    2.8380   -1.1750 c3        1 IPI     -0.075100
      9 OXT        -0.6810   -1.0770   -0.7740 o         1 IPI     -0.962167
     10 H51C       -0.0780    2.4130   -0.3060 hc        1 IPI      0.009700
     11 H52C       -0.0580    1.4860   -1.8560 hc        1 IPI      0.009700
     12 H41C       -2.3230    0.5870   -1.3540 hc        1 IPI      0.062200
     13 H42C       -2.3270    1.4790    0.2200 hc        1 IPI      0.062200
     14 HA         -2.1160    3.6710   -1.1490 hc        1 IPI      0.020700
     15 H31C       -2.8590    3.6090   -3.5180 hc        1 IPI      0.008533
     16 H32C       -1.3730    2.5860   -3.2780 hc        1 IPI      0.008533
     17 H33C       -2.9960    1.8030   -3.4520 hc        1 IPI      0.008533
     18 H11C       -4.5800    3.7150   -1.6750 hc        1 IPI      0.008533
     19 H12C       -4.2240    2.9460   -0.0710 hc        1 IPI      0.008533
     20 H13C       -4.6360    1.9130   -1.4980 hc        1 IPI      0.008533
@<TRIPOS>BOND
     1    1    2 1   
     2    1    3 1   
     3    1    4 1   
     4    1    9 1   
     5    4    5 1   
     6    4   10 1   
     7    4   11 1   
     8    5    6 1   
     9    5   12 1   
    10    5   13 1   
    11    6    7 1   
    12    6    8 1   
    13    6   14 1   
    14    7   15 1   
    15    7   16 1   
    16    7   17 1   
    17    8   18 1   
    18    8   19 1   
    19    8   20 1   
@<TRIPOS>SUBSTRUCTURE
     1 IPI         1 TEMP              0 ****  ****    0 ROOT
