@<TRIPOS>MOLECULE
IPI
   20    18     1     0     0
SMALL
bcc


@<TRIPOS>ATOM
      1 P           0.3330    1.8640    2.2890 p4        1 IPI      1.586000
      2 O1          1.8430    1.8640    2.2890 os        1 IPI     -1.282000
      3 O2         -0.1710    1.8640    3.7120 o         1 IPI     -0.962000
      4 C5         -0.2730    0.3820    1.4330 c3        1 IPI     -0.274600
      5 C4          0.2310    0.3820    0.0060 c3        1 IPI     -0.052400
      6 C2         -0.2730   -0.8540   -0.7070 c3        1 IPI     -0.072700
      7 C3         -1.1140   -0.4420   -1.8950 c3        1 IPI     -0.075100
      8 C1          0.9040   -1.6770   -1.1820 c3        1 IPI     -0.075100
      9 OXT        -0.1710    3.0970    1.5770 o         1 IPI     -1.010800
     10 H51C       -1.2490    0.3820    1.4330 hc        1 IPI      0.009700
     11 H52C        0.0530   -0.4150    1.8930 hc        1 IPI      0.009700
     12 H41C        1.2080    0.3820    0.0060 hc        1 IPI      0.062200
     13 H42C       -0.0940    1.1790   -0.4540 hc        1 IPI      0.062200
     14 HA         -0.8150   -1.3850   -0.0930 hc        1 IPI      0.020700
     15 H31C       -1.3620   -1.2340   -2.4080 hc        1 IPI      0.008533
     16 H32C       -1.9210    0.0090   -1.5820 hc        1 IPI      0.008533
     17 H33C       -0.6010    0.1650   -2.4620 hc        1 IPI      0.008533
     18 H11C        1.4950   -1.1180   -1.7220 hc        1 IPI      0.008533
     19 H12C        0.5820   -2.4240   -1.7210 hc        1 IPI      0.008533
     20 H13C        1.3940   -2.0200   -0.4110 hc        1 IPI      0.008533
@<TRIPOS>BOND
     1    1    3 1   
     2    1    4 1   
     3    1    9 2   
     4    4    5 1   
     5    4   10 1   
     6    4   11 1   
     7    5    6 1   
     8    5   12 1   
     9    5   13 1   
    10    6    7 1   
    11    6    8 1   
    12    6   14 1   
    13    7   15 1   
    14    7   16 1   
    15    7   17 1   
    16    8   18 1   
    17    8   19 1   
    18    8   20 1   
@<TRIPOS>SUBSTRUCTURE
     1 IPI         1 TEMP              0 ****  ****    0 ROOT
