@<TRIPOS>MOLECULE
IPK
   58    57     1     0     0
SMALL
bcc


@<TRIPOS>ATOM
      1 OAA         0.8490    0.9620    1.9490 o         1 IPK     -0.363000
      2 CAB         8.5110    1.1830   -3.7480 c1        1 IPK     -0.001000
      3 CAC         5.3030    1.8500   -4.6450 c2        1 IPK     -0.199000
      4 CAD         8.9150    0.1050   -4.5780 c2        1 IPK     -0.545000
      5 CAF         4.5390    0.9370   -5.1620 c1        1 IPK     -0.186000
      6 CAG        10.1670   -0.3200   -4.6450 c1        1 IPK      0.308000
      7 CAH         5.2490    1.4440   -0.0860 c2        1 IPK     -0.279000
      8 CAI         3.1490   -2.4060    1.7030 c1        1 IPK     -0.595000
      9 CAJ         3.9520    1.2440    0.1440 c2        1 IPK     -0.015000
     10 CAK         2.6230   -3.0870    0.7660 c1        1 IPK      0.166000
     11 CAN         3.3600   -0.1520   -2.0300 c3        1 IPK     -0.245000
     12 CAO         0.8750   -0.6770   -2.2150 c3        1 IPK     -0.248000
     13 CAP         2.9500    0.7830   -0.8990 c3        1 IPK     -0.059000
     14 CAQ         0.6120    0.0970   -0.9100 c3        1 IPK     -0.136000
     15 CAS         3.6750   -0.3400   -7.0810 c3        1 IPK     -0.171000
     16 SAW         4.3160   -3.9800    3.7800 ss        1 IPK      0.355000
     17 CAX         1.8890    0.9900    1.2870 c2        1 IPK      0.295000
     18 CAY         3.6820   -1.6640    2.6640 c2        1 IPK      0.211000
     19 CAZ         3.7670    0.0060   -5.6480 c2        1 IPK     -0.144000
     20 CBA         3.1950    1.4520    1.3600 c2        1 IPK     -0.479000
     21 CBE         2.2340   -0.7560   -2.7240 c1        1 IPK     -0.046000
     22 NBF         1.8310    0.1660   -0.0940 nx        1 IPK     -0.105000
     23 C21         5.1670   -4.4220    5.1810 c2        1 IPK     -0.140000
     24 C22         6.0930   -5.8650    6.6900 c2        1 IPK     -0.008000
     25 N2          5.2590   -5.8160    5.5230 na        1 IPK     -0.235000
     26 N3          5.7300   -3.6090    6.0680 n2        1 IPK     -0.183000
     27 C23         6.3410   -4.4360    7.0750 c2        1 IPK     -0.049000
     28 N4          7.2100   -7.1370    8.4170 n2        1 IPK     -0.288000
     29 C24         6.4700   -7.0320    7.2760 c2        1 IPK     -0.040000
     30 C25         6.9890   -3.9640    8.1500 c2        1 IPK     -0.154000
     31 C26         7.8500   -7.2500    9.4080 c1        1 IPK      0.130000
     32 HAB         8.0970   -0.3600   -5.1710 ha        1 IPK      0.210000
     33 HAC         4.9690    2.8910   -4.5250 ha        1 IPK      0.148000
     34 HAD         9.3070    1.6670   -3.1540 ha        1 IPK      0.036000
     35 HAF         6.3350    1.6410   -4.3020 ha        1 IPK      0.148000
     36 HAG         3.1230   -0.5880   -4.9650 ha        1 IPK      0.161000
     37 HAH         5.7070    1.2590   -1.0650 ha        1 IPK      0.118000
     38 HAI         3.6380   -0.5480    2.6030 ha        1 IPK      0.181000
     39 HAJ         5.9200    1.8240    0.6920 ha        1 IPK      0.118000
     40 HAK         3.5680    2.0050    2.2170 ha        1 IPK      0.170000
     41 HAN         4.0250   -0.9870   -1.6640 hc        1 IPK      0.172500
     42 HANA        3.9790    0.4240   -2.7840 hc        1 IPK      0.172500
     43 HAO         0.5360   -1.7500   -2.0900 hc        1 IPK      0.160000
     44 HAOA        0.2320   -0.2420   -3.0330 hc        1 IPK      0.160000
     45 HAP         2.0990   -0.7920    0.1590 hn        1 IPK      0.221000
     46 HAPA        2.5320    1.7280   -1.3690 hx        1 IPK      0.128000
     47 HAQ         0.2730    1.1460   -1.1340 hx        1 IPK      0.128500
     48 HAQA       -0.1950   -0.4000   -0.3020 hx        1 IPK      0.128500
     49 HAR         5.4100   -1.8300    3.8960 h1        1 IPK      0.166500
     50 HARA        3.8430   -1.8370    4.7810 h1        1 IPK      0.166500
     51 HAS         3.9500   -1.4150   -7.2300 hc        1 IPK      0.079333
     52 HASA        4.3520    0.2880   -7.7090 hc        1 IPK      0.079333
     53 HBE         2.6250   -0.1960   -7.4400 hc        1 IPK      0.079333
     54 H23         5.4370   -6.4680    4.7930 hn        1 IPK      0.225000
     55 H24         6.1760   -8.0100    6.8430 h4        1 IPK      0.157000
     56 H25         7.4490   -4.6140    8.9030 ha        1 IPK      0.135500
     57 H26         7.0890   -2.8850    8.3350 ha        1 IPK      0.135500
     58 CAR         4.3540   -2.2120    3.8520 c3        1 IPK     -0.337000
@<TRIPOS>BOND
     1    1   17 1   
     2    2    4 1   
     3    2   34 1   
     4    3    5 1   
     5    3   33 1   
     6    3   35 1   
     7    4    6 1   
     8    4   32 1   
     9    5   19 1   
    10    7    9 1   
    11    7   37 1   
    12    7   39 1   
    13    8   10 1   
    14    8   18 1   
    15    9   13 1   
    16    9   20 1   
    17   11   13 1   
    18   11   21 1   
    19   11   41 1   
    20   11   42 1   
    21   12   14 1   
    22   12   21 1   
    23   12   43 1   
    24   12   44 1   
    25   13   22 1   
    26   13   46 1   
    27   14   22 1   
    28   14   47 1   
    29   14   48 1   
    30   15   19 1   
    31   15   51 1   
    32   15   52 1   
    33   15   53 1   
    34   16   23 1   
    35   16   58 1   
    36   17   20 1   
    37   17   22 1   
    38   18   38 1   
    39   18   58 1   
    40   19   36 1   
    41   20   40 1   
    42   22   45 1   
    43   23   25 1   
    44   23   26 1   
    45   24   25 1   
    46   24   27 1   
    47   24   29 1   
    48   25   54 1   
    49   26   27 1   
    50   27   30 1   
    51   28   29 1   
    52   28   31 1   
    53   29   55 1   
    54   30   56 1   
    55   30   57 1   
    56   49   58 1   
    57   50   58 1   
@<TRIPOS>SUBSTRUCTURE
     1 IPK         1 TEMP              0 ****  ****    0 ROOT
