@<TRIPOS>MOLECULE
IPK
   58    55     1     0     0
SMALL
bcc


@<TRIPOS>ATOM
      1 OAA        -0.0170    0.5120   -0.4140 o         1 IPK     -0.361000
      2 CAB         6.5810   -3.4450   -2.2320 c1        1 IPK     -0.093000
      3 CAC         6.9470   -0.1710   -2.7750 c2        1 IPK     -0.192000
      4 CAD         5.3680   -4.1060   -2.5420 c2        1 IPK     -0.220000
      5 CAF         6.7940    0.0590   -4.0420 c1        1 IPK     -0.175000
      6 CAG         4.2060   -3.6240   -2.1410 c1        1 IPK      0.041000
      7 CAH         3.1710    1.6780    6.2120 c1        1 IPK     -0.126000
      8 CAI         0.3910   -0.6830    3.8250 c1        1 IPK      0.231000
      9 CAJ         3.2280    2.8230    6.8170 c2        1 IPK     -0.177000
     10 CAK         0.0630   -0.8780    2.6020 c1        1 IPK     -0.540000
     11 CAN         2.3380   -3.3980   -0.5480 c3        1 IPK     -0.135000
     12 CAO         2.4670    1.3740   -2.2910 c1        1 IPK     -0.234500
     13 CAP         2.2820   -2.1680    0.3670 c3        1 IPK     -0.028000
     14 CAQ         3.5820    1.1240   -2.6450 c1        1 IPK     -0.234500
     15 CAS         5.3940    0.6600   -5.9780 c3        1 IPK     -0.179000
     16 SAW         4.4320   -0.3200    3.5680 ss        1 IPK      0.279000
     17 CAX         0.4580   -0.4730    0.1910 c2        1 IPK      0.302000
     18 CAY         3.0870    0.5240    5.6070 c2        1 IPK     -0.149000
     19 CAZ         6.6630    0.2840   -5.3200 c2        1 IPK     -0.127000
     20 CBA        -0.2910   -1.0590    1.3500 c2        1 IPK      0.156000
     21 CBE         3.0540   -3.1140   -1.8170 c2        1 IPK     -0.160000
     22 NBF         1.6480   -1.0210   -0.2140 n         1 IPK     -0.369000
     23 C21         5.6150   -1.4960    3.2590 c2        1 IPK     -0.137000
     24 C22         6.9670   -2.7970    1.9550 c2        1 IPK     -0.028000
     25 N2          5.8880   -1.8480    1.8870 na        1 IPK     -0.235000
     26 N3          6.2980   -2.2030    4.1500 n2        1 IPK     -0.175000
     27 C23         7.1870   -3.0670    3.4150 c2        1 IPK     -0.048000
     28 N4          8.5350   -4.2660    0.8530 n2        1 IPK     -0.282000
     29 C24         7.5500   -3.3200    0.8450 c2        1 IPK     -0.049000
     30 C25         8.0280   -3.9430    3.9830 c2        1 IPK     -0.165000
     31 C26         9.3900   -5.0850    0.8310 c1        1 IPK      0.112000
     32 HAB         5.3640   -5.0600   -3.1120 ha        1 IPK      0.125000
     33 HAC         7.2130    0.6260   -2.0640 ha        1 IPK      0.143500
     34 HAD         7.4650   -3.7610   -2.8070 ha        1 IPK      0.059000
     35 HAF         6.8320   -1.1790   -2.3330 ha        1 IPK      0.143500
     36 HAG         7.5400    0.2000   -5.9880 ha        1 IPK      0.137000
     37 HAH         3.3660    3.7690    6.2720 ha        1 IPK      0.136500
     38 HAI         2.1020    0.1350    5.2700 ha        1 IPK      0.179000
     39 HAJ         3.1380    2.9150    7.9100 ha        1 IPK      0.136500
     40 HAK        -1.2080   -1.6080    1.0590 ha        1 IPK      0.156000
     41 HAN         1.3010   -3.7500   -0.7940 hc        1 IPK      0.105500
     42 HANA        2.8490   -4.2170    0.0270 hc        1 IPK      0.105500
     43 HAO         2.5440   -2.4250   -2.5180 ha        1 IPK      0.166000
     44 HAOA        1.4760    1.5920   -1.9640 ha        1 IPK      0.234500
     45 HAP         3.3400   -1.8860    0.6470 h1        1 IPK      0.110500
     46 HAPA        1.7440   -2.4620    1.3140 h1        1 IPK      0.110500
     47 HAQ         2.1190   -0.5770   -0.9760 hn        1 IPK      0.249000
     48 HAQA        4.5770    0.9060   -2.9570 ha        1 IPK      0.234500
     49 HAR         5.1850    0.0180    5.8310 h1        1 IPK      0.130000
     50 HARA        4.0540   -1.3850    5.7000 h1        1 IPK      0.130000
     51 HAS         5.1110   -0.1180   -6.7310 hc        1 IPK      0.083333
     52 HASA        5.5180    1.6350   -6.5120 hc        1 IPK      0.083333
     53 HBE         4.5570    0.7640   -5.2440 hc        1 IPK      0.083333
     54 H23         5.9940   -1.0970    1.2390 hn        1 IPK      0.217000
     55 H24         7.2350   -3.0040   -0.1820 h4        1 IPK      0.202000
     56 H25         8.7000   -4.5860    3.4040 ha        1 IPK      0.133000
     57 H26         8.0850   -4.0610    5.0740 ha        1 IPK      0.133000
     58 CAR         4.2500   -0.3440    5.3390 c3        1 IPK     -0.230000
@<TRIPOS>BOND
     1    1   17 1   
     2    2    4 1   
     3    2   34 1   
     4    3    5 1   
     5    3   33 1   
     6    3   35 1   
     7    4    6 1   
     8    4   32 1   
     9    5   19 1   
    10    6   21 1   
    11    7    9 1   
    12    7   18 1   
    13    8   10 1   
    14    9   37 1   
    15    9   39 1   
    16   10   20 1   
    17   11   13 1   
    18   11   21 1   
    19   11   41 1   
    20   11   42 1   
    21   12   14 1   
    22   12   44 1   
    23   13   22 1   
    24   13   45 1   
    25   13   46 1   
    26   14   48 1   
    27   15   19 1   
    28   15   51 1   
    29   15   52 1   
    30   15   53 1   
    31   16   23 1   
    32   16   58 1   
    33   17   20 1   
    34   17   22 1   
    35   18   38 1   
    36   18   58 1   
    37   19   36 1   
    38   20   40 1   
    39   21   43 1   
    40   22   47 1   
    41   23   25 1   
    42   23   26 1   
    43   24   25 1   
    44   24   27 1   
    45   24   29 1   
    46   25   54 1   
    47   26   27 1   
    48   27   30 1   
    49   28   29 1   
    50   28   31 1   
    51   29   55 1   
    52   30   56 1   
    53   30   57 1   
    54   49   58 1   
    55   50   58 1   
@<TRIPOS>SUBSTRUCTURE
     1 IPK         1 TEMP              0 ****  ****    0 ROOT
