@<TRIPOS>MOLECULE
IPK
   58    58     1     0     0
SMALL
bcc


@<TRIPOS>ATOM
      1 OAA        -0.0550   -0.8220    0.0990 o         1 IPK     -0.343000
      2 CAB         7.9700    0.4950   -6.2830 cx        1 IPK     -0.051000
      3 CAC         7.8410    1.9840   -6.0040 cx        1 IPK     -0.161000
      4 CAD         8.3610   -0.4150   -5.2030 c2        1 IPK     -0.455000
      5 CAF         6.6610    1.1690   -6.2920 cu        1 IPK     -0.204000
      6 CAG         7.6100   -1.2970   -4.5840 c1        1 IPK      0.187000
      7 CAH         4.2050   -1.2140    2.2660 c2        1 IPK     -0.146000
      8 CAI         0.3750   -2.7090    3.1680 c1        1 IPK      0.125000
      9 CAJ         3.3910   -0.8570    1.1200 c2        1 IPK     -0.015000
     10 CAK        -0.8020   -2.7990    2.6230 c2        1 IPK     -0.536000
     11 CAN         3.2800    1.4080   -2.4300 c3        1 IPK     -0.280000
     12 CAO         1.0870    0.8650   -3.5070 c3        1 IPK     -0.237000
     13 CAP         2.8260    0.6620   -1.2250 c1        1 IPK     -0.119000
     14 CAQ         0.5430    0.4940   -2.1270 c3        1 IPK     -0.127000
     15 CAS         4.4150    2.1970   -6.3460 c3        1 IPK     -0.211000
     16 SAW         4.8130   -4.0280    4.4210 ss        1 IPK      0.302000
     17 CAX         1.1400   -0.4750    0.0500 c2        1 IPK      0.373000
     18 CAY         3.7700   -1.9250    3.3180 c2        1 IPK     -0.142000
     19 CAZ         5.3610    1.0710   -6.4610 c2        1 IPK     -0.076000
     20 CBA         2.0530   -0.7720    1.1630 c2        1 IPK     -0.227000
     21 CBE         2.4120    1.4520   -3.5940 c1        1 IPK     -0.059000
     22 NBF         1.5770    0.2370   -1.1200 n         1 IPK     -0.186000
     23 C21         5.7890   -4.3590    5.7680 c2        1 IPK     -0.127000
     24 C22         6.9800   -5.6800    7.2020 c2        1 IPK     -0.005000
     25 N2          6.0820   -5.7330    6.0850 na        1 IPK     -0.238000
     26 N3          6.2910   -3.4850    6.6330 n2        1 IPK     -0.179000
     27 C23         7.0610   -4.2330    7.5930 c2        1 IPK     -0.048000
     28 N4          8.3510   -6.8060    8.8460 n2        1 IPK     -0.285000
     29 C24         7.5400   -6.7900    7.7490 c2        1 IPK     -0.047000
     30 C25         7.7020   -3.6880    8.6380 c2        1 IPK     -0.158000
     31 C26         9.0540   -6.8410    9.7990 c1        1 IPK      0.125000
     32 HAB         9.4300   -0.3340   -4.9120 ha        1 IPK      0.191000
     33 HAC         8.2090    2.6990   -6.7630 hc        1 IPK      0.116000
     34 HAD         8.4030    0.1840   -7.2600 hc        1 IPK      0.130000
     35 HAF         8.0050    2.3530   -4.9740 hc        1 IPK      0.116000
     36 HAG         4.9070    0.0920   -6.6970 ha        1 IPK      0.124000
     37 HAH         5.2520   -0.8630    2.2140 ha        1 IPK      0.135000
     38 HAI         2.7240   -2.2930    3.3820 ha        1 IPK      0.175000
     39 HAJ         1.4980   -0.9720    2.1020 ha        1 IPK      0.157000
     40 HAK        -1.0350   -2.2680    1.6750 ha        1 IPK      0.206000
     41 HAN         4.2750    0.9680   -2.7460 hc        1 IPK      0.179500
     42 HANA        3.5140    2.4700   -2.1180 hc        1 IPK      0.179500
     43 HAO         1.1290   -0.0540   -4.1670 hc        1 IPK      0.147500
     44 HAOA        0.3550    1.5660   -4.0000 hc        1 IPK      0.147500
     45 HAP        -1.6530   -3.3760    3.0140 ha        1 IPK      0.206000
     46 HAPA        3.9550   -0.6340    0.1900 ha        1 IPK      0.178000
     47 HAQ        -0.1060    1.3310   -1.7420 h1        1 IPK      0.109500
     48 HAQA       -0.1110   -0.4190   -2.2170 h1        1 IPK      0.109500
     49 HAR         5.6330   -1.7620    4.4120 h1        1 IPK      0.132500
     50 HARA        4.1480   -1.9420    5.4240 h1        1 IPK      0.132500
     51 HAS         3.7160    2.0210   -5.4820 hc        1 IPK      0.096333
     52 HASA        3.8040    2.2780   -7.2800 hc        1 IPK      0.096333
     53 HBE         4.9420    3.1690   -6.1840 hc        1 IPK      0.096333
     54 H23         6.3030   -6.3490    5.3360 hn        1 IPK      0.223000
     55 H24         7.3530   -7.7960    7.3180 h4        1 IPK      0.156000
     56 H25         8.2840   -4.2790    9.3540 ha        1 IPK      0.134000
     57 H26         7.6710   -2.6070    8.8310 ha        1 IPK      0.134000
     58 CAR         4.6330   -2.2590    4.4650 c3        1 IPK     -0.258000
@<TRIPOS>BOND
     1    1   17 1   
     2    2    3 1   
     3    2    4 1   
     4    2    5 1   
     5    2   34 1   
     6    3    5 1   
     7    3   33 1   
     8    3   35 1   
     9    4    6 1   
    10    4   32 1   
    11    5   19 1   
    12    7    9 1   
    13    7   18 1   
    14    7   37 1   
    15    8   10 1   
    16    9   20 1   
    17    9   46 1   
    18   10   40 1   
    19   10   45 1   
    20   11   13 1   
    21   11   21 1   
    22   11   41 1   
    23   11   42 1   
    24   12   14 1   
    25   12   21 1   
    26   12   43 1   
    27   12   44 1   
    28   13   22 1   
    29   14   22 1   
    30   14   47 1   
    31   14   48 1   
    32   15   19 1   
    33   15   51 1   
    34   15   52 1   
    35   15   53 1   
    36   16   23 1   
    37   16   58 1   
    38   17   20 1   
    39   17   22 1   
    40   18   38 1   
    41   18   58 1   
    42   19   36 1   
    43   20   39 1   
    44   23   25 1   
    45   23   26 1   
    46   24   25 1   
    47   24   27 1   
    48   24   29 1   
    49   25   54 1   
    50   26   27 1   
    51   27   30 1   
    52   28   29 1   
    53   28   31 1   
    54   29   55 1   
    55   30   56 1   
    56   30   57 1   
    57   49   58 1   
    58   50   58 1   
@<TRIPOS>SUBSTRUCTURE
     1 IPK         1 TEMP              0 ****  ****    0 ROOT
