@<TRIPOS>MOLECULE
IPK
   58    62     1     0     0
SMALL
bcc


@<TRIPOS>ATOM
      1 OAA        -2.7860   -4.1170   -0.3580 o         1 IPK     -0.590100
      2 CAB        -6.5860    4.7230    0.1380 ca        1 IPK     -0.132000
      3 CAC        -7.2700    3.7330    0.8450 ca        1 IPK     -0.127500
      4 CAD        -5.7810    4.3710   -0.9450 ca        1 IPK     -0.127500
      5 CAF        -7.1470    2.3970    0.4710 ca        1 IPK     -0.129000
      6 CAG        -5.6560    3.0340   -1.3190 ca        1 IPK     -0.129000
      7 CAH         0.9720   -2.0080    1.3930 ca        1 IPK     -0.115000
      8 CAI         1.0540   -2.2670   -1.0120 ca        1 IPK     -0.115000
      9 CAJ        -0.3840   -2.3250    1.3820 ca        1 IPK     -0.098000
     10 CAK        -0.3010   -2.5910   -1.0240 ca        1 IPK     -0.098000
     11 CAN        -3.9670    0.1150   -0.0340 c3        1 IPK     -0.101900
     12 CAO        -5.6410   -1.7100   -0.2970 c3        1 IPK     -0.101900
     13 CAP        -3.1840   -0.7790    0.9300 c3        1 IPK      0.078500
     14 CAQ        -4.8140   -2.5660    0.6630 c3        1 IPK      0.078500
     15 CAS        -6.2250    0.6090   -1.0210 c3        1 IPK     -0.035100
     16 SAW         3.2440    0.1230    0.0250 ss        1 IPK     -0.135300
     17 CAX        -2.4610   -3.0190    0.1370 c         1 IPK      0.660700
     18 CAY         1.6990   -1.9700    0.1950 ca        1 IPK     -0.080300
     19 CAZ        -6.3380    2.0360   -0.6140 ca        1 IPK     -0.079300
     20 CBA        -1.0240   -2.6110    0.1730 ca        1 IPK     -0.119600
     21 CBE        -5.4480   -0.2280   -0.0120 c3        1 IPK     -0.061700
     22 NBF        -3.4130   -2.1960    0.7390 n         1 IPK     -0.449800
     23 C21         4.9130    0.4280    0.0550 cc        1 IPK      0.412700
     24 C22         6.7990    1.6510   -0.0060 ca        1 IPK     -0.200500
     25 N2          5.4090    1.7440   -0.0690 na        1 IPK     -0.254300
     26 N3          5.9010   -0.4920    0.1930 nd        1 IPK     -0.591100
     27 C23         7.1010    0.2350    0.1590 ca        1 IPK      0.108400
     28 N4          9.1260    2.1950    0.0230 nb        1 IPK     -0.656000
     29 C24         7.8510    2.5880   -0.0690 ca        1 IPK      0.407200
     30 C25         8.4470   -0.1470    0.2520 ca        1 IPK     -0.187300
     31 C26         9.4000    0.8750    0.1770 ca        1 IPK      0.367200
     32 HAB        -6.6850    5.7780    0.4320 ha        1 IPK      0.132000
     33 HAC        -7.9080    4.0080    1.6970 ha        1 IPK      0.131000
     34 HAD        -5.2430    5.1490   -1.5060 ha        1 IPK      0.131000
     35 HAF        -7.6900    1.6180    1.0270 ha        1 IPK      0.131000
     36 HAG        -5.0210    2.7630   -2.1760 ha        1 IPK      0.131000
     37 HAH         1.4760   -1.7900    2.3470 ha        1 IPK      0.143500
     38 HAI         1.6210   -2.2510   -1.9560 ha        1 IPK      0.143500
     39 HAJ        -0.9500   -2.3570    2.3260 ha        1 IPK      0.150000
     40 HAK        -0.8030   -2.8480   -1.9700 ha        1 IPK      0.150000
     41 HAN        -3.8210    1.1840    0.2710 hc        1 IPK      0.052950
     42 HANA       -3.5670   -0.0000   -1.0750 hc        1 IPK      0.052950
     43 HAO        -5.3500   -1.9320   -1.3570 hc        1 IPK      0.052950
     44 HAOA       -6.7200   -1.9860   -0.1750 hc        1 IPK      0.052950
     45 HAP        -2.0880   -0.5450    0.8340 h1        1 IPK      0.061200
     46 HAPA       -3.5010   -0.5330    1.9850 h1        1 IPK      0.061200
     47 HAQ        -5.2370   -2.4540    1.7030 h1        1 IPK      0.061200
     48 HAQA       -4.9000   -3.6480    0.3610 h1        1 IPK      0.061200
     49 HAR         3.6850   -2.1540   -0.6260 h1        1 IPK      0.095700
     50 HARA        3.6250   -1.9640    1.1680 h1        1 IPK      0.095700
     51 HAS        -7.2590    0.1790   -1.1250 hc        1 IPK      0.051200
     52 HASA       -5.7300    0.5300   -2.0260 hc        1 IPK      0.051200
     53 HBE        -5.8490   -0.0080    1.0180 hc        1 IPK      0.053700
     54 H23         4.8740    2.5630   -0.1800 hn        1 IPK      0.315700
     55 H24         7.6670    3.6680   -0.1930 h4        1 IPK      0.024100
     56 H25         8.7370   -1.1970    0.3780 ha        1 IPK      0.157000
     57 H26        10.4770    0.6350    0.2440 h4        1 IPK      0.024100
     58 CAR         3.1420   -1.6470    0.2100 c3        1 IPK      0.035000
@<TRIPOS>BOND
     1    1   17 2   
     2    2    3 ar  
     3    2    4 ar  
     4    2   32 1   
     5    3    5 ar  
     6    3   33 1   
     7    4    6 ar  
     8    4   34 1   
     9    5   19 ar  
    10    5   35 1   
    11    6   19 ar  
    12    6   36 1   
    13    7    9 ar  
    14    7   18 ar  
    15    7   37 1   
    16    8   10 ar  
    17    8   18 ar  
    18    8   38 1   
    19    9   20 ar  
    20    9   39 1   
    21   10   20 ar  
    22   10   40 1   
    23   11   13 1   
    24   11   21 1   
    25   11   41 1   
    26   11   42 1   
    27   12   14 1   
    28   12   21 1   
    29   12   43 1   
    30   12   44 1   
    31   13   22 1   
    32   13   45 1   
    33   13   46 1   
    34   14   22 1   
    35   14   47 1   
    36   14   48 1   
    37   15   19 1   
    38   15   21 1   
    39   15   51 1   
    40   15   52 1   
    41   16   23 1   
    42   16   58 1   
    43   17   20 1   
    44   17   22 1   
    45   18   58 1   
    46   21   53 1   
    47   23   25 1   
    48   23   26 2   
    49   24   25 1   
    50   24   27 ar  
    51   24   29 ar  
    52   25   54 1   
    53   26   27 1   
    54   27   30 ar  
    55   28   29 ar  
    56   28   31 ar  
    57   29   55 1   
    58   30   31 ar  
    59   30   56 1   
    60   31   57 1   
    61   49   58 1   
    62   50   58 1   
@<TRIPOS>SUBSTRUCTURE
     1 IPK         1 TEMP              0 ****  ****    0 ROOT
