@<TRIPOS>MOLECULE
IPL
   29    30     1     0     0
SMALL
bcc


@<TRIPOS>ATOM
      1 N1         -0.0270   -0.7970    0.0430 nu        1 IPL     -0.234500
      2 C2          1.3590   -0.7680    0.0350 c1        1 IPL     -0.131900
      3 C3          1.7820   -0.3390    1.3320 ce        1 IPL     -0.411500
      4 C4          0.3840    0.3100    3.4460 ca        1 IPL     -0.158000
      5 C5         -0.9230    0.4240    3.9110 ca        1 IPL     -0.165000
      6 C6         -2.0200    0.1360    3.0920 ca        1 IPL     -0.219000
      7 C7         -1.8370   -0.2770    1.7710 ca        1 IPL     -0.157000
      8 C8         -0.5400   -0.3990    1.2860 ca        1 IPL     -0.138200
      9 C9          0.6210   -0.1020    2.1340 ca        1 IPL     -0.013800
     10 C1'         5.0600    1.1790    2.6260 c3        1 IPL      0.187400
     11 C2'         3.6380    1.1850    2.0740 c3        1 IPL     -0.098400
     12 C3'         3.1800   -0.2310    1.7640 c3        1 IPL      0.046800
     13 P           6.8900    3.0240    2.4530 p5        1 IPL      1.429800
     14 O1P         7.7930    1.8630    2.2660 o         1 IPL     -0.850000
     15 O2P         7.2320    4.2580    3.1880 o         1 IPL     -0.850000
     16 O3P         6.4470    3.3860    0.9190 oh        1 IPL     -0.781400
     17 O4P         5.4510    2.4630    3.0170 os        1 IPL     -0.585200
     18 HN1        -0.5960   -1.0160   -0.7240 hn        1 IPL      0.242700
     19 H2          6.4870    2.6240    0.3530 ho        1 IPL      0.419000
     20 H4          1.2330    0.5490    4.1000 ha        1 IPL      0.114000
     21 H5         -1.1010    0.7520    4.9450 ha        1 IPL      0.080000
     22 H6         -3.0370    0.2390    3.4900 ha        1 IPL      0.077000
     23 H7         -2.7030   -0.4980    1.1350 ha        1 IPL      0.081000
     24 H1'1        5.7790    0.7750    1.8590 h1        1 IPL      0.010200
     25 H1'2        5.0940    0.5070    3.5330 h1        1 IPL      0.010200
     26 H2'1        2.9520    1.6540    2.8240 hc        1 IPL      0.039700
     27 H2'2        3.5960    1.8130    1.1490 hc        1 IPL      0.039700
     28 H3'1        3.3360   -0.8600    2.6870 hc        1 IPL      0.007200
     29 H3'2        3.8450   -0.6560    0.9630 hc        1 IPL      0.007200
@<TRIPOS>BOND
     1    1    2 2   
     2    1    8 1   
     3    1   18 1   
     4    2    3 2   
     5    3    9 1   
     6    3   12 1   
     7    4    5 ar  
     8    4    9 ar  
     9    4   20 1   
    10    5    6 ar  
    11    5   21 1   
    12    6    7 ar  
    13    6   22 1   
    14    7    8 ar  
    15    7   23 1   
    16    8    9 ar  
    17   10   11 1   
    18   10   17 1   
    19   10   24 1   
    20   10   25 1   
    21   11   12 1   
    22   11   26 1   
    23   11   27 1   
    24   12   28 1   
    25   12   29 1   
    26   13   14 1   
    27   13   15 1   
    28   13   16 1   
    29   13   17 1   
    30   16   19 1   
@<TRIPOS>SUBSTRUCTURE
     1 IPL         1 TEMP              0 ****  ****    0 ROOT
