@<TRIPOS>MOLECULE
IPL
   29    23     1     0     0
SMALL
bcc


@<TRIPOS>ATOM
      1 N1         -2.2330    0.7360   -2.4040 n2        1 IPL     -0.202000
      2 C2         -0.8910    0.4790   -2.3450 c1        1 IPL     -0.216000
      3 C3         -0.5470    0.3080   -1.0190 c1        1 IPL     -0.002000
      4 C4         -1.9130    0.3910    1.1250 c1        1 IPL     -0.042000
      5 C5         -3.1900    0.5890    1.6300 c1        1 IPL     -0.159500
      6 C6         -4.2440    0.8570    0.7680 c1        1 IPL     -0.159500
      7 C7         -4.0220    0.9260   -0.6000 c1        1 IPL     -0.192000
      8 C8         -2.7290    0.7260   -1.1130 c1        1 IPL     -0.039000
      9 C9         -1.6870    0.4610   -0.2610 c1        1 IPL     -0.080000
     10 C1'         2.8020   -0.9360    0.1990 c3        1 IPL      0.065000
     11 C2'         1.8440    0.0320   -0.4610 c3        1 IPL     -0.171000
     12 C3'         0.5700   -0.6950   -0.8330 c2        1 IPL     -0.183000
     13 P           4.6670   -0.7450    1.9570 p3        1 IPL      2.524000
     14 O1P         4.7480   -2.2520    1.9350 o         1 IPL     -1.243500
     15 O2P         3.8870   -0.3000    3.1710 os        1 IPL     -1.257000
     16 O3P         6.0610   -0.1670    2.0140 o         1 IPL     -1.243500
     17 O4P         3.9400   -0.2370    0.6480 os        1 IPL     -0.732000
     18 HN1        -2.7160    0.8880   -3.1620 DU        1 IPL      0.155000
     19 H2         -0.2860    0.4150   -3.1080 DU        1 IPL      0.155000
     20 H4         -1.1700    0.2140    1.7320 ha        1 IPL      0.283000
     21 H5         -3.3460    0.5410    2.5920 ha        1 IPL      0.106000
     22 H6         -5.1430    0.9960    1.1240 ha        1 IPL      0.106000
     23 H7         -4.7640    1.1090   -1.2060 ha        1 IPL      0.097000
     24 H1'1        3.0730   -1.6190   -0.4490 h1        1 IPL      0.031000
     25 H1'2        2.3600   -1.3650    0.9600 h1        1 IPL      0.031000
     26 H2'1        1.6350    0.7580    0.1600 hc        1 IPL      0.041000
     27 H2'2        2.2560    0.4010   -1.2670 hc        1 IPL      0.041000
     28 H3'1        0.3310   -1.3210   -0.1210 ha        1 IPL      0.144000
     29 H3'2        0.7080   -1.1880   -1.6670 ha        1 IPL      0.144000
@<TRIPOS>BOND
     1    1    2 1   
     2    1    8 1   
     3    2    3 1   
     4    3    9 1   
     5    4    9 1   
     6    4   20 1   
     7    5    6 1   
     8    5   21 1   
     9    6   22 1   
    10    7    8 1   
    11    7   23 1   
    12   10   11 1   
    13   10   17 1   
    14   10   24 1   
    15   10   25 1   
    16   11   12 1   
    17   11   26 1   
    18   11   27 1   
    19   12   28 1   
    20   12   29 1   
    21   13   14 1   
    22   13   16 1   
    23   13   17 1   
@<TRIPOS>SUBSTRUCTURE
     1 IPL         1 TEMP              0 ****  ****    0 ROOT
