@<TRIPOS>MOLECULE
IPL
   29    30     1     0     0
SMALL
bcc


@<TRIPOS>ATOM
      1 N1         -1.8990    0.5990   -4.0850 nh        1 IPL     -0.234500
      2 C2         -2.1280    0.9860   -2.7730 c1        1 IPL     -0.129900
      3 C3         -0.8830    0.8800   -2.0770 ce        1 IPL     -0.413500
      4 C4          1.4770    0.1300   -2.9220 ca        1 IPL     -0.158000
      5 C5          2.1540   -0.3070   -4.0560 ca        1 IPL     -0.165000
      6 C6          1.5000   -0.4720   -5.2820 ca        1 IPL     -0.218000
      7 C7          0.1360   -0.2030   -5.4060 ca        1 IPL     -0.157000
      8 C8         -0.5600    0.2370   -4.2860 ca        1 IPL     -0.138200
      9 C9          0.1130    0.4160   -2.9940 ca        1 IPL     -0.013800
     10 C1'         0.0220    0.5720    1.6410 c3        1 IPL      0.179400
     11 C2'        -0.3160    0.0850    0.2350 c3        1 IPL     -0.097400
     12 C3'        -0.6730    1.2500   -0.6720 c3        1 IPL      0.047800
     13 P          -0.2210   -0.7130    3.9040 p5        1 IPL      1.434800
     14 O1P        -0.7370    0.5780    4.4040 o         1 IPL     -0.843000
     15 O2P         0.6520   -1.6120    4.6860 o         1 IPL     -0.843000
     16 O3P        -1.4730   -1.5840    3.3020 oh        1 IPL     -0.792400
     17 O4P         0.4830   -0.4860    2.4280 os        1 IPL     -0.604200
     18 HN1        -2.5810    0.5390   -4.7870 hn        1 IPL      0.243700
     19 H2         -1.3970   -1.7640    2.3730 ho        1 IPL      0.428000
     20 H4          2.0060    0.2460   -1.9660 ha        1 IPL      0.114000
     21 H5          3.2280   -0.5320   -3.9900 ha        1 IPL      0.080000
     22 H6          2.0640   -0.8210   -6.1560 ha        1 IPL      0.077000
     23 H7         -0.3690   -0.3380   -6.3710 ha        1 IPL      0.081000
     24 H1'1       -0.8770    1.0470    2.1260 h1        1 IPL      0.018200
     25 H1'2        0.8400    1.3460    1.5680 h1        1 IPL      0.018200
     26 H2'1        0.5620   -0.4700   -0.1850 hc        1 IPL      0.035200
     27 H2'2       -1.1710   -0.6370    0.2830 hc        1 IPL      0.035200
     28 H3'1       -1.6040    1.7410   -0.2790 hc        1 IPL      0.009200
     29 H3'2        0.1540    2.0130   -0.6060 hc        1 IPL      0.009200
@<TRIPOS>BOND
     1    1    2 2   
     2    1    8 1   
     3    1   18 1   
     4    2    3 2   
     5    3    9 1   
     6    3   12 1   
     7    4    5 ar  
     8    4    9 ar  
     9    4   20 1   
    10    5    6 ar  
    11    5   21 1   
    12    6    7 ar  
    13    6   22 1   
    14    7    8 ar  
    15    7   23 1   
    16    8    9 ar  
    17   10   11 1   
    18   10   17 1   
    19   10   24 1   
    20   10   25 1   
    21   11   12 1   
    22   11   26 1   
    23   11   27 1   
    24   12   28 1   
    25   12   29 1   
    26   13   14 1   
    27   13   15 1   
    28   13   16 1   
    29   13   17 1   
    30   16   19 1   
@<TRIPOS>SUBSTRUCTURE
     1 IPL         1 TEMP              0 ****  ****    0 ROOT
