@<TRIPOS>MOLECULE
IPL
   29    30     1     0     0
SMALL
bcc


@<TRIPOS>ATOM
      1 N1         -0.0570   -0.7910    0.0740 nh        1 IPL     -0.234500
      2 C2          1.3290   -0.7430    0.0320 c1        1 IPL     -0.131900
      3 C3          1.7780   -0.3320    1.3270 ce        1 IPL     -0.411500
      4 C4          0.4230    0.2570    3.4860 ca        1 IPL     -0.158000
      5 C5         -0.8730    0.3440    3.9850 ca        1 IPL     -0.165000
      6 C6         -1.9860    0.0560    3.1880 ca        1 IPL     -0.219000
      7 C7         -1.8300   -0.3290    1.8550 ca        1 IPL     -0.157000
      8 C8         -0.5430   -0.4240    1.3360 ca        1 IPL     -0.138200
      9 C9          0.6330   -0.1270    2.1610 ca        1 IPL     -0.013800
     10 C1'         5.0660    1.2060    2.5690 c3        1 IPL      0.187400
     11 C2'         3.6310    1.2020    2.0530 c3        1 IPL     -0.098400
     12 C3'         3.1840   -0.2130    1.7270 c3        1 IPL      0.046800
     13 P           6.8650    3.0810    2.3870 p5        1 IPL      1.429800
     14 O1P         7.7790    1.9370    2.1530 o         1 IPL     -0.850000
     15 O2P         7.2080    4.3040    3.1390 o         1 IPL     -0.850000
     16 O3P         6.3760    3.4670    0.8740 oh        1 IPL     -0.781400
     17 O4P         5.4490    2.4880    2.9770 os        1 IPL     -0.585200
     18 HN1        -0.6410   -1.0030   -0.6840 hn        1 IPL      0.242700
     19 H2          6.4100    2.7180    0.2910 ho        1 IPL      0.419000
     20 H4          1.2850    0.4950    4.1240 ha        1 IPL      0.114000
     21 H5         -1.0300    0.6490    5.0290 ha        1 IPL      0.080000
     22 H6         -2.9940    0.1380    3.6120 ha        1 IPL      0.077000
     23 H7         -2.7090   -0.5500    1.2360 ha        1 IPL      0.081000
     24 H1'1        5.7710    0.8280    1.7770 h1        1 IPL      0.010200
     25 H1'2        5.1310    0.5170    3.4610 h1        1 IPL      0.010200
     26 H2'1        2.9570    1.6470    2.8290 hc        1 IPL      0.039700
     27 H2'2        3.5570    1.8480    1.1410 hc        1 IPL      0.039700
     28 H3'1        3.3710   -0.8580    2.6330 hc        1 IPL      0.007200
     29 H3'2        3.8340   -0.6140    0.9020 hc        1 IPL      0.007200
@<TRIPOS>BOND
     1    1    2 2   
     2    1    8 1   
     3    1   18 1   
     4    2    3 2   
     5    3    9 1   
     6    3   12 1   
     7    4    5 ar  
     8    4    9 ar  
     9    4   20 1   
    10    5    6 ar  
    11    5   21 1   
    12    6    7 ar  
    13    6   22 1   
    14    7    8 ar  
    15    7   23 1   
    16    8    9 ar  
    17   10   11 1   
    18   10   17 1   
    19   10   24 1   
    20   10   25 1   
    21   11   12 1   
    22   11   26 1   
    23   11   27 1   
    24   12   28 1   
    25   12   29 1   
    26   13   14 1   
    27   13   15 1   
    28   13   16 1   
    29   13   17 1   
    30   16   19 1   
@<TRIPOS>SUBSTRUCTURE
     1 IPL         1 TEMP              0 ****  ****    0 ROOT
