@<TRIPOS>MOLECULE
IPM
   22    21     1     0     0
SMALL
bcc


@<TRIPOS>ATOM
      1 C1          0.2700    0.2880   -0.5770 c         1 IPM      0.894600
      2 C2          1.6670   -0.2680   -0.2160 c3        1 IPM      0.059100
      3 C3          2.0050   -0.1150    1.2730 c3        1 IPM     -0.179700
      4 C4          1.6140   -1.2970    2.1860 c         1 IPM      0.921600
      5 C5          3.5050    0.1730    1.4350 c3        1 IPM     -0.044700
      6 C6          3.8140    1.6240    1.1180 c3        1 IPM     -0.084600
      7 C7          3.9970   -0.1550    2.8300 c3        1 IPM     -0.084600
      8 O1          1.8450   -1.5850   -0.7040 oh        1 IPM     -0.640800
      9 O2          0.1340    1.5510   -0.6250 o         1 IPM     -0.872300
     10 O3         -0.6640   -0.5100   -0.8790 o         1 IPM     -0.872300
     11 O4          1.7520   -2.4980    1.8020 o         1 IPM     -0.872800
     12 O5          1.2020   -1.0190    3.3560 o         1 IPM     -0.872800
     13 H2          2.4090    0.3330   -0.8230 h1        1 IPM      0.012700
     14 H3          1.4320    0.7800    1.6450 hc        1 IPM      0.060700
     15 H5          4.0580   -0.4810    0.7030 hc        1 IPM      0.034700
     16 H61         3.3800    2.2920    1.9010 hc        1 IPM      0.017533
     17 H62         3.3750    1.9130    0.1330 hc        1 IPM      0.017533
     18 H63         4.9180    1.7950    1.0840 hc        1 IPM      0.017533
     19 H71         3.9470   -1.2580    3.0000 hc        1 IPM      0.017533
     20 H72         5.0510    0.1900    2.9710 hc        1 IPM      0.017533
     21 H73         3.3430    0.3350    3.5920 hc        1 IPM      0.017533
     22 HO1         1.2340   -2.1440   -0.2010 ho        1 IPM      0.435000
@<TRIPOS>BOND
     1    1    2 1   
     2    1    9 1   
     3    1   10 1   
     4    2    3 1   
     5    2    8 1   
     6    2   13 1   
     7    3    4 1   
     8    3    5 1   
     9    3   14 1   
    10    4   11 1   
    11    4   12 1   
    12    5    6 1   
    13    5    7 1   
    14    5   15 1   
    15    6   16 1   
    16    6   17 1   
    17    6   18 1   
    18    7   19 1   
    19    7   20 1   
    20    7   21 1   
    21    8   22 1   
@<TRIPOS>SUBSTRUCTURE
     1 IPM         1 TEMP              0 ****  ****    0 ROOT
