@<TRIPOS>MOLECULE
IPM
   22    21     1     0     0
SMALL
bcc


@<TRIPOS>ATOM
      1 C1          1.0200    0.0400   -1.8940 c         1 IPM      0.894600
      2 C2          0.8250   -0.6400   -0.5190 c3        1 IPM      0.059100
      3 C3          0.0780    0.2460    0.4860 c3        1 IPM     -0.179700
      4 C4         -1.4590    0.0970    0.5150 c         1 IPM      0.921600
      5 C5          0.6340    0.0080    1.8980 c3        1 IPM     -0.044700
      6 C6          1.9500    0.7370    2.0900 c3        1 IPM     -0.084600
      7 C7         -0.3440    0.4400    2.9710 c3        1 IPM     -0.084600
      8 O1          0.2700   -1.9350   -0.6540 oh        1 IPM     -0.640800
      9 O2          1.8950    0.9590   -1.9760 o         1 IPM     -0.872300
     10 O3          0.3700   -0.3730   -2.8970 o         1 IPM     -0.872300
     11 O4         -2.0120   -1.0380    0.3990 o         1 IPM     -0.872800
     12 O5         -2.1440    1.1500    0.7150 o         1 IPM     -0.872800
     13 H2          1.8650   -0.8470   -0.1220 h1        1 IPM      0.012700
     14 H3          0.2900    1.3130    0.1980 hc        1 IPM      0.060700
     15 H5          0.8150   -1.0990    2.0100 hc        1 IPM      0.034700
     16 H61         2.4290    0.4410    3.0550 hc        1 IPM      0.017533
     17 H62         2.6520    0.5060    1.2530 hc        1 IPM      0.017533
     18 H63         1.7810    1.8410    2.1070 hc        1 IPM      0.017533
     19 H71        -0.6910    1.4840    2.7770 hc        1 IPM      0.017533
     20 H72        -1.2430   -0.2240    2.9550 hc        1 IPM      0.017533
     21 H73         0.1290    0.3900    3.9830 hc        1 IPM      0.017533
     22 HO1        -0.6330   -1.8090   -0.9820 ho        1 IPM      0.435000
@<TRIPOS>BOND
     1    1    2 1   
     2    1    9 1   
     3    1   10 1   
     4    2    3 1   
     5    2    8 1   
     6    2   13 1   
     7    3    4 1   
     8    3    5 1   
     9    3   14 1   
    10    4   11 1   
    11    4   12 1   
    12    5    6 1   
    13    5    7 1   
    14    5   15 1   
    15    6   16 1   
    16    6   17 1   
    17    6   18 1   
    18    7   19 1   
    19    7   20 1   
    20    7   21 1   
    21    8   22 1   
@<TRIPOS>SUBSTRUCTURE
     1 IPM         1 TEMP              0 ****  ****    0 ROOT
