@<TRIPOS>MOLECULE
IPM
   22    20     1     0     0
SMALL
bcc


@<TRIPOS>ATOM
      1 C1         -2.4280   -0.2360   -1.1580 c1        1 IPM      0.314000
      2 C2         -0.9320   -0.1860   -1.1740 c2        1 IPM     -0.002000
      3 C3         -0.4220   -0.1560    0.2290 c3        1 IPM     -0.169000
      4 C4         -0.4740   -1.5660    0.8220 c2        1 IPM      0.341000
      5 C5          1.0200    0.3480    0.2420 c3        1 IPM     -0.084000
      6 C6          1.0310    1.8620    0.0750 c3        1 IPM     -0.202500
      7 C7          1.6590   -0.0160    1.5480 c3        1 IPM     -0.202500
      8 O1         -0.4240   -1.3450   -1.8440 oh        1 IPM     -0.368000
      9 O2         -3.0120   -1.3270   -1.2750 o         1 IPM     -0.607000
     10 O3         -3.0900    0.8270   -1.1380 o         1 IPM     -0.607000
     11 O4          0.1730   -2.4810    0.2970 o         1 IPM     -0.607500
     12 O5         -1.1980   -1.8040    1.8690 o         1 IPM     -0.607500
     13 H2         -0.6320    0.6350   -1.6550 h4        1 IPM      0.052000
     14 H3         -0.9770    0.4380    0.7600 hc        1 IPM      0.100000
     15 H5          1.5290   -0.0750   -0.5070 hc        1 IPM      0.074000
     16 H61         0.3900    2.2580    0.6790 hc        1 IPM      0.056833
     17 H62         1.9510    2.2160    0.2830 hc        1 IPM      0.056833
     18 H63         0.7970    2.0880   -0.8380 hc        1 IPM      0.056833
     19 H71         2.4930    0.4820    1.6540 hc        1 IPM      0.056833
     20 H72         1.8500   -0.9900    1.5630 hc        1 IPM      0.056833
     21 H73         1.0500    0.2070    2.2800 hc        1 IPM      0.056833
     22 HO1        -0.3530   -1.1790   -2.7110 ho        1 IPM      0.234000
@<TRIPOS>BOND
     1    1    9 1   
     2    1   10 1   
     3    2    3 1   
     4    2    8 1   
     5    2   13 1   
     6    3    4 1   
     7    3    5 1   
     8    3   14 1   
     9    4   11 1   
    10    4   12 1   
    11    5    6 1   
    12    5    7 1   
    13    5   15 1   
    14    6   16 1   
    15    6   17 1   
    16    6   18 1   
    17    7   19 1   
    18    7   20 1   
    19    7   21 1   
    20    8   22 1   
@<TRIPOS>SUBSTRUCTURE
     1 IPM         1 TEMP              0 ****  ****    0 ROOT
