@<TRIPOS>MOLECULE
IPM
   22    21     1     0     0
SMALL
bcc


@<TRIPOS>ATOM
      1 C1          0.3140    0.2170   -0.6420 c         1 IPM      0.894600
      2 C2          1.7350   -0.2550   -0.2560 c3        1 IPM      0.059100
      3 C3          2.0100   -0.1540    1.2500 c3        1 IPM     -0.179700
      4 C4          1.6770   -1.4070    2.0900 c         1 IPM      0.921600
      5 C5          3.4790    0.2310    1.4820 c3        1 IPM     -0.044700
      6 C6          3.6910    1.7150    1.2470 c3        1 IPM     -0.084600
      7 C7          3.9460   -0.1320    2.8760 c3        1 IPM     -0.084600
      8 O1          2.0260   -1.5280   -0.8000 oh        1 IPM     -0.640800
      9 O2          0.0860    1.4680   -0.6320 o         1 IPM     -0.872300
     10 O3         -0.5480   -0.6290   -1.0180 o         1 IPM     -0.872300
     11 O4          1.9150   -2.5730    1.6530 o         1 IPM     -0.872800
     12 O5          1.2060   -1.2190    3.2550 o         1 IPM     -0.872800
     13 H2          2.4510    0.4280   -0.8050 h1        1 IPM      0.012700
     14 H3          1.3610    0.6760    1.6440 hc        1 IPM      0.060700
     15 H5          4.1030   -0.3430    0.7400 hc        1 IPM      0.034700
     16 H61         3.1830    2.3090    2.0450 hc        1 IPM      0.017533
     17 H62         3.2650    2.0220    0.2620 hc        1 IPM      0.017533
     18 H63         4.7800    1.9660    1.2640 hc        1 IPM      0.017533
     19 H71         3.9710   -1.2430    2.9910 hc        1 IPM      0.017533
     20 H72         4.9670    0.2800    3.0730 hc        1 IPM      0.017533
     21 H73         3.2330    0.2710    3.6370 hc        1 IPM      0.017533
     22 HO1         1.4410   -2.1550   -0.3490 ho        1 IPM      0.435000
@<TRIPOS>BOND
     1    1    2 1   
     2    1    9 1   
     3    1   10 1   
     4    2    3 1   
     5    2    8 1   
     6    2   13 1   
     7    3    4 1   
     8    3    5 1   
     9    3   14 1   
    10    4   11 1   
    11    4   12 1   
    12    5    6 1   
    13    5    7 1   
    14    5   15 1   
    15    6   16 1   
    16    6   17 1   
    17    6   18 1   
    18    7   19 1   
    19    7   20 1   
    20    7   21 1   
    21    8   22 1   
@<TRIPOS>SUBSTRUCTURE
     1 IPM         1 TEMP              0 ****  ****    0 ROOT
