@<TRIPOS>MOLECULE
IPN
   33    33     1     0     0
SMALL
bcc


@<TRIPOS>ATOM
      1 C8'        -1.1880   -0.1230    0.2620 c3        1 IPN      0.012000
      2 C7'         0.3590   -0.1850    0.1870 c         1 IPN      0.637100
      3 O7'         1.0170   -0.1950    1.2090 o         1 IPN     -0.582100
      4 C5'         0.8650   -1.2550   -2.0020 c3        1 IPN      0.000000
      5 C'          1.6720   -2.4790   -1.4800 c         1 IPN      0.852600
      6 O1'         2.9310   -2.4120   -1.3910 o         1 IPN     -0.563800
      7 O2'         1.0740   -3.5780   -1.2350 o         1 IPN     -0.563800
      8 N4'         1.0210   -0.1590   -1.0970 n         1 IPN     -0.451800
      9 C3'         1.9480    0.9330   -1.4230 c3        1 IPN      0.078000
     10 C2'         1.3660    1.7740   -2.5950 c3        1 IPN      0.142800
     11 N1'         2.3270    2.8040   -2.9820 n4        1 IPN     -1.151600
     12 N1         -1.6170   -0.3610    1.6240 n         1 IPN     -0.359000
     13 C6         -2.1360   -1.6400    1.9940 cc        1 IPN      0.113600
     14 C2         -1.6610    0.7480    2.5760 c         1 IPN      0.811500
     15 O2         -1.1320    1.8300    2.2890 o         1 IPN     -0.641500
     16 N3         -2.3060    0.5690    3.8890 n         1 IPN     -0.579500
     17 C4         -2.7700   -0.7020    4.2800 c         1 IPN      0.732700
     18 O4         -3.2840   -0.8580    5.3930 o         1 IPN     -0.587500
     19 C5         -2.6750   -1.8470    3.3370 cd        1 IPN     -0.192400
     20 I5         -3.4810   -3.7350    3.8760 i         1 IPN     -0.061800
     21 H8'1       -1.5750   -0.8150   -0.3310 h1        1 IPN      0.116700
     22 H8'2       -1.4930    0.7620   -0.0270 h1        1 IPN      0.116700
     23 H5'1        1.1960   -1.0010   -2.8760 h1        1 IPN      0.088700
     24 H5'2       -0.0860   -1.4930   -2.0680 h1        1 IPN      0.088700
     25 H3'1        2.8050    0.5630   -1.6860 h1        1 IPN      0.067700
     26 H3'2        2.0660    1.5030   -0.6420 h1        1 IPN      0.067700
     27 H2'1        1.1900    1.1890   -3.3590 hx        1 IPN      0.046200
     28 H2'2        0.5430    2.1920   -2.3120 hx        1 IPN      0.046200
     29 H1'1        3.1120    2.4060   -3.2490 hn        1 IPN      0.390800
     30 H1'2        1.9800    3.3050   -3.6830 hn        1 IPN      0.390800
     31 H1'3        2.4910    3.3560   -2.2620 hn        1 IPN      0.390800
     32 H6         -2.1210   -2.3990    1.3350 h4        1 IPN      0.186000
     33 HN3        -2.4380    1.3030    4.4460 hn        1 IPN      0.356500
@<TRIPOS>BOND
     1    1    2 1   
     2    1   12 1   
     3    1   21 1   
     4    1   22 1   
     5    2    3 2   
     6    2    8 1   
     7    4    5 1   
     8    4    8 1   
     9    4   23 1   
    10    4   24 1   
    11    5    6 1   
    12    5    7 1   
    13    8    9 1   
    14    9   10 1   
    15    9   25 1   
    16    9   26 1   
    17   10   11 1   
    18   10   27 1   
    19   10   28 1   
    20   11   29 1   
    21   11   30 1   
    22   11   31 1   
    23   12   13 1   
    24   12   14 1   
    25   13   19 2   
    26   13   32 1   
    27   14   15 2   
    28   14   16 1   
    29   16   17 1   
    30   16   33 1   
    31   17   18 2   
    32   17   19 1   
    33   19   20 1   
@<TRIPOS>SUBSTRUCTURE
     1 IPN         1 TEMP              0 ****  ****    0 ROOT
