@<TRIPOS>MOLECULE
IPN
   33    33     1     0     0
SMALL
bcc


@<TRIPOS>ATOM
      1 C8'         1.8620    1.3150    0.1710 c3        1 IPN      0.033000
      2 C7'         2.5660    0.4270   -0.8670 c         1 IPN      0.636100
      3 O7'         1.9700   -0.0230   -1.8660 o         1 IPN     -0.616100
      4 C5'         4.5580    0.2810    0.6000 c3        1 IPN     -0.056000
      5 C'          4.1470   -0.8930    1.5160 c         1 IPN      0.872600
      6 O1'         2.9070   -1.0810    1.7280 o         1 IPN     -0.835800
      7 O2'         5.0320   -1.7350    1.8400 o         1 IPN     -0.835800
      8 N4'         3.9310    0.1540   -0.7050 n         1 IPN     -0.447800
      9 C3'         4.5290   -0.7920   -1.6140 c3        1 IPN      0.078000
     10 C2'         3.8840   -2.1980   -1.6930 c3        1 IPN      0.064800
     11 N1'         3.6940   -2.8690   -0.3870 n4        1 IPN     -0.862600
     12 N1          0.4380    1.0950    0.2480 n         1 IPN     -0.356000
     13 C6         -0.0550    0.0020    0.9380 cc        1 IPN      0.093600
     14 C2         -0.4360    1.8900   -0.5520 c         1 IPN      0.811500
     15 O2         -0.0090    2.8880   -1.1680 o         1 IPN     -0.631500
     16 N3         -1.7890    1.5390   -0.5860 n         1 IPN     -0.581500
     17 C4         -2.3240    0.4300    0.1010 c         1 IPN      0.731700
     18 O4         -3.5350    0.2000   -0.0370 o         1 IPN     -0.595500
     19 C5         -1.3750   -0.3440    0.9140 cd        1 IPN     -0.202400
     20 I5         -2.0140   -1.9110    1.9980 i         1 IPN     -0.069800
     21 H8'1        2.2790    1.1050    1.2020 h1        1 IPN      0.121200
     22 H8'2        2.0530    2.3890   -0.1220 h1        1 IPN      0.121200
     23 H5'1        5.6750    0.2780    0.4690 h1        1 IPN      0.073700
     24 H5'2        4.2730    1.2630    1.0620 h1        1 IPN      0.073700
     25 H3'1        5.6200   -0.9040   -1.3560 h1        1 IPN      0.086700
     26 H3'2        4.4390   -0.3750   -2.6610 h1        1 IPN      0.086700
     27 H2'1        4.5500   -2.8440   -2.3300 hx        1 IPN      0.104200
     28 H2'2        2.8710   -2.1040   -2.1870 hx        1 IPN      0.104200
     29 H1'1        3.4280   -3.8420   -0.5240 hn        1 IPN      0.474800
     30 H1'2        2.9540   -2.3910    0.1700 hn        1 IPN      0.474800
     31 H1'3        4.5590   -2.8210    0.1910 hn        1 IPN      0.474800
     32 H6          0.7090   -0.5610    1.5290 h4        1 IPN      0.219000
     33 HN3        -2.3900    2.1000   -1.1510 hn        1 IPN      0.355500
@<TRIPOS>BOND
     1    1    2 1   
     2    1   12 1   
     3    1   21 1   
     4    1   22 1   
     5    2    3 2   
     6    2    8 1   
     7    4    5 1   
     8    4    8 1   
     9    4   23 1   
    10    4   24 1   
    11    5    6 1   
    12    5    7 1   
    13    8    9 1   
    14    9   10 1   
    15    9   25 1   
    16    9   26 1   
    17   10   11 1   
    18   10   27 1   
    19   10   28 1   
    20   11   29 1   
    21   11   30 1   
    22   11   31 1   
    23   12   13 1   
    24   12   14 1   
    25   13   19 2   
    26   13   32 1   
    27   14   15 2   
    28   14   16 1   
    29   16   17 1   
    30   16   33 1   
    31   17   18 2   
    32   17   19 1   
    33   19   20 1   
@<TRIPOS>SUBSTRUCTURE
     1 IPN         1 TEMP              0 ****  ****    0 ROOT
