@<TRIPOS>MOLECULE
IPO
   25    22     1     0     0
SMALL
bcc


@<TRIPOS>ATOM
      1 C1          0.2670    0.8680    0.6680 c1        1 IPO     -0.037100
      2 C2          1.6260    0.5960    0.6360 c1        1 IPO     -0.052000
      3 C3          2.3730    0.6610    1.8020 c1        1 IPO     -0.052000
      4 C4          1.7610    0.9970    2.9990 c1        1 IPO      0.023600
      5 I4          2.9080    1.1560    4.7600 i         1 IPO     -0.139600
      6 C5          0.4030    1.2680    3.0310 c1        1 IPO     -0.034500
      7 C6         -0.3440    1.2030    1.8650 c1        1 IPO     -0.084500
      8 C1'        -0.5310    0.8780   -0.6180 c3        1 IPO     -0.109300
      9 C2'        -1.1000   -0.4990   -0.8690 c3        1 IPO      0.095500
     10 N2'        -2.5070   -0.4760   -0.6590 n3        1 IPO     -0.909800
     11 C3'        -0.8100   -0.9120   -2.2940 c         1 IPO      0.595100
     12 O3'        -0.9800   -0.1220   -3.2010 o         1 IPO     -0.566100
     13 N4'        -0.3100   -2.2100   -2.5680 n         1 IPO     -0.348400
     14 O4'         0.3540   -2.4550   -3.7410 oh        1 IPO     -0.436100
     15 H2          2.0570    0.3600   -0.2070 ha        1 IPO      0.086500
     16 H3          3.3300    0.4700    1.7800 ha        1 IPO      0.086500
     17 H5         -0.0280    1.5050    3.8740 ha        1 IPO      0.088500
     18 H6         -1.3010    1.3940    1.8880 ha        1 IPO      0.076500
     19 H1'1        0.0520    1.1310   -1.3620 hc        1 IPO      0.075200
     20 H1'2       -1.2620    1.5240   -0.5420 hc        1 IPO      0.075200
     21 H2'        -0.6890   -1.1380   -0.2550 h1        1 IPO      0.088700
     22 HN21       -2.7000    0.0550    0.0620 hn        1 IPO      0.361800
     23 HN22       -2.9220   -0.1420   -1.4040 hn        1 IPO      0.361800
     24 HN4        -0.4350   -2.8850   -1.9650 hn        1 IPO      0.319500
     25 HO4         0.7880   -3.2280   -3.6800 ho        1 IPO      0.432000
@<TRIPOS>BOND
     1    1    7 3   
     2    1    8 1   
     3    2    3 3   
     4    2   15 1   
     5    3   16 1   
     6    4    5 1   
     7    4    6 3   
     8    6   17 1   
     9    7   18 1   
    10    8    9 1   
    11    8   19 1   
    12    8   20 1   
    13    9   10 1   
    14    9   11 1   
    15    9   21 1   
    16   10   22 1   
    17   10   23 1   
    18   11   12 2   
    19   11   13 1   
    20   13   14 1   
    21   13   24 1   
    22   14   25 1   
@<TRIPOS>SUBSTRUCTURE
     1 IPO         1 TEMP              0 ****  ****    0 ROOT
