@<TRIPOS>MOLECULE
IPO
   27    27     1     0     0
SMALL
bcc


@<TRIPOS>ATOM
      1 C1          0.1250   -0.2030   -0.0890 ca        1 IPO     -0.205300
      2 C2          1.4460   -0.6650   -0.0770 ca        1 IPO     -0.128000
      3 C3          2.1540   -0.7320    1.1230 ca        1 IPO     -0.077000
      4 C4          1.5540   -0.3360    2.3210 ca        1 IPO      0.059900
      5 I4          2.5830   -0.4210    4.0520 i         1 IPO     -0.021900
      6 C5          0.2360    0.1350    2.3080 ca        1 IPO     -0.077000
      7 C6         -0.4760    0.2020    1.1130 ca        1 IPO     -0.128000
      8 C1'        -0.6110   -0.0600   -1.3700 c3        1 IPO     -0.036100
      9 C2'        -1.2610   -1.4090   -1.7760 c3        1 IPO      0.064500
     10 N2'        -2.0240   -2.0140   -0.6360 nz        1 IPO     -0.844600
     11 C3'        -2.1700   -1.1950   -2.9790 c         1 IPO      0.538100
     12 O3'        -3.3850   -1.2330   -3.0180 o         1 IPO     -0.349100
     13 N4'        -1.4850   -0.8660   -4.3110 ny        1 IPO     -0.442300
     14 O4'        -0.3200   -1.5510   -4.3580 oh        1 IPO     -0.373300
     15 H2          1.9450   -0.9540   -1.0160 ha        1 IPO      0.141500
     16 H3          3.2010   -1.0880    1.1120 ha        1 IPO      0.184500
     17 H5         -0.2440    0.4750    3.2440 ha        1 IPO      0.184500
     18 H6         -1.4910    0.6310    1.1150 ha        1 IPO      0.141500
     19 H1'1        0.1010    0.2240   -2.1930 hc        1 IPO      0.097700
     20 H1'2       -1.3980    0.7370   -1.2850 hc        1 IPO      0.097700
     21 H2'        -0.4290   -2.1380   -2.0550 hx        1 IPO      0.176700
     22 HN21       -1.4640   -1.8710    0.2320 hn        1 IPO      0.492800
     23 HN22       -2.1720   -3.0200   -0.7840 hn        1 IPO      0.492800
     24 HN4        -2.1270   -1.1310   -5.0920 hn        1 IPO      0.500800
     25 HO4         0.0470   -1.5210   -5.2790 ho        1 IPO      0.515000
     26 H2'3       -2.9380   -1.5560   -0.5120 hn        1 IPO      0.492800
     27 H4'2       -1.3010    0.1600   -4.3540 hn        1 IPO      0.500800
@<TRIPOS>BOND
     1    1    2 ar  
     2    1    7 ar  
     3    1    8 1   
     4    2    3 ar  
     5    2   15 1   
     6    3    4 ar  
     7    3   16 1   
     8    4    5 1   
     9    4    6 ar  
    10    6    7 ar  
    11    6   17 1   
    12    7   18 1   
    13    8    9 1   
    14    8   19 1   
    15    8   20 1   
    16    9   10 1   
    17    9   11 1   
    18    9   21 1   
    19   10   22 1   
    20   10   23 1   
    21   10   26 1   
    22   11   12 2   
    23   11   13 1   
    24   13   14 1   
    25   13   24 1   
    26   13   27 1   
    27   14   25 1   
@<TRIPOS>SUBSTRUCTURE
     1 IPO         1 TEMP              0 ****  ****    0 ROOT
