@<TRIPOS>MOLECULE
IPO
   27    27     1     0     0
SMALL
bcc


@<TRIPOS>ATOM
      1 C1          0.1060   -0.2040   -0.0750 ca        1 IPO     -0.205300
      2 C2          1.4370   -0.6370   -0.0630 ca        1 IPO     -0.128000
      3 C3          2.1390   -0.7080    1.1400 ca        1 IPO     -0.077000
      4 C4          1.5230   -0.3450    2.3410 ca        1 IPO      0.059900
      5 I4          2.5440   -0.4360    4.0770 i         1 IPO     -0.021900
      6 C5          0.1950    0.0960    2.3280 ca        1 IPO     -0.077000
      7 C6         -0.5110    0.1670    1.1290 ca        1 IPO     -0.128000
      8 C1'        -0.6250   -0.0570   -1.3590 c3        1 IPO     -0.036100
      9 C2'        -1.2410   -1.4140   -1.7920 c3        1 IPO      0.064500
     10 N2'        -1.9970   -2.0560   -0.6670 n4        1 IPO     -0.844600
     11 C3'        -2.1470   -1.2000   -2.9970 c         1 IPO      0.538100
     12 O3'        -3.3610   -1.2680   -3.0450 o         1 IPO     -0.349100
     13 N4'        -1.4620   -0.8310   -4.3180 n4        1 IPO     -0.442300
     14 O4'        -0.2790   -1.4850   -4.3690 oh        1 IPO     -0.373300
     15 H2          1.9480   -0.8990   -1.0030 ha        1 IPO      0.141500
     16 H3          3.1940   -1.0400    1.1310 ha        1 IPO      0.184500
     17 H5         -0.2980    0.4100    3.2660 ha        1 IPO      0.184500
     18 H6         -1.5360    0.5730    1.1310 ha        1 IPO      0.141500
     19 H1'1        0.0850    0.2580   -2.1720 hc        1 IPO      0.097700
     20 H1'2       -1.4310    0.7200   -1.2650 hc        1 IPO      0.097700
     21 H2'        -0.3910   -2.1180   -2.0770 hx        1 IPO      0.176700
     22 HN21       -2.9210   -1.6210   -0.5420 hn        1 IPO      0.492800
     23 HN22       -2.1190   -3.0630   -0.8330 hn        1 IPO      0.492800
     24 HN4        -1.3050    0.2000   -4.3430 hn        1 IPO      0.500800
     25 HO4         0.0930   -1.4290   -5.2860 ho        1 IPO      0.515000
     26 H2'3       -1.4460   -1.9140    0.2070 hn        1 IPO      0.492800
     27 H4'2       -2.0920   -1.1000   -5.1080 hn        1 IPO      0.500800
@<TRIPOS>BOND
     1    1    2 ar  
     2    1    7 ar  
     3    1    8 1   
     4    2    3 ar  
     5    2   15 1   
     6    3    4 ar  
     7    3   16 1   
     8    4    5 1   
     9    4    6 ar  
    10    6    7 ar  
    11    6   17 1   
    12    7   18 1   
    13    8    9 1   
    14    8   19 1   
    15    8   20 1   
    16    9   10 1   
    17    9   11 1   
    18    9   21 1   
    19   10   22 1   
    20   10   23 1   
    21   10   26 1   
    22   11   12 2   
    23   11   13 1   
    24   13   14 1   
    25   13   24 1   
    26   13   27 1   
    27   14   25 1   
@<TRIPOS>SUBSTRUCTURE
     1 IPO         1 TEMP              0 ****  ****    0 ROOT
