@<TRIPOS>MOLECULE
IPO
   25    25     1     0     0
SMALL
bcc


@<TRIPOS>ATOM
      1 C1         -0.0680   -0.6090   -1.1970 ca        1 IPO     -0.064300
      2 C2         -1.2990   -0.3910   -0.5680 ca        1 IPO     -0.119500
      3 C3         -1.3620   -0.1940    0.8110 ca        1 IPO     -0.097000
      4 C4         -0.1950   -0.2120    1.5750 ca        1 IPO      0.024900
      5 I4         -0.2870    0.0740    3.5720 i         1 IPO     -0.142900
      6 C5          1.0350   -0.4290    0.9530 ca        1 IPO     -0.097000
      7 C6          1.0990   -0.6280   -0.4250 ca        1 IPO     -0.119500
      8 C1'        -0.0070   -0.8370   -2.6660 c3        1 IPO     -0.032100
      9 C2'         0.3980    0.4430   -3.4250 c3        1 IPO      0.110500
     10 N2'         1.7800    0.8010   -3.2140 n3        1 IPO     -0.887800
     11 C3'         0.0420    0.2140   -4.9110 c         1 IPO      0.541100
     12 O3'         0.9030   -0.0780   -5.7570 o         1 IPO     -0.566100
     13 N4'        -1.2950    0.5030   -5.3130 n         1 IPO     -0.350400
     14 O4'        -1.6710   -0.0470   -6.4700 oh        1 IPO     -0.436100
     15 H2         -2.2260   -0.3780   -1.1600 ha        1 IPO      0.139000
     16 H3         -2.3400   -0.0240    1.2880 ha        1 IPO      0.145000
     17 H5          1.9650   -0.4430    1.5430 ha        1 IPO      0.145000
     18 H6          2.0740   -0.7890   -0.9100 ha        1 IPO      0.139000
     19 H1'1       -1.0140   -1.1680   -3.0360 hc        1 IPO      0.058200
     20 H1'2        0.7210   -1.6610   -2.8930 hc        1 IPO      0.058200
     21 H2'        -0.2280    1.3020   -3.0350 h1        1 IPO      0.088700
     22 HN21        2.3900    0.0820   -3.5550 hn        1 IPO      0.364300
     23 HN22        1.9930    1.6600   -3.6840 hn        1 IPO      0.364300
     24 HN4        -1.9820    0.2440   -4.6130 hn        1 IPO      0.298500
     25 HO4        -1.1980    0.4500   -7.1680 ho        1 IPO      0.436000
@<TRIPOS>BOND
     1    1    2 ar  
     2    1    7 ar  
     3    1    8 1   
     4    2    3 ar  
     5    2   15 1   
     6    3    4 ar  
     7    3   16 1   
     8    4    5 1   
     9    4    6 ar  
    10    6    7 ar  
    11    6   17 1   
    12    7   18 1   
    13    8    9 1   
    14    8   19 1   
    15    8   20 1   
    16    9   10 1   
    17    9   11 1   
    18    9   21 1   
    19   10   22 1   
    20   10   23 1   
    21   11   12 2   
    22   11   13 1   
    23   13   14 1   
    24   13   24 1   
    25   14   25 1   
@<TRIPOS>SUBSTRUCTURE
     1 IPO         1 TEMP              0 ****  ****    0 ROOT
