@<TRIPOS>MOLECULE
IPO
   27    27     1     0     0
SMALL
bcc


@<TRIPOS>ATOM
      1 C1          0.0750   -0.1490   -0.0970 ca        1 IPO     -0.205300
      2 C2          1.4230   -0.5280   -0.0570 ca        1 IPO     -0.128000
      3 C3          2.1160   -0.5220    1.1530 ca        1 IPO     -0.077000
      4 C4          1.4760   -0.1350    2.3330 ca        1 IPO      0.059900
      5 I4          2.4840   -0.1130    4.0790 i         1 IPO     -0.021900
      6 C5          0.1320    0.2530    2.2920 ca        1 IPO     -0.077000
      7 C6         -0.5660    0.2470    1.0870 ca        1 IPO     -0.128000
      8 C1'        -0.6500   -0.0840   -1.3900 c3        1 IPO     -0.036100
      9 C2'        -1.2090   -1.4800   -1.7710 c3        1 IPO      0.064500
     10 N2'        -1.9490   -2.1040   -0.6260 n4        1 IPO     -0.844600
     11 C3'        -2.1120   -1.3520   -2.9900 c         1 IPO      0.538100
     12 O3'        -3.3220   -1.4680   -3.0440 o         1 IPO     -0.349100
     13 N4'        -1.4300   -1.0130   -4.3210 n4        1 IPO     -0.442300
     14 O4'        -0.2230   -1.6240   -4.3360 oh        1 IPO     -0.373300
     15 H2          1.9520   -0.8080   -0.9810 ha        1 IPO      0.141500
     16 H3          3.1830   -0.8120    1.1650 ha        1 IPO      0.184500
     17 H5         -0.3810    0.5860    3.2130 ha        1 IPO      0.184500
     18 H6         -1.6060    0.6120    1.0650 ha        1 IPO      0.141500
     19 H1'1        0.0550    0.2250   -2.2110 hc        1 IPO      0.097700
     20 H1'2       -1.4860    0.6640   -1.3350 hc        1 IPO      0.097700
     21 H2'        -0.3300   -2.1620   -2.0200 hx        1 IPO      0.176700
     22 HN21       -2.8900   -1.7010   -0.5250 hn        1 IPO      0.492800
     23 HN22       -2.0310   -3.1210   -0.7500 hn        1 IPO      0.492800
     24 HN4        -1.3120    0.0210   -4.3870 hn        1 IPO      0.500800
     25 HO4         0.1540   -1.5920   -5.2530 ho        1 IPO      0.515000
     26 H2'3       -1.4110   -1.9050    0.2450 hn        1 IPO      0.492800
     27 H4'2       -2.0430   -1.3370   -5.1030 hn        1 IPO      0.500800
@<TRIPOS>BOND
     1    1    2 ar  
     2    1    7 ar  
     3    1    8 1   
     4    2    3 ar  
     5    2   15 1   
     6    3    4 ar  
     7    3   16 1   
     8    4    5 1   
     9    4    6 ar  
    10    6    7 ar  
    11    6   17 1   
    12    7   18 1   
    13    8    9 1   
    14    8   19 1   
    15    8   20 1   
    16    9   10 1   
    17    9   11 1   
    18    9   21 1   
    19   10   22 1   
    20   10   23 1   
    21   10   26 1   
    22   11   12 2   
    23   11   13 1   
    24   13   14 1   
    25   13   24 1   
    26   13   27 1   
    27   14   25 1   
@<TRIPOS>SUBSTRUCTURE
     1 IPO         1 TEMP              0 ****  ****    0 ROOT
