@<TRIPOS>MOLECULE
IPP
   27    27     1     0     0
SMALL
bcc


@<TRIPOS>ATOM
      1 P           0.1790    0.3710    0.6800 p5        1 IPP      1.424300
      2 O1P         1.1380    1.6300    0.6610 oh        1 IPP     -0.782400
      3 O2P        -0.8090    0.4810    1.7500 o         1 IPP     -0.836300
      4 C          -0.6620    0.4360   -0.8080 c3        1 IPP     -0.194400
      5 N          -2.1000    0.6690   -0.6220 n4        1 IPP     -0.651800
      6 C1         -2.6030    2.0540   -1.0080 c         1 IPP      0.549100
      7 O1         -1.8670    2.7410   -1.6970 o         1 IPP     -0.410100
      8 C2         -3.9590    2.4170   -0.4680 c3        1 IPP     -0.096100
      9 C1'        -4.7730    1.2630   -0.0110 ca        1 IPP     -0.170300
     10 C2'        -5.7570    0.7230   -0.8480 ca        1 IPP     -0.128500
     11 C3'        -6.5620   -0.3230   -0.3970 ca        1 IPP     -0.086000
     12 C4'        -6.3930   -0.8370    0.8900 ca        1 IPP      0.043900
     13 I          -7.5610   -2.3480    1.5410 i         1 IPP     -0.072900
     14 C5'        -5.4180   -0.2910    1.7300 ca        1 IPP     -0.086000
     15 C6'        -4.6120    0.7540    1.2850 ca        1 IPP     -0.128500
     16 H           0.9140   -0.6500    0.5450 hp        1 IPP     -0.094400
     17 HOP1        1.1120    2.2520    1.3900 ho        1 IPP      0.516000
     18 H1         -0.2250    1.2580   -1.4610 hx        1 IPP      0.160200
     19 H2         -0.5170   -0.5030   -1.4150 hx        1 IPP      0.160200
     20 HN         -2.6500   -0.0010   -1.1750 hn        1 IPP      0.484800
     21 H21        -4.4920    2.9880   -1.2840 hc        1 IPP      0.133200
     22 H22        -3.7840    3.1380    0.3840 hc        1 IPP      0.133200
     23 H2'        -5.9180    1.1360   -1.8570 ha        1 IPP      0.154000
     24 H3'        -7.3400   -0.7310   -1.0650 ha        1 IPP      0.170500
     25 H5'        -5.2850   -0.6740    2.7570 ha        1 IPP      0.170500
     26 H6'        -3.8690    1.1930    1.9720 ha        1 IPP      0.154000
     27 HN3        -2.3390    0.5260    0.3910 hn        1 IPP      0.484800
@<TRIPOS>BOND
     1    1    2 1   
     2    1    3 2   
     3    1    4 1   
     4    1   16 1   
     5    2   17 1   
     6    4    5 1   
     7    4   18 1   
     8    4   19 1   
     9    5    6 1   
    10    5   20 1   
    11    5   27 1   
    12    6    7 2   
    13    6    8 1   
    14    8    9 1   
    15    8   21 1   
    16    8   22 1   
    17    9   10 ar  
    18    9   15 ar  
    19   10   11 ar  
    20   10   23 1   
    21   11   12 ar  
    22   11   24 1   
    23   12   13 1   
    24   12   14 ar  
    25   14   15 ar  
    26   14   25 1   
    27   15   26 1   
@<TRIPOS>SUBSTRUCTURE
     1 IPP         1 TEMP              0 ****  ****    0 ROOT
