@<TRIPOS>MOLECULE
IPP
   26    26     1     0     0
SMALL
bcc


@<TRIPOS>ATOM
      1 P           0.6950   -0.2870   -5.1450 p5        1 IPP      1.444300
      2 O1P        -0.5140   -0.1930   -6.2010 oh        1 IPP     -0.797400
      3 O2P         1.7530    0.5630   -5.6660 o         1 IPP     -0.839300
      4 C          -0.0290    0.1000   -3.6960 c3        1 IPP     -0.244200
      5 N           0.6050   -0.5990   -2.6120 n         1 IPP     -0.530900
      6 C1          0.8520    0.0690   -1.4050 c         1 IPP      0.646100
      7 O1          0.7780    1.3060   -1.3190 o         1 IPP     -0.569100
      8 C2          1.3300   -0.7730   -0.2340 c3        1 IPP     -0.113100
      9 C1'         0.4840   -1.9710    0.0090 ca        1 IPP     -0.084300
     10 C2'        -0.6240   -1.8920    0.8590 ca        1 IPP     -0.131000
     11 C3'        -1.4080   -3.0200    1.0990 ca        1 IPP     -0.093000
     12 C4'        -1.0910   -4.2370    0.4950 ca        1 IPP      0.025900
     13 I          -2.2270   -5.8700    0.8450 i         1 IPP     -0.130900
     14 C5'         0.0170   -4.3220   -0.3490 ca        1 IPP     -0.093000
     15 C6'         0.8010   -3.1960   -0.5920 ca        1 IPP     -0.131000
     16 H           0.9140   -1.5500   -5.0730 hp        1 IPP     -0.152400
     17 HOP1       -0.3630    0.3690   -6.9580 ho        1 IPP      0.481000
     18 H1          0.0600    1.2150   -3.5020 h1        1 IPP      0.119700
     19 H2         -1.1410   -0.0910   -3.7160 h1        1 IPP      0.119700
     20 HN          0.3140   -1.5500   -2.5140 hn        1 IPP      0.302500
     21 H21         2.3930   -1.0760   -0.4380 hc        1 IPP      0.091200
     22 H22         1.3340   -0.1090    0.6740 hc        1 IPP      0.091200
     23 H2'        -0.8780   -0.9360    1.3430 ha        1 IPP      0.144500
     24 H3'        -2.2770   -2.9380    1.7720 ha        1 IPP      0.149500
     25 H5'         0.2840   -5.2790   -0.8270 ha        1 IPP      0.149500
     26 H6'         1.6800   -3.2740   -1.2500 ha        1 IPP      0.144500
@<TRIPOS>BOND
     1    1    2 1   
     2    1    3 2   
     3    1    4 1   
     4    1   16 1   
     5    2   17 1   
     6    4    5 1   
     7    4   18 1   
     8    4   19 1   
     9    5    6 1   
    10    5   20 1   
    11    6    7 2   
    12    6    8 1   
    13    8    9 1   
    14    8   21 1   
    15    8   22 1   
    16    9   10 ar  
    17    9   15 ar  
    18   10   11 ar  
    19   10   23 1   
    20   11   12 ar  
    21   11   24 1   
    22   12   13 1   
    23   12   14 ar  
    24   14   15 ar  
    25   14   25 1   
    26   15   26 1   
@<TRIPOS>SUBSTRUCTURE
     1 IPP         1 TEMP              0 ****  ****    0 ROOT
