@<TRIPOS>MOLECULE
IPP
   26    23     1     0     0
SMALL
bcc


@<TRIPOS>ATOM
      1 P           4.0220   -1.6880   -1.0130 p3        1 IPP      2.727000
      2 O1P         4.7210   -2.4920   -2.2010 o         1 IPP     -0.825000
      3 O2P         4.9210   -0.5930   -0.5650 o         1 IPP     -1.122000
      4 C           2.4280   -0.9660   -1.5950 c3        1 IPP     -0.747000
      5 N           1.8940   -0.1030   -0.5630 n         1 IPP     -0.360000
      6 C1          0.5340   -0.1140   -0.2780 c2        1 IPP      0.302000
      7 O1          0.0090   -1.1270    0.1260 o         1 IPP     -0.351000
      8 C2         -0.2430    1.1740   -0.3170 c3        1 IPP     -0.147000
      9 C1'        -1.5910    1.0000    0.4320 c2        1 IPP     -0.068000
     10 C2'        -2.7070    0.3780   -0.2240 c1        1 IPP     -0.121000
     11 C3'        -3.9150    0.2960    0.4150 c1        1 IPP     -0.094000
     12 C4'        -4.0600    0.8280    1.7270 c1        1 IPP     -0.260000
     13 I          -5.8900    0.6620    2.7310 i         1 IPP      0.150000
     14 C5'        -2.9440    1.4480    2.3770 c2        1 IPP     -0.087000
     15 C6'        -1.7440    1.5290    1.7430 c2        1 IPP     -0.132000
     16 H           3.7880   -2.5090   -0.0020 hp        1 IPP     -0.515000
     17 HOP1        5.3870   -3.0640   -1.8460 ho        1 IPP      0.282000
     18 H1          2.5760   -0.4700   -2.3630 h1        1 IPP      0.149000
     19 H2          1.7920   -1.6820   -1.7850 h1        1 IPP      0.149000
     20 HN          2.4490    0.4970   -0.1300 hn        1 IPP      0.242000
     21 H21        -0.4090    1.4110   -1.2100 hc        1 IPP      0.124000
     22 H22         0.2870    1.8900    0.1230 hc        1 IPP      0.124000
     23 H2'        -2.6180    0.0640   -1.0020 ha        1 IPP      0.144000
     24 H3'        -4.6000   -0.0900    0.0150 ha        1 IPP      0.147000
     25 H5'        -3.0400    1.8020    3.2510 ha        1 IPP      0.151000
     26 H6'        -1.0470    1.9180    2.1540 ha        1 IPP      0.137000
@<TRIPOS>BOND
     1    1    3 1   
     2    1    4 1   
     3    1   16 1   
     4    2   17 1   
     5    4    5 1   
     6    4   18 1   
     7    4   19 1   
     8    5    6 1   
     9    5   20 1   
    10    6    7 1   
    11    6    8 1   
    12    8    9 1   
    13    8   21 1   
    14    8   22 1   
    15    9   10 1   
    16    9   15 1   
    17   10   23 1   
    18   11   12 1   
    19   11   24 1   
    20   12   14 1   
    21   14   15 1   
    22   14   25 1   
    23   15   26 1   
@<TRIPOS>SUBSTRUCTURE
     1 IPP         1 TEMP              0 ****  ****    0 ROOT
