@<TRIPOS>MOLECULE
IPP
   26    26     1     0     0
SMALL
bcc


@<TRIPOS>ATOM
      1 P          -0.7070   -0.6220   -0.3890 p5        1 IPP      1.224600
      2 O1P        -0.6840   -1.1960    0.9570 o         1 IPP     -0.815000
      3 O2P        -1.7760   -0.8920   -1.4020 o         1 IPP     -0.815000
      4 C          -0.8610    1.1630   -0.1940 c3        1 IPP     -0.125400
      5 N          -1.7260    1.7010   -1.2490 n4        1 IPP     -0.649800
      6 C1         -2.8240    2.5860   -0.7540 c         1 IPP      0.546100
      7 O1         -2.5080    3.6210   -0.1780 o         1 IPP     -0.452100
      8 C2         -4.2350    2.1370   -1.0520 c3        1 IPP     -0.094100
      9 C1'        -4.7500    1.2190   -0.0000 ca        1 IPP     -0.124300
     10 C2'        -4.6140   -0.1660   -0.1390 ca        1 IPP     -0.111500
     11 C3'        -5.1390   -1.0170    0.8360 ca        1 IPP     -0.091500
     12 C4'        -5.8060   -0.4910    1.9430 ca        1 IPP      0.043900
     13 I          -6.5770   -1.7230    3.3460 i         1 IPP     -0.125900
     14 C5'        -5.9410    0.8920    2.0810 ca        1 IPP     -0.091500
     15 C6'        -5.4150    1.7450    1.1140 ca        1 IPP     -0.111500
     16 H           0.4570   -0.6040   -0.9780 hp        1 IPP     -0.203400
     17 H1         -1.3070    1.3420    0.8190 hx        1 IPP      0.112200
     18 H2          0.1350    1.6650   -0.2100 hx        1 IPP      0.112200
     19 HN         -1.1710    2.2400   -1.9190 hn        1 IPP      0.470800
     20 H21        -4.8680    3.0670   -1.0970 hc        1 IPP      0.096200
     21 H22        -4.2840    1.6360   -2.0580 hc        1 IPP      0.096200
     22 H2'        -4.0780   -0.6010   -1.0040 ha        1 IPP      0.161500
     23 H3'        -5.0060   -2.1050    0.7210 ha        1 IPP      0.157000
     24 H5'        -6.4610    1.3190    2.9530 ha        1 IPP      0.157000
     25 H6'        -5.5250    2.8340    1.2300 ha        1 IPP      0.161500
     26 HN3        -2.1510    0.8480   -1.7430 hn        1 IPP      0.470800
@<TRIPOS>BOND
     1    1    2 1   
     2    1    3 1   
     3    1    4 1   
     4    1   16 1   
     5    4    5 1   
     6    4   17 1   
     7    4   18 1   
     8    5    6 1   
     9    5   19 1   
    10    5   26 1   
    11    6    7 2   
    12    6    8 1   
    13    8    9 1   
    14    8   20 1   
    15    8   21 1   
    16    9   10 ar  
    17    9   15 ar  
    18   10   11 ar  
    19   10   22 1   
    20   11   12 ar  
    21   11   23 1   
    22   12   13 1   
    23   12   14 ar  
    24   14   15 ar  
    25   14   24 1   
    26   15   25 1   
@<TRIPOS>SUBSTRUCTURE
     1 IPP         1 TEMP              0 ****  ****    0 ROOT
