@<TRIPOS>MOLECULE
IPP
   26    26     1     0     0
SMALL
bcc


@<TRIPOS>ATOM
      1 P          -0.6940   -0.5710   -0.4550 p5        1 IPP      1.224600
      2 O1P        -0.6330   -1.1550    0.8840 o         1 IPP     -0.815000
      3 O2P        -1.7780   -0.8520   -1.4500 o         1 IPP     -0.815000
      4 C          -0.8770    1.2090   -0.2420 c3        1 IPP     -0.125400
      5 N          -1.7700    1.7410   -1.2770 ny        1 IPP     -0.648800
      6 C1         -2.8740    2.6020   -0.7540 c         1 IPP      0.546100
      7 O1         -2.5650    3.6400   -0.1780 o         1 IPP     -0.452100
      8 C2         -4.2820    2.1280   -1.0250 c3        1 IPP     -0.094100
      9 C1'        -4.7580    1.1940    0.0320 ca        1 IPP     -0.124300
     10 C2'        -4.6010   -0.1870   -0.1200 ca        1 IPP     -0.111500
     11 C3'        -5.0890   -1.0540    0.8600 ca        1 IPP     -0.091500
     12 C4'        -5.7400   -0.5480    1.9850 ca        1 IPP      0.043900
     13 I          -6.4590   -1.8020    3.3960 i         1 IPP     -0.125900
     14 C5'        -5.8970    0.8320    2.1360 ca        1 IPP     -0.091500
     15 C6'        -5.4070    1.7010    1.1640 ca        1 IPP     -0.111500
     16 H           0.4570   -0.5260   -1.0670 hp        1 IPP     -0.203400
     17 H1          0.1100    1.7300   -0.2720 hx        1 IPP      0.112200
     18 H2         -1.3070    1.3720    0.7810 hx        1 IPP      0.112200
     19 HN         -2.1890    0.8840   -1.7700 hn        1 IPP      0.470800
     20 H21        -4.9340    3.0470   -1.0510 hc        1 IPP      0.096200
     21 H22        -4.3430    1.6330   -2.0330 hc        1 IPP      0.096200
     22 H2'        -4.0760   -0.6060   -1.0000 ha        1 IPP      0.161500
     23 H3'        -4.9390   -2.1390    0.7340 ha        1 IPP      0.157000
     24 H5'        -6.4040    1.2440    3.0220 ha        1 IPP      0.157000
     25 H6'        -5.5330    2.7870    1.2900 ha        1 IPP      0.161500
     26 HN3        -1.2370    2.2940   -1.9530 hn        1 IPP      0.470800
@<TRIPOS>BOND
     1    1    2 1   
     2    1    3 1   
     3    1    4 1   
     4    1   16 1   
     5    4    5 1   
     6    4   17 1   
     7    4   18 1   
     8    5    6 1   
     9    5   19 1   
    10    5   26 1   
    11    6    7 2   
    12    6    8 1   
    13    8    9 1   
    14    8   20 1   
    15    8   21 1   
    16    9   10 ar  
    17    9   15 ar  
    18   10   11 ar  
    19   10   22 1   
    20   11   12 ar  
    21   11   23 1   
    22   12   13 1   
    23   12   14 ar  
    24   14   15 ar  
    25   14   24 1   
    26   15   25 1   
@<TRIPOS>SUBSTRUCTURE
     1 IPP         1 TEMP              0 ****  ****    0 ROOT
