@<TRIPOS>MOLECULE
IPT
   33    33     1     0     0
SMALL
bcc


@<TRIPOS>ATOM
      1 C1         -0.2750   -0.3220    0.3040 c3        1 IPT      0.189200
      2 C2         -1.3640   -0.0610   -0.7410 c3        1 IPT      0.092100
      3 O2         -2.5830   -0.7020   -0.4060 oh        1 IPT     -0.607800
      4 C3         -0.9370   -0.6630   -2.0920 c3        1 IPT      0.113100
      5 O3         -1.8400   -0.2830   -3.1160 oh        1 IPT     -0.607800
      6 C4          0.4440   -0.1260   -2.5030 c3        1 IPT      0.127100
      7 O4          0.4000    1.2570   -2.8040 oh        1 IPT     -0.590800
      8 C5          1.4420   -0.3450   -1.3590 c3        1 IPT      0.094100
      9 O5          0.9790    0.1930   -0.1180 os        1 IPT     -0.399600
     10 C6          2.7700    0.3660   -1.6390 c3        1 IPT      0.143400
     11 O6          3.7180    0.0760   -0.6350 oh        1 IPT     -0.599800
     12 S1         -0.7010    0.5610    1.7920 ss        1 IPT     -0.299200
     13 C1'         0.3250   -0.2120    3.0390 c3        1 IPT      0.023400
     14 C2'         0.3670    0.7680    4.1840 c3        1 IPT     -0.090600
     15 C3'        -0.2170   -1.5490    3.4690 c3        1 IPT     -0.090600
     16 H1         -0.1850   -1.4220    0.5060 h2        1 IPT      0.065700
     17 H2         -1.5250    1.0480   -0.8590 h1        1 IPT      0.083700
     18 HO2        -2.8370   -0.3830    0.4710 ho        1 IPT      0.426000
     19 H3         -0.9080   -1.7840   -2.0110 h1        1 IPT      0.057700
     20 HO3        -2.7280   -0.4980   -2.7980 ho        1 IPT      0.431000
     21 H4          0.7940   -0.6880   -3.4160 h1        1 IPT      0.055700
     22 HO4        -0.3500    1.3890   -3.4000 ho        1 IPT      0.425000
     23 H5          1.6050   -1.4530   -1.2340 h1        1 IPT      0.052700
     24 H61         3.2130   -0.0290   -2.5910 h1        1 IPT      0.067200
     25 H62         2.5950    1.4710   -1.7200 h1        1 IPT      0.067200
     26 HO6         3.3700    0.4340    0.1920 ho        1 IPT      0.411000
     27 H1'         1.3520   -0.3420    2.6080 h1        1 IPT      0.080700
     28 H2'1        0.9960    0.3570    5.0120 hc        1 IPT      0.046700
     29 H2'2        0.8060    1.7410    3.8530 hc        1 IPT      0.046700
     30 H2'3       -0.6590    0.9560    4.5830 hc        1 IPT      0.046700
     31 H3'1       -1.2480   -1.4440    3.8870 hc        1 IPT      0.046700
     32 H3'2       -0.2540   -2.2580    2.6060 hc        1 IPT      0.046700
     33 H3'3        0.4400   -1.9920    4.2580 hc        1 IPT      0.046700
@<TRIPOS>BOND
     1    1    2 1   
     2    1    9 1   
     3    1   12 1   
     4    1   16 1   
     5    2    3 1   
     6    2    4 1   
     7    2   17 1   
     8    3   18 1   
     9    4    5 1   
    10    4    6 1   
    11    4   19 1   
    12    5   20 1   
    13    6    7 1   
    14    6    8 1   
    15    6   21 1   
    16    7   22 1   
    17    8    9 1   
    18    8   10 1   
    19    8   23 1   
    20   10   11 1   
    21   10   24 1   
    22   10   25 1   
    23   11   26 1   
    24   12   13 1   
    25   13   14 1   
    26   13   15 1   
    27   13   27 1   
    28   14   28 1   
    29   14   29 1   
    30   14   30 1   
    31   15   31 1   
    32   15   32 1   
    33   15   33 1   
@<TRIPOS>SUBSTRUCTURE
     1 IPT         1 TEMP              0 ****  ****    0 ROOT
