@<TRIPOS>MOLECULE
IPU
   18    17     1     0     0
SMALL
bcc


@<TRIPOS>ATOM
      1 C1          0.0530   -0.2640   -0.0810 c3        1 IPU     -0.113600
      2 C2          1.5080    0.0120    0.2050 c3        1 IPU      0.047400
      3 C3          1.8080    0.0320    1.6760 c3        1 IPU     -0.113600
      4 C           3.9750   -0.9700   -0.7290 c2        1 IPU      0.532100
      5 S           2.3010   -1.3630   -0.6550 ss        1 IPU     -0.223300
      6 N1          4.6880    0.0290   -0.3710 n2        1 IPU     -0.741100
      7 N2          4.7330   -2.0910   -1.3900 n4        1 IPU     -0.817600
      8 H11        -0.5740    0.5250    0.4080 hc        1 IPU      0.071533
      9 H12        -0.1530   -0.2430   -1.1800 hc        1 IPU      0.071533
     10 H13        -0.2580   -1.2560    0.3310 hc        1 IPU      0.071533
     11 H2          1.8270    0.9720   -0.2760 h1        1 IPU      0.086700
     12 H31         1.5180   -0.9330    2.1610 hc        1 IPU      0.071533
     13 H32         1.2220    0.8530    2.1640 hc        1 IPU      0.071533
     14 H33         2.8920    0.2190    1.8720 hc        1 IPU      0.071533
     15 HN1         4.2630    0.8150    0.0720 hn        1 IPU      0.488400
     16 HN21        4.3640   -2.2200   -2.3390 hn        1 IPU      0.475133
     17 HN22        4.5860   -2.9490   -0.8450 hn        1 IPU      0.475133
     18 H23         5.7420   -1.8930   -1.4440 hn        1 IPU      0.475133
@<TRIPOS>BOND
     1    1    2 1   
     2    1    8 1   
     3    1    9 1   
     4    1   10 1   
     5    2    3 1   
     6    2    5 1   
     7    2   11 1   
     8    3   12 1   
     9    3   13 1   
    10    3   14 1   
    11    4    5 1   
    12    4    6 2   
    13    4    7 1   
    14    6   15 1   
    15    7   16 1   
    16    7   17 1   
    17    7   18 1   
@<TRIPOS>SUBSTRUCTURE
     1 IPU         1 TEMP              0 ****  ****    0 ROOT
