@<TRIPOS>MOLECULE
IPU
   17    14     1     0     0
SMALL
bcc


@<TRIPOS>ATOM
      1 C1         -1.9590    0.1490    0.5140 c3        1 IPU     -0.088600
      2 C2         -0.4580    0.2870    0.6470 c3        1 IPU     -0.069400
      3 C3         -0.0840    0.3290    2.1130 c3        1 IPU     -0.088600
      4 C           1.3760   -0.5250   -1.4410 c1        1 IPU      0.363600
      5 S           0.3340   -1.0980   -0.1250 s         1 IPU     -0.033300
      6 N1          2.6290   -0.2370   -1.2040 n1        1 IPU     -0.606800
      7 N2          0.8500   -0.3800   -2.7500 n3        1 IPU     -0.797400
      8 H11        -2.2520   -0.6750    0.9570 hc        1 IPU      0.045533
      9 H12        -2.3960    0.9190    0.9330 hc        1 IPU      0.045533
     10 H13        -2.2000    0.1120   -0.4360 hc        1 IPU      0.045533
     11 H2         -0.1680    1.1120    0.2140 h1        1 IPU      0.088700
     12 H31         0.8790    0.4900    2.2000 hc        1 IPU      0.045533
     13 H32        -0.5780    1.0520    2.5550 hc        1 IPU      0.045533
     14 H33        -0.3120   -0.5270    2.5330 hc        1 IPU      0.045533
     15 HN1         2.9670   -0.3310   -0.3610 DU        1 IPU      0.169000
     16 HN21        1.2480    0.1920   -3.3420 hn        1 IPU      0.393800
     17 HN22        0.1230   -0.8700   -3.0080 hn        1 IPU      0.393800
@<TRIPOS>BOND
     1    1    2 1   
     2    1    8 1   
     3    1    9 1   
     4    1   10 1   
     5    2    3 1   
     6    2    5 1   
     7    2   11 1   
     8    3   12 1   
     9    3   13 1   
    10    3   14 1   
    11    4    6 3   
    12    4    7 1   
    13    7   16 1   
    14    7   17 1   
@<TRIPOS>SUBSTRUCTURE
     1 IPU         1 TEMP              0 ****  ****    0 ROOT
