@<TRIPOS>MOLECULE
IPU
   17    16     1     0     0
SMALL
bcc


@<TRIPOS>ATOM
      1 C1         -0.5680    0.2870    2.5170 c3        1 IPU     -0.092600
      2 C2          0.3800    0.2170    1.3460 c3        1 IPU      0.035400
      3 C3          1.4880   -0.7750    1.5790 c3        1 IPU     -0.092600
      4 C           0.1810    0.1520   -1.5060 c2        1 IPU      0.648100
      5 S          -0.6730   -0.2610   -0.0230 ss        1 IPU     -0.271300
      6 N1          1.3070    0.7880   -1.4510 n2        1 IPU     -0.862100
      7 N2         -0.4840   -0.3510   -2.6390 nh        1 IPU     -0.937800
      8 H11        -1.0720   -0.6970    2.6810 hc        1 IPU      0.047700
      9 H12        -0.0010    0.5480    3.4450 hc        1 IPU      0.047700
     10 H13        -1.3500    1.0670    2.3490 hc        1 IPU      0.047700
     11 H2          0.8190    1.2280    1.1440 h1        1 IPU      0.093700
     12 H31         1.0750   -1.8000    1.7480 hc        1 IPU      0.047700
     13 H32         2.1790   -0.8070    0.7030 hc        1 IPU      0.047700
     14 H33         2.0780   -0.4790    2.4820 hc        1 IPU      0.047700
     15 HN1         1.7540    1.0070   -2.3150 hn        1 IPU      0.390400
     16 HN21       -0.3330    0.1350   -3.4930 hn        1 IPU      0.401300
     17 HN22       -1.4280   -0.6280   -2.4910 hn        1 IPU      0.401300
@<TRIPOS>BOND
     1    1    2 1   
     2    1    8 1   
     3    1    9 1   
     4    1   10 1   
     5    2    3 1   
     6    2    5 1   
     7    2   11 1   
     8    3   12 1   
     9    3   13 1   
    10    3   14 1   
    11    4    5 1   
    12    4    6 2   
    13    4    7 1   
    14    6   15 1   
    15    7   16 1   
    16    7   17 1   
@<TRIPOS>SUBSTRUCTURE
     1 IPU         1 TEMP              0 ****  ****    0 ROOT
