@<TRIPOS>MOLECULE
IPU
   18    17     1     0     0
SMALL
bcc


@<TRIPOS>ATOM
      1 C1          0.0600   -0.2230   -0.1030 c3        1 IPU     -0.113600
      2 C2          1.5170    0.0290    0.1950 c3        1 IPU      0.047400
      3 C3          1.8040    0.0470    1.6690 c3        1 IPU     -0.113600
      4 C           3.9750   -0.9970   -0.7150 c2        1 IPU      0.532100
      5 S           2.2940   -1.3610   -0.6560 ss        1 IPU     -0.223300
      6 N1          4.7020   -0.0100   -0.3530 n2        1 IPU     -0.741100
      7 N2          4.7190   -2.1330   -1.3660 nz        1 IPU     -0.818600
      8 H11        -0.5580    0.5790    0.3780 hc        1 IPU      0.071533
      9 H12        -0.1370   -0.2020   -1.2040 hc        1 IPU      0.071533
     10 H13        -0.2720   -1.2090    0.3080 hc        1 IPU      0.071533
     11 H2          1.8560    0.9830   -0.2850 h1        1 IPU      0.086700
     12 H31         1.4940   -0.9120    2.1530 hc        1 IPU      0.071533
     13 H32         1.2270    0.8780    2.1500 hc        1 IPU      0.071533
     14 H33         2.8890    0.2160    1.8730 hc        1 IPU      0.071533
     15 HN1         4.2860    0.7840    0.0850 hn        1 IPU      0.488400
     16 HN21        4.3610   -2.2540   -2.3200 hn        1 IPU      0.475133
     17 HN22        4.5480   -2.9870   -0.8240 hn        1 IPU      0.475133
     18 H23         5.7330   -1.9540   -1.4060 hn        1 IPU      0.475133
@<TRIPOS>BOND
     1    1    2 1   
     2    1    8 1   
     3    1    9 1   
     4    1   10 1   
     5    2    3 1   
     6    2    5 1   
     7    2   11 1   
     8    3   12 1   
     9    3   13 1   
    10    3   14 1   
    11    4    5 1   
    12    4    6 2   
    13    4    7 1   
    14    6   15 1   
    15    7   16 1   
    16    7   17 1   
    17    7   18 1   
@<TRIPOS>SUBSTRUCTURE
     1 IPU         1 TEMP              0 ****  ****    0 ROOT
