@<TRIPOS>MOLECULE
IPU
   18    17     1     0     0
SMALL
bcc


@<TRIPOS>ATOM
      1 C1          0.0450   -0.3340    0.0320 c3        1 IPU     -0.113600
      2 C2          1.5040   -0.0040    0.2250 c3        1 IPU      0.047400
      3 C3          1.8790    0.1010    1.6760 c3        1 IPU     -0.113600
      4 C           3.9470   -0.9640   -0.7890 c2        1 IPU      0.532100
      5 S           2.2920   -1.4000   -0.6050 ss        1 IPU     -0.223300
      6 N1          4.6470    0.0700   -0.5200 n2        1 IPU     -0.741100
      7 N2          4.7030   -2.0970   -1.4330 n4        1 IPU     -0.817600
      8 H11        -0.5800    0.4610    0.5150 hc        1 IPU      0.071533
      9 H12        -0.2190   -0.3750   -1.0530 hc        1 IPU      0.071533
     10 H13        -0.2140   -1.3120    0.5090 hc        1 IPU      0.071533
     11 H2          1.7680    0.9390   -0.3200 h1        1 IPU      0.086700
     12 H31         2.9650    0.3280    1.8040 hc        1 IPU      0.071533
     13 H32         1.6430   -0.8450    2.2240 hc        1 IPU      0.071533
     14 H33         1.2950    0.9300    2.1520 hc        1 IPU      0.071533
     15 HN1         4.2230    0.8660   -0.0940 hn        1 IPU      0.488400
     16 HN21        5.7000   -1.8710   -1.5580 hn        1 IPU      0.475133
     17 HN22        4.6170   -2.9270   -0.8350 hn        1 IPU      0.475133
     18 H23         4.2830   -2.2900   -2.3500 hn        1 IPU      0.475133
@<TRIPOS>BOND
     1    1    2 1   
     2    1    8 1   
     3    1    9 1   
     4    1   10 1   
     5    2    3 1   
     6    2    5 1   
     7    2   11 1   
     8    3   12 1   
     9    3   13 1   
    10    3   14 1   
    11    4    5 1   
    12    4    6 2   
    13    4    7 1   
    14    6   15 1   
    15    7   16 1   
    16    7   17 1   
    17    7   18 1   
@<TRIPOS>SUBSTRUCTURE
     1 IPU         1 TEMP              0 ****  ****    0 ROOT
