@<TRIPOS>MOLECULE
IPX
   49    50     1     0     0
SMALL
bcc


@<TRIPOS>ATOM
      1 C1         -1.2530   -0.4230    0.7130 c1        1 IPX     -0.151000
      2 C2         -1.8970   -5.0860   -1.7670 c2        1 IPX     -0.183000
      3 C3         -1.1050   -5.8270   -0.8720 c2        1 IPX      0.147000
      4 C4         -2.9640   -5.7090   -2.4720 c2        1 IPX      0.019000
      5 C5         -1.4200   -7.2880   -0.6670 c3        1 IPX     -0.189000
      6 C6         -3.2690   -7.0510   -2.2870 c2        1 IPX     -0.060000
      7 C7         -2.5310   -7.8640   -1.4010 c1        1 IPX     -0.114000
      8 N8         -0.0760   -5.2750   -0.1850 n3        1 IPX     -0.344000
      9 C9         -1.4490   -2.5560   -2.1920 c1        1 IPX     -0.251000
     10 C10        -1.6500   -3.7240   -1.9950 c1        1 IPX     -0.050000
     11 C12        -1.1810   -1.1710   -2.4050 c2        1 IPX      0.267000
     12 O13        -1.4780   -0.5750   -3.4420 o         1 IPX     -0.272000
     13 N14        -2.2260   -1.2810    0.8270 n3        1 IPX     -0.228000
     14 C15         1.8460   -0.1850    0.7600 c3        1 IPX     -0.211000
     15 C16         1.5020   -0.4880    2.2000 c3        1 IPX     -0.042000
     16 C17         0.1590    0.0570    2.6560 c2        1 IPX     -0.045000
     17 C18        -0.9400    0.5720    1.7980 c3        1 IPX     -0.082000
     18 C19         2.5760    0.0720    3.1210 c2        1 IPX     -0.152000
     19 C20         2.3500    0.4160    4.4070 c2        1 IPX     -0.149000
     20 C21         1.0250    0.0690    4.9560 c2        1 IPX     -0.082000
     21 C22         0.1150    0.0630    3.9900 c1        1 IPX     -0.191000
     22 C23        -0.6360    1.9110    1.1300 c3        1 IPX     -0.129000
     23 C24        -0.5380    3.0230    2.1550 c3        1 IPX     -0.164000
     24 C25        -0.2120    4.3300    1.5060 cx        1 IPX     -0.034000
     25 C26        -0.3100    5.5850    2.2360 cu        1 IPX      0.284000
     26 O27        -1.3430    5.2920    1.3820 os        1 IPX     -0.267000
     27 O28        -0.0820    6.5140    2.9710 o         1 IPX     -0.224000
     28 H1         -2.8460   -1.3750    1.6070 hn        1 IPX      0.200000
     29 H7         -1.6290   -7.4760    0.4290 hc        1 IPX      0.166000
     30 HN8         0.4820   -5.8330    0.4120 hn        1 IPX      0.239500
     31 H10         0.1760   -4.3270   -0.3290 hn        1 IPX      0.239500
     32 HN14       -0.6880   -0.6610   -1.5370 h4        1 IPX      0.157000
     33 H15         0.9770   -0.4080    0.0900 hc        1 IPX      0.089000
     34 H15A        2.7160   -0.8130    0.4470 hc        1 IPX      0.089000
     35 H18         2.1340    0.8860    0.6340 hc        1 IPX      0.089000
     36 H19         1.5130   -1.6110    2.3370 hc        1 IPX      0.104000
     37 H20         3.5740    0.1540    2.6670 ha        1 IPX      0.137000
     38 H21         3.1150    0.8350    5.0710 ha        1 IPX      0.144000
     39 H22         0.9130   -0.2490    5.9940 ha        1 IPX      0.159000
     40 H23        -1.8320    0.7460    2.4780 hc        1 IPX      0.086000
     41 H23A       -1.4610    2.1420    0.4040 hc        1 IPX      0.098000
     42 H24         0.3140    1.8410    0.5420 hc        1 IPX      0.098000
     43 H24A       -1.5060    3.1090    2.7180 hc        1 IPX      0.112500
     44 H25         0.2670    2.7780    2.9000 hc        1 IPX      0.112500
     45 H25A        0.4060    4.2720    0.5860 h1        1 IPX      0.153000
     46 F11        -4.3050   -7.5940   -2.9810 f         1 IPX     -0.099000
     47 H4         -3.5490   -5.0910   -3.1750 ha        1 IPX      0.157000
     48 H142       -2.3950   -1.9050    0.0660 hn        1 IPX      0.200000
     49 H5         -0.5110   -7.9070   -0.9350 hc        1 IPX      0.166000
@<TRIPOS>BOND
     1    1   13 1   
     2    1   17 1   
     3    2    3 1   
     4    2    4 1   
     5    2   10 1   
     6    3    5 1   
     7    3    8 1   
     8    4    6 1   
     9    4   47 1   
    10    5    7 1   
    11    5   29 1   
    12    5   49 1   
    13    6    7 1   
    14    6   46 1   
    15    8   30 1   
    16    8   31 1   
    17    9   10 1   
    18    9   11 1   
    19   11   12 1   
    20   11   32 1   
    21   13   28 1   
    22   13   48 1   
    23   14   15 1   
    24   14   33 1   
    25   14   34 1   
    26   14   35 1   
    27   15   16 1   
    28   15   18 1   
    29   15   36 1   
    30   16   17 1   
    31   16   21 1   
    32   17   22 1   
    33   17   40 1   
    34   18   19 1   
    35   18   37 1   
    36   19   20 1   
    37   19   38 1   
    38   20   21 1   
    39   20   39 1   
    40   22   23 1   
    41   22   41 1   
    42   22   42 1   
    43   23   24 1   
    44   23   43 1   
    45   23   44 1   
    46   24   25 1   
    47   24   26 1   
    48   24   45 1   
    49   25   26 1   
    50   25   27 1   
@<TRIPOS>SUBSTRUCTURE
     1 IPX         1 TEMP              0 ****  ****    0 ROOT
