@<TRIPOS>MOLECULE
IPX
   48    51     1     0     0
SMALL
bcc


@<TRIPOS>ATOM
      1 C1          1.1320    1.5840    1.0460 c3        1 IPX      0.103700
      2 C2         -4.1370   -1.1060   -0.0190 ca        1 IPX     -0.110800
      3 C3         -3.0390   -1.7520   -0.7080 ca        1 IPX     -0.039200
      4 C4         -5.4480   -1.5220   -0.2710 ca        1 IPX     -0.131000
      5 C5         -3.2570   -2.8090   -1.6170 ca        1 IPX     -0.084000
      6 C6         -5.6460   -2.5600   -1.1790 ca        1 IPX      0.073900
      7 C7         -4.5580   -3.2000   -1.8440 ca        1 IPX     -0.166000
      8 N8         -1.8500   -1.1540   -0.3160 na        1 IPX     -0.141400
      9 C9         -2.1600   -0.1730    0.6320 cc        1 IPX     -0.145300
     10 C10        -3.5470   -0.1090    0.8330 cd        1 IPX     -0.145200
     11 C12        -1.1270    0.6480    1.3070 c         1 IPX      0.692300
     12 O13        -1.1610    0.8720    2.5320 o         1 IPX     -0.601100
     13 N14        -0.1400    1.1960    0.4980 n         1 IPX     -0.554900
     14 C15         1.2550    3.0890    1.4300 c3        1 IPX     -0.049100
     15 C16         2.6960    3.3970    1.2080 ca        1 IPX     -0.083300
     16 C17         3.3260    2.3690    0.4630 ca        1 IPX     -0.074300
     17 C18         2.3390    1.3100    0.0820 c3        1 IPX     -0.036400
     18 C19         3.4150    4.5030    1.6310 ca        1 IPX     -0.124000
     19 C20         4.7760    4.5890    1.3080 ca        1 IPX     -0.139000
     20 C21         5.3960    3.5800    0.5760 ca        1 IPX     -0.138000
     21 C22         4.6720    2.4600    0.1450 ca        1 IPX     -0.115000
     22 C23         2.8310   -0.1220    0.1700 c3        1 IPX     -0.076400
     23 C24         2.2000   -0.9890   -0.9050 c3        1 IPX     -0.068400
     24 C25         2.1280   -2.4470   -0.5210 c3        1 IPX     -0.198400
     25 C26         1.2050   -3.2130   -1.4800 c         1 IPX      0.915600
     26 O27         0.0330   -2.7580   -1.6850 o         1 IPX     -0.852800
     27 O28         1.6350   -4.2650   -2.0220 o         1 IPX     -0.852800
     28 H1          1.2990    0.9970    2.0010 h1        1 IPX      0.072700
     29 H5         -2.3890   -3.2890   -2.1070 ha        1 IPX      0.197000
     30 H7         -4.7820   -4.0190   -2.5430 ha        1 IPX      0.137000
     31 HN8        -0.9370   -1.4970   -0.5810 hn        1 IPX      0.371700
     32 H10        -4.0670    0.5620    1.5080 ha        1 IPX      0.154000
     33 HN14       -0.1550    0.9810   -0.4730 hn        1 IPX      0.317500
     34 H15         0.6120    3.7360    0.7810 hc        1 IPX      0.063200
     35 H15A        0.9450    3.2440    2.4920 hc        1 IPX      0.063200
     36 H18         2.0310    1.5220   -0.9830 hc        1 IPX      0.067700
     37 H19         2.9300    5.3000    2.2110 ha        1 IPX      0.128000
     38 H20         5.3560    5.4610    1.6400 ha        1 IPX      0.120000
     39 H21         6.4640    3.6590    0.3310 ha        1 IPX      0.122000
     40 H22         5.1690    1.6690   -0.4350 ha        1 IPX      0.138000
     41 H23         3.9470   -0.1430    0.0540 hc        1 IPX      0.041200
     42 H23A        2.6060   -0.5430    1.1850 hc        1 IPX      0.041200
     43 H24         1.1540   -0.6400   -1.1270 hc        1 IPX      0.038200
     44 H24A        2.7810   -0.8800   -1.8580 hc        1 IPX      0.038200
     45 H25         3.1470   -2.9080   -0.5380 hc        1 IPX      0.031700
     46 H25A        1.7160   -2.5580    0.5140 hc        1 IPX      0.031700
     47 F11        -6.9090   -2.9880   -1.4480 f         1 IPX     -0.167900
     48 H4         -6.2970   -1.0460    0.2350 ha        1 IPX      0.134000
@<TRIPOS>BOND
     1    1   13 1   
     2    1   14 1   
     3    1   17 1   
     4    1   28 1   
     5    2    3 ar  
     6    2    4 ar  
     7    2   10 1   
     8    3    5 ar  
     9    3    8 1   
    10    4    6 ar  
    11    4   48 1   
    12    5    7 ar  
    13    5   29 1   
    14    6    7 ar  
    15    6   47 1   
    16    7   30 1   
    17    8    9 1   
    18    8   31 1   
    19    9   10 2   
    20    9   11 1   
    21   10   32 1   
    22   11   12 2   
    23   11   13 1   
    24   13   33 1   
    25   14   15 1   
    26   14   34 1   
    27   14   35 1   
    28   15   16 ar  
    29   15   18 ar  
    30   16   17 1   
    31   16   21 ar  
    32   17   22 1   
    33   17   36 1   
    34   18   19 ar  
    35   18   37 1   
    36   19   20 ar  
    37   19   38 1   
    38   20   21 ar  
    39   20   39 1   
    40   21   40 1   
    41   22   23 1   
    42   22   41 1   
    43   22   42 1   
    44   23   24 1   
    45   23   43 1   
    46   23   44 1   
    47   24   25 1   
    48   24   45 1   
    49   24   46 1   
    50   25   26 1   
    51   25   27 1   
@<TRIPOS>SUBSTRUCTURE
     1 IPX         1 TEMP              0 ****  ****    0 ROOT
