@<TRIPOS>MOLECULE
IPX
   49    50     1     0     0
SMALL
bcc


@<TRIPOS>ATOM
      1 C1         -1.0410   -0.4880    0.6920 c1        1 IPX     -0.134100
      2 C2         -1.8130   -4.9720   -1.4260 ca        1 IPX     -0.035000
      3 C3         -1.8860   -5.4140   -0.0740 ca        1 IPX      0.148600
      4 C4         -2.3810   -5.7390   -2.4510 ca        1 IPX     -0.095000
      5 C5         -2.5430   -6.6380    0.2000 ca        1 IPX     -0.173000
      6 C6         -3.0300   -6.9440   -2.1500 ca        1 IPX      0.080900
      7 C7         -3.1100   -7.3890   -0.8160 ca        1 IPX     -0.109000
      8 N8         -1.3930   -4.6220    0.9670 nv        1 IPX     -0.821200
      9 C9         -0.6600   -2.7070   -2.0040 cg        1 IPX     -0.180200
     10 C10        -1.1850   -3.7550   -1.7430 ch        1 IPX     -0.068000
     11 C12        -0.0580   -1.4320   -2.2400 c         1 IPX      0.563100
     12 O13         0.5030   -1.1300   -3.2950 o         1 IPX     -0.513100
     13 N14        -1.8810   -1.4690    0.8500 n8        1 IPX     -0.628600
     14 C15         2.5920    1.5920    1.2270 c3        1 IPX     -0.083100
     15 C16         1.8220    0.2920    1.2740 c3        1 IPX     -0.006300
     16 C17         0.6590    0.2670    2.2510 c2        1 IPX     -0.121500
     17 C18        -0.7370    0.4890    1.7970 c3        1 IPX     -0.067400
     18 C19         2.7570   -0.8560    1.5970 c2        1 IPX     -0.149200
     19 C20         2.8270   -1.4600    2.8040 ce        1 IPX     -0.152000
     20 C21         2.0950   -0.8210    3.9110 ce        1 IPX     -0.148100
     21 C22         1.0450   -0.1510    3.4510 c1        1 IPX     -0.054800
     22 C23        -0.9510    1.8910    1.2290 c3        1 IPX     -0.052400
     23 C24        -0.7660    2.9500    2.2950 c3        1 IPX     -0.084400
     24 C25        -1.0240    4.3170    1.7450 cx        1 IPX      0.026100
     25 C26        -1.3220    5.4440    2.6150 c         1 IPX      0.700600
     26 O27        -2.3900    4.8640    1.9780 os        1 IPX     -0.429900
     27 O28        -1.2210    6.3690    3.3840 o         1 IPX     -0.498500
     28 H1         -2.0400   -2.0860    0.0800 hn        1 IPX      0.408800
     29 H7         -3.6230   -8.3360   -0.5910 ha        1 IPX      0.154000
     30 HN8        -1.2330   -5.1190    1.8170 hn        1 IPX      0.398300
     31 H10        -0.6270   -4.0360    0.7090 hn        1 IPX      0.398300
     32 HN14       -0.1450   -0.7270   -1.3700 h4        1 IPX      0.077200
     33 H15         3.4320    1.5190    0.4950 hc        1 IPX      0.042033
     34 H15A        3.0140    1.8350    2.2320 hc        1 IPX      0.042033
     35 H18         1.9160    2.4250    0.9160 hc        1 IPX      0.042033
     36 H19         1.3600    0.0930    0.2600 hc        1 IPX      0.101700
     37 H20         3.4100   -1.1570    0.7650 ha        1 IPX      0.136000
     38 H21         3.4830   -2.3130    3.0170 ha        1 IPX      0.138000
     39 H22         2.4970   -0.8290    4.9260 ha        1 IPX      0.157000
     40 H23        -1.4180    0.3740    2.6940 hc        1 IPX      0.044700
     41 H23A       -0.2320    2.0620    0.3850 hc        1 IPX      0.056700
     42 H24        -1.9890    1.9580    0.8090 hc        1 IPX      0.056700
     43 H24A        0.2890    2.9130    2.6830 hc        1 IPX      0.072700
     44 H25        -1.4540    2.7480    3.1590 hc        1 IPX      0.072700
     45 H25A       -0.6590    4.4960    0.7130 h1        1 IPX      0.112700
     46 F11        -3.5810   -7.6840   -3.1430 f         1 IPX     -0.136900
     47 H4         -2.3190   -5.3950   -3.4950 ha        1 IPX      0.163000
     48 H142       -2.3890   -1.6870    1.6830 hn        1 IPX      0.408800
     49 H5         -2.6130   -7.0020    1.2370 ha        1 IPX      0.143000
@<TRIPOS>BOND
     1    1   13 3   
     2    1   17 1   
     3    2    3 ar  
     4    2    4 ar  
     5    2   10 1   
     6    3    5 ar  
     7    3    8 1   
     8    4    6 ar  
     9    4   47 1   
    10    5    7 ar  
    11    5   49 1   
    12    6    7 ar  
    13    6   46 1   
    14    7   29 1   
    15    8   30 1   
    16    8   31 1   
    17    9   10 3   
    18    9   11 1   
    19   11   12 2   
    20   11   32 1   
    21   13   28 1   
    22   13   48 1   
    23   14   15 1   
    24   14   33 1   
    25   14   34 1   
    26   14   35 1   
    27   15   16 1   
    28   15   18 1   
    29   15   36 1   
    30   16   17 1   
    31   16   21 2   
    32   17   22 1   
    33   17   40 1   
    34   18   19 2   
    35   18   37 1   
    36   19   20 1   
    37   19   38 1   
    38   20   21 2   
    39   20   39 1   
    40   22   23 1   
    41   22   41 1   
    42   22   42 1   
    43   23   24 1   
    44   23   43 1   
    45   23   44 1   
    46   24   25 1   
    47   24   26 1   
    48   24   45 1   
    49   25   26 1   
    50   25   27 2   
@<TRIPOS>SUBSTRUCTURE
     1 IPX         1 TEMP              0 ****  ****    0 ROOT
