@<TRIPOS>MOLECULE
IPX
   49    50     1     0     0
SMALL
bcc


@<TRIPOS>ATOM
      1 C1          0.4250   -1.7440    0.8380 c1        1 IPX     -0.194000
      2 C2         -2.4940   -4.2060   -1.5750 c2        1 IPX     -0.226000
      3 C3         -2.9730   -3.5960   -0.3880 c2        1 IPX      0.170000
      4 C4         -3.3720   -4.9520   -2.4020 c2        1 IPX      0.029000
      5 C5         -4.4300   -3.7950   -0.0290 c3        1 IPX     -0.191000
      6 C6         -4.7150   -5.1220   -2.0860 c2        1 IPX     -0.076000
      7 C7         -5.2720   -4.5740   -0.9190 c1        1 IPX     -0.126000
      8 N8         -2.2050   -2.8590    0.4250 n3        1 IPX     -0.318000
      9 C9         -0.0190   -4.0650   -2.3580 c1        1 IPX     -0.328000
     10 C10        -1.1580   -4.1070   -1.9700 c1        1 IPX      0.042000
     11 C12         1.3020   -4.0480   -2.8620 c2        1 IPX      0.315000
     12 O13         2.2630   -3.5420   -2.2680 o         1 IPX     -0.332000
     13 N14         1.4710   -2.2290    0.2400 n3        1 IPX     -0.204000
     14 C15         1.5420    1.2060   -0.1980 c3        1 IPX     -0.203000
     15 C16         2.4510    0.8370    0.9540 c3        1 IPX     -0.050000
     16 C17         1.7880    0.0090    2.0430 c2        1 IPX     -0.089000
     17 C18         0.5050   -0.7350    1.9400 c3        1 IPX     -0.079000
     18 C19         3.0060    2.1050    1.5880 c2        1 IPX     -0.148000
     19 C20         3.3970    2.1870    2.8780 c2        1 IPX     -0.147000
     20 C21         3.4270    0.9200    3.6340 c2        1 IPX     -0.082000
     21 C22         2.5190    0.0810    3.1560 c1        1 IPX     -0.178000
     22 C23        -0.7170    0.1770    1.8910 c3        1 IPX     -0.125000
     23 C24        -1.0140    0.7710    3.2540 c3        1 IPX     -0.163000
     24 C25        -2.2440    1.6210    3.2000 cx        1 IPX     -0.036000
     25 C26        -3.1640    1.7070    4.3240 cu        1 IPX      0.288000
     26 O27        -3.5380    0.8860    3.2880 os        1 IPX     -0.276000
     27 O28        -3.6800    1.9970    5.3750 o         1 IPX     -0.217000
     28 H1          1.3500   -2.9230   -0.4720 hn        1 IPX      0.218000
     29 H7         -4.9280   -2.7840    0.0750 hc        1 IPX      0.163000
     30 HN8        -2.6110   -2.4620    1.2400 hn        1 IPX      0.262500
     31 H10        -1.2260   -2.6390    0.2560 hn        1 IPX      0.262500
     32 HN14        1.4290   -4.5370   -3.8560 h4        1 IPX      0.116000
     33 H15         2.1610    1.5480   -1.0640 hc        1 IPX      0.084667
     34 H15A        0.8560    2.0410    0.0840 hc        1 IPX      0.084667
     35 H18         0.9270    0.3330   -0.5250 hc        1 IPX      0.084667
     36 H19         3.3360    0.2690    0.5380 hc        1 IPX      0.110000
     37 H20         3.0980    2.9600    0.9020 ha        1 IPX      0.139000
     38 H21         3.7830    3.1010    3.3420 ha        1 IPX      0.145000
     39 H22         4.2030    0.7280    4.3780 ha        1 IPX      0.162000
     40 H23         0.4090   -1.3670    2.8830 hc        1 IPX      0.131000
     41 H23A       -1.6050   -0.4190    1.5510 hc        1 IPX      0.093500
     42 H24        -0.5630    0.9980    1.1460 hc        1 IPX      0.093500
     43 H24A       -1.1460   -0.0510    4.0070 hc        1 IPX      0.111500
     44 H25        -0.1520    1.4070    3.5920 hc        1 IPX      0.111500
     45 H25A       -2.2480    2.4070    2.4180 h1        1 IPX      0.152000
     46 F11        -5.5020   -5.8460   -2.9310 f         1 IPX     -0.106000
     47 H4         -2.9580   -5.4050   -3.3210 ha        1 IPX      0.145000
     48 H142        2.4160   -1.9440    0.4010 hn        1 IPX      0.218000
     49 H5         -4.4940   -4.2930    0.9850 hc        1 IPX      0.163000
@<TRIPOS>BOND
     1    1   13 1   
     2    1   17 1   
     3    2    3 1   
     4    2    4 1   
     5    2   10 1   
     6    3    5 1   
     7    3    8 1   
     8    4    6 1   
     9    4   47 1   
    10    5    7 1   
    11    5   29 1   
    12    5   49 1   
    13    6    7 1   
    14    6   46 1   
    15    8   30 1   
    16    8   31 1   
    17    9   10 1   
    18    9   11 1   
    19   11   12 1   
    20   11   32 1   
    21   13   28 1   
    22   13   48 1   
    23   14   15 1   
    24   14   33 1   
    25   14   34 1   
    26   14   35 1   
    27   15   16 1   
    28   15   18 1   
    29   15   36 1   
    30   16   17 1   
    31   16   21 1   
    32   17   22 1   
    33   17   40 1   
    34   18   19 1   
    35   18   37 1   
    36   19   20 1   
    37   19   38 1   
    38   20   21 1   
    39   20   39 1   
    40   22   23 1   
    41   22   41 1   
    42   22   42 1   
    43   23   24 1   
    44   23   43 1   
    45   23   44 1   
    46   24   25 1   
    47   24   26 1   
    48   24   45 1   
    49   25   26 1   
    50   25   27 1   
@<TRIPOS>SUBSTRUCTURE
     1 IPX         1 TEMP              0 ****  ****    0 ROOT
