@<TRIPOS>MOLECULE
IPY
   89    92     1     0     0
SMALL
bcc


@<TRIPOS>ATOM
      1 C          -6.6510   -0.4420    1.6440 cc        1 IPY     -0.019400
      2 C1         -0.2310    0.0310   -0.2760 cc        1 IPY     -0.143000
      3 C2         -6.3130   -1.7880    1.9650 cd        1 IPY     -0.171300
      4 C3         -4.2670   -3.2190    1.8390 c3        1 IPY      0.018600
      5 C4         -4.4470   -0.8040    1.1440 cd        1 IPY     -0.200900
      6 C5         -3.0420   -0.6810    0.7180 c         1 IPY      0.719700
      7 C6         -1.4040    0.8600   -0.2740 cc        1 IPY     -0.001400
      8 C8         -1.0280    2.1090   -0.8440 cd        1 IPY     -0.178300
      9 C10         0.8130    0.7950   -0.8390 cd        1 IPY     -0.210900
     10 C11         2.2120    0.3710   -1.0170 c         1 IPY      0.731700
     11 C12         3.6460   -1.5900   -1.3380 cc        1 IPY     -0.024400
     12 C13         4.8610   -0.9960   -1.8210 cc        1 IPY     -0.172000
     13 C14         3.9470   -2.9420   -1.0120 cd        1 IPY     -0.163300
     14 C16         5.8570   -1.9920   -1.7570 cd        1 IPY     -0.204900
     15 C18         9.2290    0.3890    0.8220 c3        1 IPY      0.083000
     16 C19         7.8460    0.0480    1.3970 c3        1 IPY     -0.137400
     17 C20         7.1270    1.2580    1.9750 c3        1 IPY      0.112800
     18 C21         5.3860    1.8320    0.3280 c3        1 IPY      0.092100
     19 C22         6.5500    3.6030    1.5330 c3        1 IPY      0.092100
     20 C23         7.2890   -1.8180   -2.0670 c         1 IPY      0.704700
     21 C25        -9.6460    1.8280    1.7590 cc        1 IPY      0.317000
     22 C26       -11.7590    1.8520    2.3500 cd        1 IPY      0.294200
     23 C27       -11.4670    3.1380    1.8340 cc        1 IPY     -0.233600
     24 C29         8.9430   -0.6070   -3.4400 c3        1 IPY      0.086000
     25 C30         9.4230    0.7750   -2.9900 c3        1 IPY     -0.174400
     26 C31         9.1360    1.0950   -1.5400 c         1 IPY      0.680100
     27 C32        -5.4640    0.1750    1.1250 cc        1 IPY     -0.145000
     28 O1         -2.2250   -1.6210    0.8240 o         1 IPY     -0.629100
     29 O2          3.1780    1.1720   -0.9890 o         1 IPY     -0.684100
     30 O3          8.1930   -2.4060   -1.4290 o         1 IPY     -0.643100
     31 O5          8.6930    2.2260   -1.2140 o         1 IPY     -0.689100
     32 N          -4.9810   -1.9930    1.6590 na        1 IPY     -0.004100
     33 N1         -2.6740    0.5510    0.1890 n         1 IPY     -0.441100
     34 N3          0.3210    2.0650   -1.1620 na        1 IPY     -0.011100
     35 N4          2.4010   -0.9880   -1.2040 n         1 IPY     -0.434100
     36 N5          5.2900   -3.1700   -1.2620 na        1 IPY      0.001900
     37 N6          9.3960    0.1450   -0.5820 n         1 IPY     -0.558900
     38 N7          6.6730    2.2460    0.9440 n4        1 IPY     -0.698400
     39 N8         -7.9100    0.1170    1.8210 n         1 IPY     -0.422100
     40 N9        -10.1300    3.1180    1.4620 na        1 IPY     -0.143900
     41 N10       -10.6330    1.0540    2.2990 nd        1 IPY     -0.647000
     42 N11         7.5930   -0.9140   -3.0640 n         1 IPY     -0.570900
     43 H1         -0.1770   -0.9850    0.1120 ha        1 IPY      0.187000
     44 H2         -6.9380   -2.5800    2.3800 h4        1 IPY      0.180000
     45 H31        -3.8500   -3.5620    0.8530 h1        1 IPY      0.065700
     46 H32A       -3.4070   -3.0560    2.5440 h1        1 IPY      0.065700
     47 H33        -4.9580   -4.0000    2.2540 h1        1 IPY      0.065700
     48 H8         -1.6300    2.9990   -1.0280 h4        1 IPY      0.181000
     49 H91         2.1110    3.0520   -1.6220 h1        1 IPY      0.064700
     50 H92         0.8770    2.9790   -2.9720 h1        1 IPY      0.064700
     51 H93         0.6050    4.0980   -1.5510 h1        1 IPY      0.064700
     52 H13         4.9730    0.0300   -2.1610 ha        1 IPY      0.170000
     53 H14         3.2910   -3.7310   -0.6390 h4        1 IPY      0.188000
     54 H151        5.8170   -5.0340   -2.0730 h1        1 IPY      0.075367
     55 H152        7.0350   -4.2860   -0.9270 h1        1 IPY      0.075367
     56 H153        5.4780   -5.0050   -0.2760 h1        1 IPY      0.075367
     57 H181        9.9950   -0.2410    1.3620 h1        1 IPY      0.070200
     58 H182        9.4730    1.4720    1.0290 h1        1 IPY      0.070200
     59 H191        7.2040   -0.4750    0.6380 hc        1 IPY      0.089700
     60 H192        7.9830   -0.6730    2.2490 hc        1 IPY      0.089700
     61 H201        6.2200    0.9180    2.5510 hx        1 IPY      0.094700
     62 H202        7.8190    1.7950    2.6870 hx        1 IPY      0.094700
     63 H211        4.5590    1.8760    1.0850 hx        1 IPY      0.101367
     64 H212        5.1380    2.5190   -0.5260 hx        1 IPY      0.101367
     65 H213        5.4670    0.7820   -0.0670 hx        1 IPY      0.101367
     66 H221        5.8290    3.5790    2.3920 hx        1 IPY      0.101367
     67 H222        7.5570    3.9480    1.8900 hx        1 IPY      0.101367
     68 H223        6.1740    4.3100    0.7460 hx        1 IPY      0.101367
     69 H26       -12.7080    1.4850    2.7420 h4        1 IPY      0.051100
     70 H27       -12.0970    4.0180    1.7160 h4        1 IPY      0.186000
     71 H281       -8.5180    4.4510    1.5550 h1        1 IPY      0.067700
     72 H282       -8.9780    3.8820   -0.1110 h1        1 IPY      0.067700
     73 H283      -10.0520    5.0890    0.7660 h1        1 IPY      0.067700
     74 H291        9.6320   -1.4000   -3.0250 h1        1 IPY      0.077700
     75 H292        9.0220   -0.6420   -4.5660 h1        1 IPY      0.077700
     76 H301       10.5320    0.8380   -3.1550 hc        1 IPY      0.094700
     77 H302        8.9390    1.5770   -3.6100 hc        1 IPY      0.094700
     78 H32        -5.3940    1.2080    0.7890 ha        1 IPY      0.181000
     79 HN1        -3.3640    1.2640    0.1090 hn        1 IPY      0.333500
     80 HN4         1.6060   -1.5890   -1.2010 hn        1 IPY      0.341500
     81 HN6         9.5850   -0.7950   -0.8620 hn        1 IPY      0.353500
     82 HN7         7.3970    2.2830    0.1960 hn        1 IPY      0.490800
     83 HN8        -8.6100   -0.4800    2.2050 hn        1 IPY      0.347500
     84 H11         6.8560   -0.5160   -3.5990 hn        1 IPY      0.330500
     85 C9          1.0150    3.1000   -1.8620 c3        1 IPY      0.008600
     86 C24        -8.2360    1.4200    1.4960 c         1 IPY      0.617600
     87 C15         5.9400   -4.4390   -1.1280 c3        1 IPY     -0.001400
     88 C28        -9.3870    4.1950    0.8880 c3        1 IPY      0.017600
     89 O4         -7.4170    2.2280    1.0110 o         1 IPY     -0.626100
@<TRIPOS>BOND
     1    1    3 2   
     2    1   27 1   
     3    1   39 1   
     4    2    7 1   
     5    2    9 2   
     6    2   43 1   
     7    3   32 1   
     8    3   44 1   
     9    4   32 1   
    10    4   45 1   
    11    4   46 1   
    12    4   47 1   
    13    5    6 1   
    14    5   27 2   
    15    5   32 1   
    16    6   28 2   
    17    6   33 1   
    18    7    8 2   
    19    7   33 1   
    20    8   34 1   
    21    8   48 1   
    22    9   10 1   
    23    9   34 1   
    24   10   29 2   
    25   10   35 1   
    26   11   12 1   
    27   11   13 2   
    28   11   35 1   
    29   12   14 2   
    30   12   52 1   
    31   13   36 1   
    32   13   53 1   
    33   14   20 1   
    34   14   36 1   
    35   15   16 1   
    36   15   37 1   
    37   15   57 1   
    38   15   58 1   
    39   16   17 1   
    40   16   59 1   
    41   16   60 1   
    42   17   38 1   
    43   17   61 1   
    44   17   62 1   
    45   18   38 1   
    46   18   63 1   
    47   18   64 1   
    48   18   65 1   
    49   19   38 1   
    50   19   66 1   
    51   19   67 1   
    52   19   68 1   
    53   20   30 2   
    54   20   42 1   
    55   21   40 1   
    56   21   41 2   
    57   21   86 1   
    58   22   23 2   
    59   22   41 1   
    60   22   69 1   
    61   23   40 1   
    62   23   70 1   
    63   24   25 1   
    64   24   42 1   
    65   24   74 1   
    66   24   75 1   
    67   25   26 1   
    68   25   76 1   
    69   25   77 1   
    70   26   31 2   
    71   26   37 1   
    72   27   78 1   
    73   33   79 1   
    74   34   85 1   
    75   35   80 1   
    76   36   87 1   
    77   37   81 1   
    78   38   82 1   
    79   39   83 1   
    80   39   86 1   
    81   40   88 1   
    82   42   84 1   
    83   49   85 1   
    84   50   85 1   
    85   51   85 1   
    86   54   87 1   
    87   55   87 1   
    88   56   87 1   
    89   71   88 1   
    90   72   88 1   
    91   73   88 1   
    92   86   89 2   
@<TRIPOS>SUBSTRUCTURE
     1 IPY         1 TEMP              0 ****  ****    0 ROOT
