@<TRIPOS>MOLECULE
IPY
   91    94     1     0     0
SMALL
bcc


@<TRIPOS>ATOM
      1 C           0.0930    0.3800   -0.3960 cc        1 IPY     -0.012400
      2 C1          0.6310    0.2040    6.2850 cc        1 IPY     -0.127000
      3 C2          1.5020    0.5940   -0.3680 cd        1 IPY     -0.161300
      4 C3          3.2690    0.7960    1.3870 c3        1 IPY      0.018600
      5 C4          0.8090    0.4050    1.7780 cd        1 IPY     -0.214900
      6 C5          0.9060    0.3630    3.2430 c         1 IPY      0.728700
      7 C6         -0.4030    0.0810    5.3030 cc        1 IPY      0.011600
      8 C8         -1.6240   -0.1360    6.0160 cd        1 IPY     -0.148300
      9 C10         0.0220    0.0610    7.5560 cd        1 IPY     -0.239900
     10 C11         0.6530    0.1080    8.8680 c         1 IPY      0.742700
     11 C12         2.8090    0.4020   10.0060 cc        1 IPY      0.053600
     12 C13         2.4090    0.2870   11.3540 cc        1 IPY     -0.162000
     13 C14         4.2500    0.6260   10.0190 cd        1 IPY     -0.052300
     14 C16         3.5880    0.4380   12.1680 cd        1 IPY     -0.301900
     15 C18         0.4960   -0.3870   20.2930 c3        1 IPY      0.104800
     16 C19        -0.7080   -0.6270   21.2060 c3        1 IPY     -0.130400
     17 C20        -0.2120   -0.6070   22.6550 c3        1 IPY      0.104800
     18 C21        -0.6440   -1.2950   24.9700 c3        1 IPY      0.078100
     19 C22        -2.1760    0.2700   23.8810 c3        1 IPY      0.078100
     20 C23         3.6990    0.3880   13.5690 c         1 IPY      0.600700
     21 C25        -2.6710    0.0560   -2.9210 cc        1 IPY      0.309000
     22 C26        -3.0190    0.0880   -5.0870 cd        1 IPY      0.297200
     23 C27        -4.2780   -0.1290   -4.4750 cc        1 IPY     -0.227600
     24 C29         2.4260    0.1090   15.7320 c3        1 IPY      0.103800
     25 C30         1.0980   -0.1300   16.4650 c3        1 IPY     -0.177400
     26 C31         1.3700   -0.1440   17.9460 c         1 IPY      0.549100
     27 C32        -0.3380    0.2610    0.9660 cc        1 IPY     -0.139000
     28 O1          1.9850    0.5060    3.8600 o         1 IPY     -0.639100
     29 O2          0.0460   -0.0290    9.9540 o         1 IPY     -0.654100
     30 O3          4.6340    0.4860   14.3570 o         1 IPY     -0.493100
     31 O5          2.4330    0.0090   18.5170 o         1 IPY     -0.353100
     32 N           1.9210    0.6070    0.9480 na        1 IPY     -0.002100
     33 N1         -0.2920    0.1510    3.9260 n         1 IPY     -0.446100
     34 N3         -1.3550   -0.1460    7.3690 na        1 IPY     -0.001100
     35 N4          2.0440    0.3270    8.8670 n         1 IPY     -0.448100
     36 N5          4.6940    0.6430   11.3040 na        1 IPY      0.046900
     37 N6          0.1490   -0.3810   18.8370 n4        1 IPY     -0.682800
     38 N7         -1.2720   -0.8950   23.6730 n4        1 IPY     -0.678400
     39 N8         -0.6700    0.3080   -1.5530 n         1 IPY     -0.425100
     40 N9         -4.0540   -0.1480   -3.1060 na        1 IPY     -0.142900
     41 N10        -2.0380    0.2000   -4.1230 nd        1 IPY     -0.643000
     42 N11         2.3060    0.1500   14.2610 n4        1 IPY     -0.685800
     43 H1          1.6830    0.3760    6.0580 ha        1 IPY      0.186000
     44 H2          2.1980    0.7330   -1.1980 h4        1 IPY      0.185000
     45 H31         3.9400    0.9320    0.4990 h1        1 IPY      0.065700
     46 H32A        3.3270    1.7010    2.0510 h1        1 IPY      0.065700
     47 H33         3.6010   -0.0980    1.9830 h1        1 IPY      0.065700
     48 H8         -2.6340   -0.2780    5.6250 h4        1 IPY      0.191000
     49 H91        -2.0460   -1.2400    9.0160 h1        1 IPY      0.064033
     50 H92        -2.3250    0.5600    9.0860 h1        1 IPY      0.064033
     51 H93        -3.3370   -0.4760    7.9550 h1        1 IPY      0.064033
     52 H13         1.3880    0.1130   11.6880 ha        1 IPY      0.183000
     53 H14         4.9190    0.7640    9.1590 h4        1 IPY      0.221000
     54 H151        6.1680    1.9290   12.0710 h1        1 IPY      0.094033
     55 H152        6.3000    0.1730   12.5750 h1        1 IPY      0.094033
     56 H153        6.7470    0.6730   10.8660 h1        1 IPY      0.094033
     57 H181        0.9750    0.6090   20.5340 hx        1 IPY      0.132200
     58 H182        1.2740   -1.1930   20.4530 hx        1 IPY      0.132200
     59 H191       -1.4810    0.1740   21.0500 hc        1 IPY      0.090200
     60 H192       -1.1830   -1.6180   20.9720 hc        1 IPY      0.090200
     61 H201        0.2290    0.4050   22.8980 hx        1 IPY      0.120700
     62 H202        0.6010   -1.3840   22.7790 hx        1 IPY      0.120700
     63 H211       -1.4580   -1.4860   25.7240 hx        1 IPY      0.119533
     64 H212       -0.0430   -2.2340   24.8250 hx        1 IPY      0.119533
     65 H213        0.0190   -0.4680   25.3400 hx        1 IPY      0.119533
     66 H221       -2.9830   -0.0160   24.6130 hx        1 IPY      0.119533
     67 H222       -1.5930    1.1350   24.3000 hx        1 IPY      0.119533
     68 H223       -2.6460    0.5620   22.9050 hx        1 IPY      0.119533
     69 H26        -2.7940    0.1640   -6.1520 h4        1 IPY      0.055100
     70 H27        -5.2670   -0.2630   -4.9110 h4        1 IPY      0.189000
     71 H281       -4.7660   -1.2420   -1.4700 h1        1 IPY      0.067367
     72 H282       -5.0400    0.5560   -1.3990 h1        1 IPY      0.067367
     73 H283       -6.0420   -0.4740   -2.5470 h1        1 IPY      0.067367
     74 H291        3.1660   -0.7070   15.9990 hx        1 IPY      0.140700
     75 H292        2.8850    1.0870   16.0710 hx        1 IPY      0.140700
     76 H301        0.6450   -1.1130   16.1560 hc        1 IPY      0.121700
     77 H302        0.3610    0.6880   16.2270 hc        1 IPY      0.121700
     78 H32        -1.3670    0.0920    1.2810 ha        1 IPY      0.181000
     79 HN1        -1.1310    0.0420    3.4010 hn        1 IPY      0.339500
     80 HN4         2.5100    0.4350    7.9910 hn        1 IPY      0.354500
     81 HN6        -0.2740   -1.2820   18.5810 hn        1 IPY      0.469800
     82 HN7        -1.8400   -1.6880   23.3390 hn        1 IPY      0.456800
     83 HN8        -0.1790    0.4170   -2.4150 hn        1 IPY      0.351500
     84 H11         1.6850    0.9080   13.9630 hn        1 IPY      0.458300
     85 C9         -2.3190   -0.3360    8.4060 c3        1 IPY      0.019600
     86 C24        -2.0370    0.1000   -1.5740 c         1 IPY      0.622600
     87 C15         6.0500    0.8650   11.7260 c3        1 IPY     -0.016400
     88 C28        -5.0310   -0.3370   -2.0820 c3        1 IPY      0.017600
     89 O4         -2.7170   -0.0440   -0.5360 o         1 IPY     -0.630100
     90 H62        -0.5400    0.3580   18.6510 hn        1 IPY      0.469800
     91 H112        1.9320   -0.7330   13.8970 hn        1 IPY      0.458300
@<TRIPOS>BOND
     1    1    3 2   
     2    1   27 1   
     3    1   39 1   
     4    2    7 1   
     5    2    9 2   
     6    2   43 1   
     7    3   32 1   
     8    3   44 1   
     9    4   32 1   
    10    4   45 1   
    11    4   46 1   
    12    4   47 1   
    13    5    6 1   
    14    5   27 2   
    15    5   32 1   
    16    6   28 2   
    17    6   33 1   
    18    7    8 2   
    19    7   33 1   
    20    8   34 1   
    21    8   48 1   
    22    9   10 1   
    23    9   34 1   
    24   10   29 2   
    25   10   35 1   
    26   11   12 1   
    27   11   13 2   
    28   11   35 1   
    29   12   14 2   
    30   12   52 1   
    31   13   36 1   
    32   13   53 1   
    33   14   20 1   
    34   14   36 1   
    35   15   16 1   
    36   15   37 1   
    37   15   57 1   
    38   15   58 1   
    39   16   17 1   
    40   16   59 1   
    41   16   60 1   
    42   17   38 1   
    43   17   61 1   
    44   17   62 1   
    45   18   38 1   
    46   18   63 1   
    47   18   64 1   
    48   18   65 1   
    49   19   38 1   
    50   19   66 1   
    51   19   67 1   
    52   19   68 1   
    53   20   30 2   
    54   20   42 1   
    55   21   40 1   
    56   21   41 2   
    57   21   86 1   
    58   22   23 2   
    59   22   41 1   
    60   22   69 1   
    61   23   40 1   
    62   23   70 1   
    63   24   25 1   
    64   24   42 1   
    65   24   74 1   
    66   24   75 1   
    67   25   26 1   
    68   25   76 1   
    69   25   77 1   
    70   26   31 2   
    71   26   37 1   
    72   27   78 1   
    73   33   79 1   
    74   34   85 1   
    75   35   80 1   
    76   36   87 1   
    77   37   81 1   
    78   37   90 1   
    79   38   82 1   
    80   39   83 1   
    81   39   86 1   
    82   40   88 1   
    83   42   84 1   
    84   42   91 1   
    85   49   85 1   
    86   50   85 1   
    87   51   85 1   
    88   54   87 1   
    89   55   87 1   
    90   56   87 1   
    91   71   88 1   
    92   72   88 1   
    93   73   88 1   
    94   86   89 2   
@<TRIPOS>SUBSTRUCTURE
     1 IPY         1 TEMP              0 ****  ****    0 ROOT
