@<TRIPOS>MOLECULE
IPY
   89    77     1     0     0
SMALL
bcc


@<TRIPOS>ATOM
      1 C           0.9160    4.1060   -6.3280 cg        1 IPY     -0.070000
      2 C1          0.8220    1.9700    0.3220 cg        1 IPY     -0.070000
      3 C2          1.8960    3.1240   -6.2180 c1        1 IPY     -0.098533
      4 C3          2.1230    1.3770   -5.0560 c3        1 IPY      0.194767
      5 C4          1.1260    3.5480   -4.1680 c1        1 IPY     -0.098533
      6 C5          0.9590    3.5500   -2.6590 c1        1 IPY      0.852567
      7 C6          1.6270    2.7520   -0.4350 cg        1 IPY     -0.070000
      8 C8          2.3420    3.5770    0.4140 c1        1 IPY     -0.098533
      9 C9          2.8290    3.8970    2.6280 c3        1 IPY      0.194767
     10 C10         1.0310    2.3030    1.6500 c1        1 IPY     -0.098533
     11 C11         0.4170    1.5470    2.9070 c1        1 IPY      0.852567
     12 C12        -0.8040   -0.3720    3.8900 cg        1 IPY     -0.070000
     13 C13        -0.0280   -1.1430    4.7160 cg        1 IPY     -0.070000
     14 C14        -2.1330   -0.6010    4.2170 c1        1 IPY     -0.098533
     15 C15        -3.5940   -1.7330    5.1650 c3        1 IPY      0.194767
     16 C16        -0.8820   -1.8630    5.5680 c1        1 IPY     -0.098533
     17 C18        -1.9960   -5.9460    3.1040 c3        1 IPY      0.085000
     18 C19        -1.2610   -6.8720    2.0580 c3        1 IPY     -0.113400
     19 C20        -0.9740   -6.0820    0.8010 c3        1 IPY      0.115800
     20 C21         0.9430   -6.3080   -0.5940 c3        1 IPY      0.091100
     21 C22        -1.0930   -7.1840   -1.3140 c3        1 IPY      0.091100
     22 C23        -0.5640   -2.6020    6.8560 c1        1 IPY      0.639500
     23 C24         0.6370    6.5480   -6.9190 c1        1 IPY      0.852567
     24 C25         1.1030    7.7800   -7.7410 c1        1 IPY      0.096400
     25 C26         2.3210    9.0860   -9.0230 cg        1 IPY     -0.119000
     26 C27         1.4020    9.8740   -8.3690 c1        1 IPY     -0.199300
     27 C28        -0.4430    9.4960   -6.7500 c3        1 IPY      0.017600
     28 C29        -1.3230   -4.8490    7.6880 c3        1 IPY      0.036300
     29 C30        -2.2150   -5.6760    6.7380 c3        1 IPY     -0.184400
     30 C31        -1.4120   -6.0810    5.5330 c         1 IPY      0.672100
     31 C32         0.4400    4.3690   -5.0700 cg        1 IPY     -0.070000
     32 O1          0.1620    4.3230   -2.1300 o         1 IPY     -0.632833
     33 O2          0.6680    1.9280    4.0170 o         1 IPY     -0.632833
     34 O3          0.5830   -2.6200    7.2810 o         1 IPY     -0.682500
     35 O4         -0.0410    6.7050   -5.9280 o         1 IPY     -0.632833
     36 O5         -0.2020   -6.0540    5.5790 o         1 IPY     -0.655100
     37 N           2.0160    2.7880   -4.8790 n3        1 IPY     -0.351467
     38 N1          1.7490    2.7070   -1.8620 n2        1 IPY     -0.752467
     39 N3          1.9670    3.2920    1.6920 n3        1 IPY     -0.351467
     40 N4         -0.3220    0.3930    2.7230 n2        1 IPY     -0.752467
     41 N5         -2.1670   -1.5270    5.2580 n3        1 IPY     -0.351467
     42 N6         -2.0750   -6.6300    4.3790 n         1 IPY     -0.564900
     43 N7         -0.2630   -6.9520   -0.1760 n4        1 IPY     -0.673400
     44 N8          1.1840    5.2360   -7.2220 n2        1 IPY     -0.752467
     45 N9          0.6550    9.0750   -7.5830 n3        1 IPY     -0.025400
     46 N10         2.1290    7.7990   -8.6290 ne        1 IPY     -0.393400
     47 N11        -1.5770   -3.4360    7.4770 n3        1 IPY     -0.410400
     48 H1          0.1930    1.2790   -0.0150 DU        1 IPY      0.182375
     49 H2          2.4130    2.7360   -6.9600 DU        1 IPY      0.182375
     50 H31         1.3540    1.0530   -5.5580 h1        1 IPY      0.063700
     51 H32A        2.9500    1.1690   -5.5520 h1        1 IPY      0.063700
     52 H33         2.1480    0.9460   -4.1940 h1        1 IPY      0.063700
     53 H8          3.0000    4.2460    0.1450 DU        1 IPY      0.182375
     54 H91         2.4810    3.7510    3.5360 h1        1 IPY      0.063700
     55 H92         2.8820    4.8520    2.4500 h1        1 IPY      0.063700
     56 H93         3.7160    3.5030    2.5540 h1        1 IPY      0.063700
     57 H13         0.9610   -1.1860    4.7130 DU        1 IPY      0.182375
     58 H14        -2.9110   -0.1840    3.7890 DU        1 IPY      0.182375
     59 H151       -3.8280   -1.9480    4.2520 h1        1 IPY      0.063700
     60 H152       -3.8520   -2.4600    5.7440 h1        1 IPY      0.063700
     61 H153       -4.0540   -0.9270    5.4350 h1        1 IPY      0.063700
     62 H181       -1.4830   -5.0930    3.2120 h1        1 IPY      0.061200
     63 H182       -2.9070   -5.7440    2.7830 h1        1 IPY      0.061200
     64 H191       -1.8270   -7.6390    1.8420 hc        1 IPY      0.091700
     65 H192       -0.4200   -7.1880    2.4400 hc        1 IPY      0.091700
     66 H201       -1.8250   -5.7630    0.4050 hx        1 IPY      0.099700
     67 H202       -0.4150   -5.3180    1.0230 hx        1 IPY      0.099700
     68 H211        0.7860   -5.3530   -0.6810 hx        1 IPY      0.098867
     69 H212        1.2280   -6.6740   -1.4640 hx        1 IPY      0.098867
     70 H213        1.6460   -6.4650    0.0740 hx        1 IPY      0.098867
     71 H221       -1.9600   -7.5180   -1.0230 hx        1 IPY      0.098867
     72 H222       -1.2160   -6.3240   -1.8190 hx        1 IPY      0.098867
     73 H223       -0.6650   -7.8480   -1.8980 hx        1 IPY      0.098867
     74 H26         2.9940    9.3980   -9.6590 DU        1 IPY      0.182375
     75 H27         1.3080   10.8440   -8.4590 DU        1 IPY      0.182375
     76 H281       -0.5070    8.9040   -5.9660 h1        1 IPY      0.067700
     77 H282       -1.2890    9.4510   -7.2700 h1        1 IPY      0.067700
     78 H283       -0.2890   10.4320   -6.4470 h1        1 IPY      0.067700
     79 H291       -0.3870   -5.0420    7.5030 h1        1 IPY      0.080200
     80 H292       -1.5280   -5.0860    8.6260 h1        1 IPY      0.080200
     81 H301       -2.9670   -5.1430    6.4580 hc        1 IPY      0.087700
     82 H302       -2.5360   -6.4750    7.2010 hc        1 IPY      0.087700
     83 H32        -0.2610    5.0230   -4.8410 DU        1 IPY      0.182375
     84 HN1         2.3630    2.1530   -2.2500 hn        1 IPY      0.497400
     85 HN4        -0.5390    0.1290    1.8970 hn        1 IPY      0.497400
     86 HN6        -2.6310   -7.3460    4.4750 hn        1 IPY      0.317500
     87 HN7        -0.0550   -7.7740    0.2320 hn        1 IPY      0.493800
     88 HN8         1.6420    5.1000   -8.0090 hn        1 IPY      0.497400
     89 H11        -2.3920   -3.0880    7.6730 hn        1 IPY      0.285700
@<TRIPOS>BOND
     1    1    3 3   
     2    1   31 1   
     3    2    7 1   
     4    2   10 3   
     5    3   37 1   
     6    4   37 1   
     7    4   50 1   
     8    4   51 1   
     9    4   52 1   
    10    5   31 3   
    11    5   37 1   
    12    6   32 2   
    13    6   38 2   
    14    7    8 3   
    15    8   39 1   
    16    9   39 1   
    17    9   54 1   
    18    9   55 1   
    19    9   56 1   
    20   10   39 1   
    21   11   33 2   
    22   11   40 2   
    23   12   13 1   
    24   12   14 3   
    25   13   16 3   
    26   14   41 1   
    27   15   41 1   
    28   15   59 1   
    29   15   60 1   
    30   15   61 1   
    31   16   41 1   
    32   17   18 1   
    33   17   42 1   
    34   17   62 1   
    35   17   63 1   
    36   18   19 1   
    37   18   64 1   
    38   18   65 1   
    39   19   43 1   
    40   19   66 1   
    41   19   67 1   
    42   20   43 1   
    43   20   68 1   
    44   20   69 1   
    45   20   70 1   
    46   21   43 1   
    47   21   71 1   
    48   21   72 1   
    49   21   73 1   
    50   22   34 2   
    51   22   47 2   
    52   23   35 2   
    53   23   44 2   
    54   24   45 2   
    55   24   46 2   
    56   25   26 3   
    57   25   46 1   
    58   26   45 1   
    59   27   45 1   
    60   27   76 1   
    61   27   77 1   
    62   27   78 1   
    63   28   29 1   
    64   28   47 1   
    65   28   79 1   
    66   28   80 1   
    67   29   30 1   
    68   29   81 1   
    69   29   82 1   
    70   30   36 2   
    71   30   42 1   
    72   38   84 1   
    73   40   85 1   
    74   42   86 1   
    75   43   87 1   
    76   44   88 1   
    77   47   89 1   
@<TRIPOS>SUBSTRUCTURE
     1 IPY         1 TEMP              0 ****  ****    0 ROOT
