@<TRIPOS>MOLECULE
IPZ
   23    23     1     0     0
SMALL
bcc


@<TRIPOS>ATOM
      1 C9          0.0280    0.0340   -0.0360 c3        1 IPZ     -0.087100
      2 C8          1.5420   -0.0580   -0.0190 c3        1 IPZ     -0.105000
      3 C10         2.0680    0.0340    1.3990 c3        1 IPZ     -0.087100
      4 C2          2.0070   -1.3290   -0.6810 ca        1 IPZ      0.301300
      5 N1          1.6540   -2.5270   -0.1740 nb        1 IPZ     -0.612000
      6 C6          2.1000   -3.6320   -0.8080 ca        1 IPZ      0.244900
      7 C5          2.9100   -3.5590   -1.9640 ca        1 IPZ      0.312900
      8 N4          3.2850   -2.3810   -2.5010 nb        1 IPZ     -0.700000
      9 C3          2.8360   -1.2700   -1.8630 ca        1 IPZ      0.512300
     10 O7          3.1490   -0.0070   -2.3140 os        1 IPZ     -0.440100
     11 C11         3.9670    0.0960   -3.4810 c3        1 IPZ      0.124700
     12 H91        -0.3570   -0.0520   -1.0800 hc        1 IPZ      0.040367
     13 H92        -0.4260   -0.7790    0.5810 hc        1 IPZ      0.040367
     14 H93        -0.2920    1.0180    0.3830 hc        1 IPZ      0.040367
     15 H8          1.9560    0.8110   -0.6090 hc        1 IPZ      0.072700
     16 H101        3.1810   -0.0520    1.4100 hc        1 IPZ      0.040367
     17 H102        1.6410   -0.7770    2.0360 hc        1 IPZ      0.040367
     18 H103        1.7830    1.0190    1.8420 hc        1 IPZ      0.040367
     19 H6          1.7980   -4.6000   -0.3750 h4        1 IPZ      0.034100
     20 H5          3.2720   -4.4650   -2.4780 h4        1 IPZ      0.033100
     21 H111        4.0630    1.2030   -3.6200 h1        1 IPZ      0.051700
     22 H112        3.4620   -0.3740   -4.3580 h1        1 IPZ      0.051700
     23 H113        4.9650   -0.3720   -3.3050 h1        1 IPZ      0.051700
@<TRIPOS>BOND
     1    1    2 1   
     2    1   12 1   
     3    1   13 1   
     4    1   14 1   
     5    2    3 1   
     6    2    4 1   
     7    2   15 1   
     8    3   16 1   
     9    3   17 1   
    10    3   18 1   
    11    4    5 ar  
    12    4    9 ar  
    13    5    6 ar  
    14    6    7 ar  
    15    6   19 1   
    16    7    8 ar  
    17    7   20 1   
    18    8    9 ar  
    19    9   10 1   
    20   10   11 1   
    21   11   21 1   
    22   11   22 1   
    23   11   23 1   
@<TRIPOS>SUBSTRUCTURE
     1 IPZ         1 TEMP              0 ****  ****    0 ROOT
