@<TRIPOS>MOLECULE
IPZ
   23    23     1     0     0
SMALL
bcc


@<TRIPOS>ATOM
      1 C9          0.4770   -1.2500   -2.5080 c3        1 IPZ     -0.087100
      2 C8          0.6560   -0.0010   -1.6660 c3        1 IPZ     -0.105000
      3 C10         0.4730    1.2450   -2.5110 c3        1 IPZ     -0.087100
      4 C2         -0.2990   -0.0010   -0.5010 ca        1 IPZ      0.301300
      5 N1         -1.6310   -0.0040   -0.7140 nb        1 IPZ     -0.612000
      6 C6         -2.4390   -0.0040    0.3680 ca        1 IPZ      0.244900
      7 C5         -1.9290   -0.0010    1.6860 ca        1 IPZ      0.312900
      8 N4         -0.6050    0.0010    1.9400 nb        1 IPZ     -0.700000
      9 C3          0.2070    0.0010    0.8530 ca        1 IPZ      0.512300
     10 O7          1.5780    0.0040    0.9800 os        1 IPZ     -0.440100
     11 C11         2.1200    0.0060    2.3020 c3        1 IPZ      0.124700
     12 H91         1.2480   -1.2700   -3.3150 hc        1 IPZ      0.040367
     13 H92         0.5940   -2.1640   -1.8790 hc        1 IPZ      0.040367
     14 H93        -0.5340   -1.2690   -2.9820 hc        1 IPZ      0.040367
     15 H8          1.7060    0.0010   -1.2530 hc        1 IPZ      0.072700
     16 H101       -0.5380    1.2600   -2.9850 hc        1 IPZ      0.040367
     17 H102        0.5870    2.1620   -1.8850 hc        1 IPZ      0.040367
     18 H103        1.2440    1.2660   -3.3180 hc        1 IPZ      0.040367
     19 H6         -3.5220   -0.0050    0.1690 h4        1 IPZ      0.034100
     20 H5         -2.5930   -0.0010    2.5660 h4        1 IPZ      0.033100
     21 H111        3.2250    0.0080    2.1160 h1        1 IPZ      0.051700
     22 H112        1.8080    0.9240    2.8540 h1        1 IPZ      0.051700
     23 H113        1.8100   -0.9110    2.8560 h1        1 IPZ      0.051700
@<TRIPOS>BOND
     1    1    2 1   
     2    1   12 1   
     3    1   13 1   
     4    1   14 1   
     5    2    3 1   
     6    2    4 1   
     7    2   15 1   
     8    3   16 1   
     9    3   17 1   
    10    3   18 1   
    11    4    5 ar  
    12    4    9 ar  
    13    5    6 ar  
    14    6    7 ar  
    15    6   19 1   
    16    7    8 ar  
    17    7   20 1   
    18    8    9 ar  
    19    9   10 1   
    20   10   11 1   
    21   11   21 1   
    22   11   22 1   
    23   11   23 1   
@<TRIPOS>SUBSTRUCTURE
     1 IPZ         1 TEMP              0 ****  ****    0 ROOT
