@<TRIPOS>MOLECULE
IQ0
   17    16     1     0     0
SMALL
bcc


@<TRIPOS>ATOM
      1 C19        -1.6460   -0.9320   -0.5590 c1        1 IQ0      0.332000
      2 O5         -2.2760   -0.2230   -1.3900 o         1 IQ0     -0.584000
      3 C18        -0.1810   -0.9320   -0.5590 c2        1 IQ0     -0.169000
      4 C20         0.2740   -0.9320    0.7110 c3        1 IQ0     -0.144000
      5 C21         0.4040    0.6460    1.1810 c3        1 IQ0     -0.153000
      6 C22         0.8580    1.3170    0.1490 c3        1 IQ0     -0.153000
      7 C17         0.3800    0.5320   -1.1070 c3        1 IQ0     -0.144000
      8 OXT        -2.2760   -1.6960    0.2230 o         1 IQ0     -0.584000
      9 H18         0.0070   -1.7190   -1.1050 ha        1 IQ0      0.068000
     10 H201       -0.3560   -1.4010    1.2900 hc        1 IQ0      0.079250
     11 H202        1.1480   -1.3640    0.7500 hc        1 IQ0      0.079250
     12 H171       -0.3380    1.0200   -1.5540 hc        1 IQ0      0.079250
     13 H172        1.1260    0.3960   -1.7210 hc        1 IQ0      0.079250
     14 H211       -0.4710    0.9890    1.4440 hc        1 IQ0      0.052750
     15 H212        1.0290    0.7210    1.9280 hc        1 IQ0      0.052750
     16 H221        0.4860    2.2200    0.1440 hc        1 IQ0      0.052750
     17 H222        1.8330    1.3540    0.1730 hc        1 IQ0      0.052750
@<TRIPOS>BOND
     1    1    2 1   
     2    1    8 1   
     3    3    4 1   
     4    3    7 1   
     5    3    9 1   
     6    4    5 1   
     7    4   10 1   
     8    4   11 1   
     9    5    6 1   
    10    5   14 1   
    11    5   15 1   
    12    6    7 1   
    13    6   16 1   
    14    6   17 1   
    15    7   12 1   
    16    7   13 1   
@<TRIPOS>SUBSTRUCTURE
     1 IQ0         1 TEMP              0 ****  ****    0 ROOT
