@<TRIPOS>MOLECULE
IQ0
   17    17     1     0     0
SMALL
bcc


@<TRIPOS>ATOM
      1 C19        -1.4510   -0.0560    0.0410 c         1 IQ0      0.913600
      2 O5         -1.5950   -0.3860    1.2530 o         1 IQ0     -0.848300
      3 C18        -0.0220    0.1350   -0.5120 c3        1 IQ0     -0.180700
      4 C20         0.8120   -1.1350   -0.3800 c3        1 IQ0     -0.064400
      5 C21         2.2430   -0.7040   -0.0760 c3        1 IQ0     -0.074400
      6 C22         2.1990    0.7680    0.3180 c3        1 IQ0     -0.074400
      7 C17         0.7420    1.2120    0.2500 c3        1 IQ0     -0.064400
      8 OXT        -2.4140    0.1290   -0.7570 o         1 IQ0     -0.848300
      9 H18        -0.1020    0.4230   -1.5930 hc        1 IQ0      0.032700
     10 H201        0.4070   -1.7540    0.4620 hc        1 IQ0      0.039200
     11 H202        0.7660   -1.7470   -1.3120 hc        1 IQ0      0.039200
     12 H171        0.6470    2.2050   -0.2510 hc        1 IQ0      0.039200
     13 H172        0.3150    1.3030    1.2830 hc        1 IQ0      0.039200
     14 H211        2.6760   -1.3220    0.7480 hc        1 IQ0      0.013200
     15 H212        2.8960   -0.8450   -0.9740 hc        1 IQ0      0.013200
     16 H221        2.6090    0.9150    1.3480 hc        1 IQ0      0.013200
     17 H222        2.8290    1.3760   -0.3780 hc        1 IQ0      0.013200
@<TRIPOS>BOND
     1    1    2 1   
     2    1    3 1   
     3    1    8 1   
     4    3    4 1   
     5    3    7 1   
     6    3    9 1   
     7    4    5 1   
     8    4   10 1   
     9    4   11 1   
    10    5    6 1   
    11    5   14 1   
    12    5   15 1   
    13    6    7 1   
    14    6   16 1   
    15    6   17 1   
    16    7   12 1   
    17    7   13 1   
@<TRIPOS>SUBSTRUCTURE
     1 IQ0         1 TEMP              0 ****  ****    0 ROOT
