@<TRIPOS>MOLECULE
IQ0
   17    17     1     0     0
SMALL
bcc


@<TRIPOS>ATOM
      1 C19        -0.0510    0.0810   -0.0430 c         1 IQ0      0.913600
      2 O5         -0.6330    0.9740    0.6380 o         1 IQ0     -0.848300
      3 C18         1.4930    0.0450   -0.0570 c3        1 IQ0     -0.180700
      4 C20         2.0680   -0.1300    1.3440 c3        1 IQ0     -0.064400
      5 C21         3.3570    0.6830    1.4060 c3        1 IQ0     -0.074400
      6 C22         3.3670    1.6090    0.1950 c3        1 IQ0     -0.074400
      7 C17         2.0850    1.3470   -0.5870 c3        1 IQ0     -0.064400
      8 OXT        -0.6600   -0.7950   -0.7220 o         1 IQ0     -0.848300
      9 H18         1.8160   -0.8090   -0.7080 hc        1 IQ0      0.032700
     10 H201        2.2610   -1.2060    1.5690 hc        1 IQ0      0.039200
     11 H202        1.3300    0.2550    2.0950 hc        1 IQ0      0.039200
     12 H171        2.2890    1.2800   -1.6830 hc        1 IQ0      0.039200
     13 H172        1.3520    2.1780   -0.4210 hc        1 IQ0      0.039200
     14 H211        3.4080    1.2720    2.3550 hc        1 IQ0      0.013200
     15 H212        4.2500    0.0090    1.3870 hc        1 IQ0      0.013200
     16 H221        3.4240    2.6790    0.5140 hc        1 IQ0      0.013200
     17 H222        4.2650    1.4050   -0.4420 hc        1 IQ0      0.013200
@<TRIPOS>BOND
     1    1    2 1   
     2    1    3 1   
     3    1    8 1   
     4    3    4 1   
     5    3    7 1   
     6    3    9 1   
     7    4    5 1   
     8    4   10 1   
     9    4   11 1   
    10    5    6 1   
    11    5   14 1   
    12    5   15 1   
    13    6    7 1   
    14    6   16 1   
    15    6   17 1   
    16    7   12 1   
    17    7   13 1   
@<TRIPOS>SUBSTRUCTURE
     1 IQ0         1 TEMP              0 ****  ****    0 ROOT
