@<TRIPOS>MOLECULE
IQ0
   17    17     1     0     0
SMALL
bcc


@<TRIPOS>ATOM
      1 C19        -0.0710    0.0850   -0.0130 c         1 IQ0      0.913600
      2 O5         -0.6400    1.0260    0.6120 o         1 IQ0     -0.848300
      3 C18         1.4720    0.0260   -0.0240 c3        1 IQ0     -0.180700
      4 C20         2.0450   -0.0750    1.3860 c3        1 IQ0     -0.064400
      5 C21         3.3450    0.7200    1.4010 c3        1 IQ0     -0.074400
      6 C22         3.3690    1.5730    0.1380 c3        1 IQ0     -0.074400
      7 C17         2.0830    1.2850   -0.6290 c3        1 IQ0     -0.064400
      8 OXT        -0.6940   -0.8210   -0.6370 o         1 IQ0     -0.848300
      9 H18         1.7820   -0.8700   -0.6230 hc        1 IQ0      0.032700
     10 H201        2.2210   -1.1400    1.6740 hc        1 IQ0      0.039200
     11 H202        1.3130    0.3640    2.1120 hc        1 IQ0      0.039200
     12 H171        1.3630    2.1350   -0.5110 hc        1 IQ0      0.039200
     13 H172        2.2860    1.1510   -1.7190 hc        1 IQ0      0.039200
     14 H211        3.4060    1.3630    2.3140 hc        1 IQ0      0.013200
     15 H212        4.2280    0.0330    1.4210 hc        1 IQ0      0.013200
     16 H221        3.4420    2.6590    0.3940 hc        1 IQ0      0.013200
     17 H222        4.2640    1.3200   -0.4850 hc        1 IQ0      0.013200
@<TRIPOS>BOND
     1    1    2 1   
     2    1    3 1   
     3    1    8 1   
     4    3    4 1   
     5    3    7 1   
     6    3    9 1   
     7    4    5 1   
     8    4   10 1   
     9    4   11 1   
    10    5    6 1   
    11    5   14 1   
    12    5   15 1   
    13    6    7 1   
    14    6   16 1   
    15    6   17 1   
    16    7   12 1   
    17    7   13 1   
@<TRIPOS>SUBSTRUCTURE
     1 IQ0         1 TEMP              0 ****  ****    0 ROOT
