@<TRIPOS>MOLECULE
IQ1
   45    48     1     0     0
SMALL
bcc


@<TRIPOS>ATOM
      1 C25         0.0880    0.2580    0.3700 c3        1 IQ1     -0.088433
      2 C22         1.5440    0.0310   -0.0220 c3        1 IQ1     -0.075300
      3 C23         2.3920   -0.1530    1.2310 c3        1 IQ1     -0.088433
      4 C24         1.6410   -1.2230   -0.8810 c3        1 IQ1     -0.088433
      5 C2          2.0450    1.2310   -0.7870 cc        1 IQ1      0.427800
      6 N3          2.5370    1.2510   -2.0500 nd        1 IQ1     -0.660000
      7 N1          2.0580    2.5180   -0.2300 na        1 IQ1     -0.305900
      8 C5          2.5730    3.3930   -1.1960 cc        1 IQ1     -0.162600
      9 C6          2.6900    4.8190   -0.9730 ca        1 IQ1      0.024000
     10 C7          2.4580    5.7290   -2.0160 ca        1 IQ1     -0.240800
     11 C8          2.5630    7.1040   -1.7480 ca        1 IQ1      0.398700
     12 N9          2.8730    7.6080   -0.5370 nb        1 IQ1     -0.660000
     13 C10         3.0970    6.7260    0.4550 ca        1 IQ1      0.398700
     14 C11         3.0190    5.3320    0.2930 ca        1 IQ1     -0.240800
     15 C4          2.8740    2.5830   -2.3240 cd        1 IQ1      0.386800
     16 C12         3.4600    2.9840   -3.5870 ca        1 IQ1     -0.232800
     17 C13         4.4690    4.0100   -3.6230 ca        1 IQ1      0.421200
     18 N14         5.0710    4.4260   -4.7190 nb        1 IQ1     -0.659000
     19 C15         4.7150    3.8410   -5.9220 ca        1 IQ1      0.392600
     20 C16         5.3410    4.2640   -7.1370 ca        1 IQ1     -0.166300
     21 C21         3.1060    2.3860   -4.7790 ca        1 IQ1     -0.054000
     22 C20         3.7290    2.8090   -5.9880 ca        1 IQ1     -0.151300
     23 C19         3.3970    2.2330   -7.2410 ca        1 IQ1     -0.108000
     24 C18         4.0180    2.6630   -8.3890 ca        1 IQ1     -0.130000
     25 C17         4.9940    3.6850   -8.3320 ca        1 IQ1     -0.123000
     26 H251       -0.5300    0.4630   -0.5370 hc        1 IQ1      0.043478
     27 H252       -0.0090    1.1190    1.0730 hc        1 IQ1      0.043478
     28 H253       -0.3100   -0.6550    0.8750 hc        1 IQ1      0.043478
     29 H231        2.0690   -1.0770    1.7690 hc        1 IQ1      0.043478
     30 H232        2.2780    0.7150    1.9230 hc        1 IQ1      0.043478
     31 H233        3.4700   -0.2570    0.9580 hc        1 IQ1      0.043478
     32 H241        2.7000   -1.4130   -1.1780 hc        1 IQ1      0.043478
     33 H242        1.0240   -1.1140   -1.8040 hc        1 IQ1      0.043478
     34 H243        1.2670   -2.1010   -0.3010 hc        1 IQ1      0.043478
     35 H1          1.7340    2.7750    0.6650 hn        1 IQ1      0.304700
     36 H7          2.2040    5.3720   -3.0250 ha        1 IQ1      0.149000
     37 H11         3.2300    4.6690    1.1410 ha        1 IQ1      0.149000
     38 H8          2.3890    7.8470   -2.5480 h4        1 IQ1      0.026600
     39 H10         3.3550    7.1630    1.4370 h4        1 IQ1      0.026600
     40 H13         4.7760    4.4950   -2.6770 h4        1 IQ1      0.029100
     41 H21         2.3540    1.5830   -4.8160 ha        1 IQ1      0.154000
     42 H16         6.1030    5.0580   -7.0950 ha        1 IQ1      0.150000
     43 H17         5.4770    4.0110   -9.2660 ha        1 IQ1      0.135000
     44 H19         2.6370    1.4380   -7.2720 ha        1 IQ1      0.135000
     45 H18         3.7640    2.2190   -9.3630 ha        1 IQ1      0.134000
@<TRIPOS>BOND
     1    1    2 1   
     2    1   26 1   
     3    1   27 1   
     4    1   28 1   
     5    2    3 1   
     6    2    4 1   
     7    2    5 1   
     8    3   29 1   
     9    3   30 1   
    10    3   31 1   
    11    4   32 1   
    12    4   33 1   
    13    4   34 1   
    14    5    6 2   
    15    5    7 1   
    16    6   15 1   
    17    7    8 1   
    18    7   35 1   
    19    8    9 1   
    20    8   15 2   
    21    9   10 ar  
    22    9   14 ar  
    23   10   11 ar  
    24   10   36 1   
    25   11   12 ar  
    26   11   38 1   
    27   12   13 ar  
    28   13   14 ar  
    29   13   39 1   
    30   14   37 1   
    31   15   16 1   
    32   16   17 ar  
    33   16   21 ar  
    34   17   18 ar  
    35   17   40 1   
    36   18   19 ar  
    37   19   20 ar  
    38   19   22 ar  
    39   20   25 ar  
    40   20   42 1   
    41   21   22 ar  
    42   21   41 1   
    43   22   23 ar  
    44   23   24 ar  
    45   23   44 1   
    46   24   25 ar  
    47   24   45 1   
    48   25   43 1   
@<TRIPOS>SUBSTRUCTURE
     1 IQ1         1 TEMP              0 ****  ****    0 ROOT
