@<TRIPOS>MOLECULE
IQ1
   45    40     1     0     0
SMALL
bcc


@<TRIPOS>ATOM
      1 C25         0.0050    4.5030    1.6380 c3        1 IQ1     -0.206333
      2 C22        -1.1690    3.5790    1.4020 c3        1 IQ1      0.019000
      3 C23        -2.2010    4.2820    0.5480 c3        1 IQ1     -0.206333
      4 C24        -1.7870    3.2010    2.7290 c3        1 IQ1     -0.206333
      5 C2         -0.6940    2.3310    0.6940 c2        1 IQ1     -0.018000
      6 N3         -0.8630    1.0580    1.1250 n2        1 IQ1     -0.163000
      7 N1          0.0010    2.2920   -0.4690 n2        1 IQ1     -0.163000
      8 C5          0.2590    1.0120   -0.7530 c1        1 IQ1     -0.061000
      9 C6          0.9600    0.5010   -1.9920 c1        1 IQ1      0.024000
     10 C7          0.2610    0.3360   -3.1520 c1        1 IQ1     -0.187000
     11 C8          0.9210   -0.0470   -4.3100 c1        1 IQ1     -0.068000
     12 N9          2.2660   -0.2600   -4.2890 n1        1 IQ1     -0.134000
     13 C10         2.9650   -0.0960   -3.1320 c1        1 IQ1     -0.065000
     14 C11         2.3080    0.2870   -1.9730 c2        1 IQ1     -0.164000
     15 C4         -0.2810    0.2420    0.2420 c1        1 IQ1     -0.061000
     16 C12        -0.2350   -1.2670    0.3210 c1        1 IQ1     -0.060000
     17 C13        -1.2660   -1.8250   -0.4270 c2        1 IQ1     -0.044000
     18 N14        -1.3960   -3.1820   -0.5050 n1        1 IQ1     -0.133000
     19 C15        -0.5020   -4.0040    0.1590 c1        1 IQ1     -0.043500
     20 C16        -0.6260   -5.4040    0.0630 c2        1 IQ1     -0.104500
     21 C21         0.6500   -2.0770    0.9780 c1        1 IQ1     -0.054000
     22 C20         0.5180   -3.4550    0.8980 c1        1 IQ1     -0.043500
     23 C19         1.4380   -4.2910    1.5600 c2        1 IQ1     -0.104500
     24 C18         1.3140   -5.6720    1.4650 c1        1 IQ1     -0.126500
     25 C17         0.2810   -6.2280    0.7160 c1        1 IQ1     -0.126500
     26 H251        0.3800    4.7810    0.7770 hc        1 IQ1      0.082778
     27 H252       -0.2960    5.2940    2.1340 hc        1 IQ1      0.082778
     28 H253        0.6910    4.0340    2.1570 hc        1 IQ1      0.082778
     29 H231       -2.5230    5.0810    1.0160 hc        1 IQ1      0.082778
     30 H232       -1.7950    4.5440   -0.3040 hc        1 IQ1      0.082778
     31 H233       -2.9530    3.6770    0.3800 hc        1 IQ1      0.082778
     32 H241       -1.0780    3.0160    3.3790 hc        1 IQ1      0.082778
     33 H242       -2.3420    3.9400    3.0540 hc        1 IQ1      0.082778
     34 H243       -2.3420    2.4010    2.6150 hc        1 IQ1      0.082778
     35 H1          0.2380    3.0110   -0.9760 DU        1 IQ1      0.255000
     36 H7         -0.7030    0.4890   -3.1670 ha        1 IQ1      0.139000
     37 H11         2.8100    0.4040   -1.1430 ha        1 IQ1      0.159000
     38 H8          0.4210   -0.1650   -5.1400 ha        1 IQ1      0.161000
     39 H10         3.9290   -0.2490   -3.1180 ha        1 IQ1      0.166000
     40 H13        -1.8910   -1.2470   -0.9050 h4        1 IQ1      0.166000
     41 H21         1.3700   -1.6850    1.5090 ha        1 IQ1      0.154000
     42 H16        -1.3510   -5.7950   -0.4620 ha        1 IQ1      0.142500
     43 H17         0.1940   -7.1980    0.6500 ha        1 IQ1      0.134500
     44 H19         2.1620   -3.9010    2.0850 ha        1 IQ1      0.142500
     45 H18         1.9510   -6.2510    1.9240 ha        1 IQ1      0.134500
@<TRIPOS>BOND
     1    1    2 1   
     2    1   26 1   
     3    1   27 1   
     4    1   28 1   
     5    2    3 1   
     6    2    4 1   
     7    2    5 1   
     8    3   29 1   
     9    3   30 1   
    10    3   31 1   
    11    4   32 1   
    12    4   33 1   
    13    4   34 1   
    14    5    6 1   
    15    5    7 1   
    16    6   15 1   
    17    7    8 1   
    18    8   15 1   
    19    9   10 1   
    20    9   14 1   
    21   10   36 1   
    22   11   12 1   
    23   11   38 1   
    24   13   14 1   
    25   13   39 1   
    26   14   37 1   
    27   16   17 1   
    28   16   21 1   
    29   17   18 1   
    30   17   40 1   
    31   19   20 1   
    32   19   22 1   
    33   20   25 1   
    34   20   42 1   
    35   21   41 1   
    36   22   23 1   
    37   23   24 1   
    38   23   44 1   
    39   24   45 1   
    40   25   43 1   
@<TRIPOS>SUBSTRUCTURE
     1 IQ1         1 TEMP              0 ****  ****    0 ROOT
