@<TRIPOS>MOLECULE
IQ1
   45    48     1     0     0
SMALL
bcc


@<TRIPOS>ATOM
      1 C25         4.6440   -1.8950    1.2690 c3        1 IQ1     -0.088433
      2 C22         3.8810   -2.0790   -0.0370 c3        1 IQ1     -0.075300
      3 C23         4.7690   -1.6920   -1.2130 c3        1 IQ1     -0.088433
      4 C24         3.4730   -3.5400   -0.1770 c3        1 IQ1     -0.088433
      5 C2          2.6600   -1.1920   -0.0270 cc        1 IQ1      0.427800
      6 N3          1.3650   -1.5790   -0.1390 nd        1 IQ1     -0.660000
      7 N1          2.7510    0.2010    0.0990 na        1 IQ1     -0.305900
      8 C5          1.4480    0.7160    0.0770 cc        1 IQ1     -0.162600
      9 C6          1.1650    2.1280    0.2270 ca        1 IQ1      0.024000
     10 C7          0.0310    2.5590    0.9340 ca        1 IQ1     -0.240800
     11 C8         -0.1920    3.9400    1.0720 ca        1 IQ1      0.398700
     12 N9          0.6250    4.8840    0.5660 nb        1 IQ1     -0.660000
     13 C10         1.7080    4.4580   -0.1130 ca        1 IQ1      0.398700
     14 C11         2.0220    3.1030   -0.3090 ca        1 IQ1     -0.240800
     15 C4          0.5950   -0.4100   -0.0800 cd        1 IQ1      0.386800
     16 C12        -0.8500   -0.4340   -0.1940 ca        1 IQ1     -0.232800
     17 C13        -1.5370    0.6180   -0.8970 ca        1 IQ1      0.421200
     18 N14        -2.8430    0.6720   -1.0680 nb        1 IQ1     -0.659000
     19 C15        -3.6120   -0.3510   -0.5390 ca        1 IQ1      0.392600
     20 C16        -5.0340   -0.3310   -0.6990 ca        1 IQ1     -0.166300
     21 C21        -1.6060   -1.4630    0.3270 ca        1 IQ1     -0.054000
     22 C20        -3.0210   -1.4420    0.1690 ca        1 IQ1     -0.151300
     23 C19        -3.8480   -2.4700    0.6900 ca        1 IQ1     -0.108000
     24 C18        -5.2090   -2.4210    0.5200 ca        1 IQ1     -0.130000
     25 C17        -5.8020   -1.3430   -0.1790 ca        1 IQ1     -0.123000
     26 H251        5.0350   -0.8540    1.3620 hc        1 IQ1      0.043478
     27 H252        3.9800   -2.1090    2.1410 hc        1 IQ1      0.043478
     28 H253        5.5100   -2.5990    1.2990 hc        1 IQ1      0.043478
     29 H231        5.6430   -2.3860   -1.2660 hc        1 IQ1      0.043478
     30 H232        4.1990   -1.7630   -2.1700 hc        1 IQ1      0.043478
     31 H233        5.1540   -0.6510   -1.0990 hc        1 IQ1      0.043478
     32 H241        2.8230   -3.8480    0.6760 hc        1 IQ1      0.043478
     33 H242        2.9140   -3.7010   -1.1290 hc        1 IQ1      0.043478
     34 H243        4.3870   -4.1820   -0.1830 hc        1 IQ1      0.043478
     35 H1          3.5760    0.7290    0.2150 hn        1 IQ1      0.304700
     36 H7         -0.6700    1.8320    1.3660 ha        1 IQ1      0.149000
     37 H11         2.9130    2.8250   -0.8870 ha        1 IQ1      0.149000
     38 H8         -1.0770    4.3130    1.6200 h4        1 IQ1      0.026600
     39 H10         2.3590    5.2510   -0.5230 h4        1 IQ1      0.026600
     40 H13        -0.9480    1.4470   -1.3330 h4        1 IQ1      0.029100
     41 H21        -1.1380   -2.3050    0.8600 ha        1 IQ1      0.154000
     42 H16        -5.4980    0.5060   -1.2440 ha        1 IQ1      0.150000
     43 H17        -6.8960   -1.3280   -0.3030 ha        1 IQ1      0.135000
     44 H19        -3.3740   -3.3040    1.2310 ha        1 IQ1      0.135000
     45 H18        -5.8540   -3.2170    0.9220 ha        1 IQ1      0.134000
@<TRIPOS>BOND
     1    1    2 1   
     2    1   26 1   
     3    1   27 1   
     4    1   28 1   
     5    2    3 1   
     6    2    4 1   
     7    2    5 1   
     8    3   29 1   
     9    3   30 1   
    10    3   31 1   
    11    4   32 1   
    12    4   33 1   
    13    4   34 1   
    14    5    6 2   
    15    5    7 1   
    16    6   15 1   
    17    7    8 1   
    18    7   35 1   
    19    8    9 1   
    20    8   15 2   
    21    9   10 ar  
    22    9   14 ar  
    23   10   11 ar  
    24   10   36 1   
    25   11   12 ar  
    26   11   38 1   
    27   12   13 ar  
    28   13   14 ar  
    29   13   39 1   
    30   14   37 1   
    31   15   16 1   
    32   16   17 ar  
    33   16   21 ar  
    34   17   18 ar  
    35   17   40 1   
    36   18   19 ar  
    37   19   20 ar  
    38   19   22 ar  
    39   20   25 ar  
    40   20   42 1   
    41   21   22 ar  
    42   21   41 1   
    43   22   23 ar  
    44   23   24 ar  
    45   23   44 1   
    46   24   25 ar  
    47   24   45 1   
    48   25   43 1   
@<TRIPOS>SUBSTRUCTURE
     1 IQ1         1 TEMP              0 ****  ****    0 ROOT
