@<TRIPOS>MOLECULE
IQ1
   45    48     1     0     0
SMALL
bcc


@<TRIPOS>ATOM
      1 C25         0.0950    0.2440    0.3640 c3        1 IQ1     -0.088433
      2 C22         1.5530    0.0250   -0.0230 c3        1 IQ1     -0.075300
      3 C23         2.4000   -0.1540    1.2310 c3        1 IQ1     -0.088433
      4 C24         1.6590   -1.2290   -0.8820 c3        1 IQ1     -0.088433
      5 C2          2.0490    1.2280   -0.7880 cc        1 IQ1      0.427800
      6 N3          2.5440    1.2490   -2.0500 nd        1 IQ1     -0.660000
      7 N1          2.0540    2.5150   -0.2320 na        1 IQ1     -0.305900
      8 C5          2.5660    3.3920   -1.1970 cc        1 IQ1     -0.162600
      9 C6          2.6750    4.8190   -0.9740 ca        1 IQ1      0.024000
     10 C7          2.4400    5.7270   -2.0190 ca        1 IQ1     -0.240800
     11 C8          2.5370    7.1030   -1.7510 ca        1 IQ1      0.398700
     12 N9          2.8410    7.6090   -0.5400 nb        1 IQ1     -0.660000
     13 C10         3.0670    6.7290    0.4540 ca        1 IQ1      0.398700
     14 C11         2.9980    5.3350    0.2920 ca        1 IQ1     -0.240800
     15 C4          2.8750    2.5830   -2.3240 cd        1 IQ1      0.386800
     16 C12         3.4610    2.9870   -3.5860 ca        1 IQ1     -0.232800
     17 C13         4.4640    4.0190   -3.6200 ca        1 IQ1      0.421200
     18 N14         5.0670    4.4380   -4.7150 nb        1 IQ1     -0.659000
     19 C15         4.7170    3.8490   -5.9180 ca        1 IQ1      0.392600
     20 C16         5.3440    4.2760   -7.1310 ca        1 IQ1     -0.166300
     21 C21         3.1140    2.3860   -4.7780 ca        1 IQ1     -0.054000
     22 C20         3.7370    2.8120   -5.9860 ca        1 IQ1     -0.151300
     23 C19         3.4120    2.2340   -7.2390 ca        1 IQ1     -0.108000
     24 C18         4.0330    2.6670   -8.3860 ca        1 IQ1     -0.130000
     25 C17         5.0030    3.6940   -8.3270 ca        1 IQ1     -0.123000
     26 H251       -0.5220    0.4450   -0.5430 hc        1 IQ1      0.043478
     27 H252       -0.0080    1.1050    1.0680 hc        1 IQ1      0.043478
     28 H253       -0.2990   -0.6710    0.8690 hc        1 IQ1      0.043478
     29 H231        2.0810   -1.0790    1.7690 hc        1 IQ1      0.043478
     30 H232        2.2790    0.7140    1.9230 hc        1 IQ1      0.043478
     31 H233        3.4780   -0.2520    0.9600 hc        1 IQ1      0.043478
     32 H241        2.7200   -1.4130   -1.1770 hc        1 IQ1      0.043478
     33 H242        1.0430   -1.1230   -1.8060 hc        1 IQ1      0.043478
     34 H243        1.2890   -2.1090   -0.3020 hc        1 IQ1      0.043478
     35 H1          1.7270    2.7710    0.6620 hn        1 IQ1      0.304700
     36 H7          2.1900    5.3680   -3.0270 ha        1 IQ1      0.149000
     37 H11         3.2110    4.6730    1.1410 ha        1 IQ1      0.149000
     38 H8          2.3600    7.8440   -2.5510 h4        1 IQ1      0.026600
     39 H10         3.3210    7.1680    1.4350 h4        1 IQ1      0.026600
     40 H13         4.7670    4.5060   -2.6730 h4        1 IQ1      0.029100
     41 H21         2.3660    1.5790   -4.8160 ha        1 IQ1      0.154000
     42 H16         6.1010    5.0750   -7.0880 ha        1 IQ1      0.150000
     43 H17         5.4870    4.0220   -9.2600 ha        1 IQ1      0.135000
     44 H19         2.6570    1.4340   -7.2720 ha        1 IQ1      0.135000
     45 H18         3.7840    2.2210   -9.3600 ha        1 IQ1      0.134000
@<TRIPOS>BOND
     1    1    2 1   
     2    1   26 1   
     3    1   27 1   
     4    1   28 1   
     5    2    3 1   
     6    2    4 1   
     7    2    5 1   
     8    3   29 1   
     9    3   30 1   
    10    3   31 1   
    11    4   32 1   
    12    4   33 1   
    13    4   34 1   
    14    5    6 2   
    15    5    7 1   
    16    6   15 1   
    17    7    8 1   
    18    7   35 1   
    19    8    9 1   
    20    8   15 2   
    21    9   10 ar  
    22    9   14 ar  
    23   10   11 ar  
    24   10   36 1   
    25   11   12 ar  
    26   11   38 1   
    27   12   13 ar  
    28   13   14 ar  
    29   13   39 1   
    30   14   37 1   
    31   15   16 1   
    32   16   17 ar  
    33   16   21 ar  
    34   17   18 ar  
    35   17   40 1   
    36   18   19 ar  
    37   19   20 ar  
    38   19   22 ar  
    39   20   25 ar  
    40   20   42 1   
    41   21   22 ar  
    42   21   41 1   
    43   22   23 ar  
    44   23   24 ar  
    45   23   44 1   
    46   24   25 ar  
    47   24   45 1   
    48   25   43 1   
@<TRIPOS>SUBSTRUCTURE
     1 IQ1         1 TEMP              0 ****  ****    0 ROOT
