@<TRIPOS>MOLECULE
IQ6
   42    45     1     0     0
SMALL
bcc


@<TRIPOS>ATOM
      1 C1         -0.0730   -1.0780   -0.0430 ca        1 IQ6     -0.269300
      2 C2          1.2720   -0.7390   -0.0400 ca        1 IQ6     -0.049000
      3 C3          5.2340    1.4550    0.8310 ca        1 IQ6     -0.271300
      4 C4          4.6090   -0.7030   -0.0500 ca        1 IQ6     -0.267300
      5 C5         -0.8960   -0.7200    1.0560 ca        1 IQ6      0.413200
      6 C6          2.8700    1.1080    2.7080 cc        1 IQ6     -0.072100
      7 C7          1.7740   -0.0500    1.0670 ca        1 IQ6     -0.176100
      8 C8          4.3030    0.4120    0.7440 ca        1 IQ6      0.061200
      9 C9          3.0560    0.4880    1.4640 cd        1 IQ6     -0.098400
     10 C10         0.8400    0.2810    2.1370 ca        1 IQ6      0.417800
     11 C11         6.4620    1.3600    0.1170 ca        1 IQ6      0.630200
     12 C12         5.8420   -0.7140   -0.7250 ca        1 IQ6      0.525300
     13 C13         9.7560    3.8840    3.4100 c3        1 IQ6     -0.080400
     14 C14         9.1070    2.5200    3.5210 c3        1 IQ6     -0.074900
     15 C15         8.8760    4.8460    2.6400 c3        1 IQ6     -0.074900
     16 C16         8.7410    1.9690    2.1600 c3        1 IQ6     -0.093900
     17 C17         8.5140    4.3000    1.2750 c3        1 IQ6     -0.093900
     18 C18         7.8080    2.9400    1.4150 c3        1 IQ6      0.187500
     19 N19        -0.4860   -0.0520    2.1400 nb        1 IQ6     -0.667000
     20 N20         6.7640    0.2650   -0.6520 nb        1 IQ6     -0.718000
     21 N21         1.5490    0.9890    3.1230 na        1 IQ6     -0.280100
     22 N22         7.3600    2.4600    0.1120 nu        1 IQ6     -0.808900
     23 Cl1         6.2050   -2.0810   -1.6980 cl        1 IQ6     -0.161000
     24 H1         -0.5150   -1.6210   -0.8890 ha        1 IQ6      0.145000
     25 H2          1.9280   -0.9950   -0.8850 ha        1 IQ6      0.146000
     26 H3          5.0000    2.3490    1.4240 ha        1 IQ6      0.149000
     27 H4          3.9110   -1.5470   -0.1320 ha        1 IQ6      0.160000
     28 H5         -1.9680   -0.9930    1.0540 h4        1 IQ6      0.023100
     29 H6          3.6050    1.6240    3.3320 h4        1 IQ6      0.173000
     30 H8          9.9530    4.2920    4.4350 hc        1 IQ6      0.042200
     31 H9          8.1860    2.5950    4.1570 hc        1 IQ6      0.041700
     32 H10         9.8100    1.8100    4.0320 hc        1 IQ6      0.041700
     33 H11         9.4080    5.8250    2.5150 hc        1 IQ6      0.041700
     34 H12         7.9390    5.0460    3.2240 hc        1 IQ6      0.041700
     35 H13         8.2350    0.9760    2.2810 hc        1 IQ6      0.049950
     36 H14         9.6720    1.8040    1.5580 hc        1 IQ6      0.049950
     37 H15         7.8420    5.0250    0.7470 hc        1 IQ6      0.049950
     38 H16         9.4430    4.1830    0.6570 hc        1 IQ6      0.049950
     39 H17         6.8880    3.0940    2.0540 h1        1 IQ6      0.058700
     40 H18         1.1670    1.3260    3.9670 hn        1 IQ6      0.313700
     41 H19         8.1380    2.3250   -0.5100 hn        1 IQ6      0.399800
     42 H7         10.7460    3.7860    2.8910 hc        1 IQ6      0.042200
@<TRIPOS>BOND
     1    1    2 ar  
     2    1    5 ar  
     3    1   24 1   
     4    2    7 ar  
     5    2   25 1   
     6    3    8 ar  
     7    3   11 ar  
     8    3   26 1   
     9    4    8 ar  
    10    4   12 ar  
    11    4   27 1   
    12    5   19 ar  
    13    5   28 1   
    14    6    9 2   
    15    6   21 1   
    16    6   29 1   
    17    7    9 1   
    18    7   10 ar  
    19    8    9 1   
    20   10   19 ar  
    21   10   21 1   
    22   11   20 ar  
    23   11   22 1   
    24   12   20 ar  
    25   12   23 1   
    26   13   14 1   
    27   13   15 1   
    28   13   30 1   
    29   13   42 1   
    30   14   16 1   
    31   14   31 1   
    32   14   32 1   
    33   15   17 1   
    34   15   33 1   
    35   15   34 1   
    36   16   18 1   
    37   16   35 1   
    38   16   36 1   
    39   17   18 1   
    40   17   37 1   
    41   17   38 1   
    42   18   22 1   
    43   18   39 1   
    44   21   40 1   
    45   22   41 1   
@<TRIPOS>SUBSTRUCTURE
     1 IQ6         1 TEMP              0 ****  ****    0 ROOT
