@<TRIPOS>MOLECULE
IQ6
   42    34     1     0     0
SMALL
bcc


@<TRIPOS>ATOM
      1 C1         -6.1930    0.5610   -0.3880 c1        1 IQ6     -0.128000
      2 C2         -4.8690    0.2280   -0.3480 c1        1 IQ6     -0.049000
      3 C3         -0.6790   -0.0070    0.5660 c1        1 IQ6     -0.243000
      4 C4         -1.5050   -2.0990   -0.1580 c1        1 IQ6     -0.217000
      5 C5         -6.9740    0.4430    0.7550 c1        1 IQ6     -0.128000
      6 C6         -3.0100   -0.9790    2.4880 c1        1 IQ6     -0.044000
      7 C7         -4.3060   -0.2280    0.8330 c1        1 IQ6     -0.099000
      8 C8         -1.7000   -0.9090    0.4800 c1        1 IQ6      0.085000
      9 C9         -3.0240   -0.6200    1.1550 c1        1 IQ6     -0.123000
     10 C10        -5.0780   -0.3430    1.9600 c1        1 IQ6      0.026000
     11 C11         0.5550   -0.3020    0.0060 c1        1 IQ6      0.135000
     12 C12        -0.2700   -2.3910   -0.7170 c1        1 IQ6      0.039000
     13 C13         5.2160    0.3880   -1.4570 c3        1 IQ6     -0.158000
     14 C14         4.4160    1.1420   -2.2410 c3        1 IQ6     -0.151500
     15 C15         5.3170    0.4960   -0.1150 c3        1 IQ6     -0.151500
     16 C16         3.0760    1.3990   -1.5860 c3        1 IQ6     -0.171500
     17 C17         3.9690    0.7570    0.5240 c3        1 IQ6     -0.171500
     18 C18         2.7450    0.3690   -0.4170 c3        1 IQ6      0.005000
     19 N19        -6.4180   -0.0050    1.9170 n1        1 IQ6     -0.141000
     20 N20         0.7480   -1.4900   -0.6300 n2        1 IQ6     -0.192000
     21 N21        -4.2730   -0.8090    2.9850 n1        1 IQ6     -0.194000
     22 N22         1.6280    0.6180    0.1320 n2        1 IQ6     -0.269000
     23 CL1        -0.1360   -3.8640   -1.6410 cl        1 IQ6      0.004000
     24 H1         -6.5910    0.8820   -1.2200 ha        1 IQ6      0.152000
     25 H2         -4.3200    0.3100   -1.1510 ha        1 IQ6      0.146000
     26 H3         -0.8170    0.8440    1.0220 ha        1 IQ6      0.142000
     27 H4         -2.2340   -2.7450   -0.2210 ha        1 IQ6      0.159000
     28 H5         -7.9200    0.6810    0.7260 ha        1 IQ6      0.152000
     29 H6         -2.2360   -1.3010    2.9870 DU        1 IQ6      0.219500
     30 H7          6.1250    0.5070   -1.8060 hc        1 IQ6      0.082500
     31 H8          4.9650   -0.5440   -1.6340 hc        1 IQ6      0.082500
     32 H9          4.2730    0.6780   -3.0920 hc        1 IQ6      0.079750
     33 H10         4.8570    2.0000   -2.4160 hc        1 IQ6      0.079750
     34 H11         5.9220    1.2350    0.1020 hc        1 IQ6      0.079750
     35 H12         5.6860   -0.3370    0.2460 hc        1 IQ6      0.079750
     36 H13         2.3760    1.3360   -2.2660 hc        1 IQ6      0.085500
     37 H14         3.0760    2.3040   -1.2150 hc        1 IQ6      0.085500
     38 H15         3.9080    0.2370    1.3500 hc        1 IQ6      0.085500
     39 H16         3.9060    1.7080    0.7450 hc        1 IQ6      0.085500
     40 H17         2.8060   -0.5580   -0.7240 h1        1 IQ6      0.127000
     41 H18        -4.5380   -0.9740    3.8420 DU        1 IQ6      0.219500
     42 H19         1.5220    1.3800    0.6250 hn        1 IQ6      0.194000
@<TRIPOS>BOND
     1    1    5 1   
     2    1   24 1   
     3    2    7 1   
     4    2   25 1   
     5    3   11 1   
     6    3   26 1   
     7    4    8 1   
     8    4   27 1   
     9    5   28 1   
    10    6    9 1   
    11    6   21 1   
    12    8    9 1   
    13   10   19 1   
    14   11   20 1   
    15   12   20 1   
    16   13   14 1   
    17   13   15 1   
    18   13   30 1   
    19   13   31 1   
    20   14   16 1   
    21   14   32 1   
    22   14   33 1   
    23   15   17 1   
    24   15   34 1   
    25   15   35 1   
    26   16   18 1   
    27   16   36 1   
    28   16   37 1   
    29   17   18 1   
    30   17   38 1   
    31   17   39 1   
    32   18   22 1   
    33   18   40 1   
    34   22   42 1   
@<TRIPOS>SUBSTRUCTURE
     1 IQ6         1 TEMP              0 ****  ****    0 ROOT
