@<TRIPOS>MOLECULE
IQ6
   42    45     1     0     0
SMALL
bcc


@<TRIPOS>ATOM
      1 C1         -0.0530   -1.1160   -0.0490 ca        1 IQ6     -0.269300
      2 C2          1.2890   -0.7680   -0.0430 ca        1 IQ6     -0.049000
      3 C3          5.2360    1.4510    0.8310 ca        1 IQ6     -0.271300
      4 C4          4.6260   -0.7140   -0.0440 ca        1 IQ6     -0.267300
      5 C5         -0.8810   -0.7590    1.0470 ca        1 IQ6      0.413200
      6 C6          2.8690    1.0960    2.7030 cc        1 IQ6     -0.072100
      7 C7          1.7840   -0.0730    1.0630 ca        1 IQ6     -0.176100
      8 C8          4.3110    0.4030    0.7450 ca        1 IQ6      0.061200
      9 C9          3.0630    0.4730    1.4620 cd        1 IQ6     -0.098400
     10 C10         0.8450    0.2550    2.1300 ca        1 IQ6      0.417800
     11 C11         6.4670    1.3610    0.1200 ca        1 IQ6      0.630200
     12 C12         5.8610   -0.7190   -0.7160 ca        1 IQ6      0.526300
     13 C13         9.7370    3.9170    3.4120 c3        1 IQ6     -0.080400
     14 C14         9.0960    2.5500    3.5280 c3        1 IQ6     -0.074900
     15 C15         8.8530    4.8710    2.6370 c3        1 IQ6     -0.074900
     16 C16         8.7360    1.9910    2.1680 c3        1 IQ6     -0.093900
     17 C17         8.4980    4.3170    1.2730 c3        1 IQ6     -0.093900
     18 C18         7.8000    2.9540    1.4170 c3        1 IQ6      0.187500
     19 N19        -0.4780   -0.0860    2.1300 nb        1 IQ6     -0.667000
     20 N20         6.7770    0.2650   -0.6450 nb        1 IQ6     -0.718000
     21 N21         1.5480    0.9710    3.1150 na        1 IQ6     -0.280100
     22 N22         7.3580    2.4660    0.1140 nh        1 IQ6     -0.808900
     23 CL1         6.2340   -2.0870   -1.6850 cl        1 IQ6     -0.161000
     24 H1         -0.4900   -1.6630   -0.8950 ha        1 IQ6      0.145000
     25 H2          1.9490   -1.0230   -0.8860 ha        1 IQ6      0.146000
     26 H3          4.9960    2.3460    1.4200 ha        1 IQ6      0.149000
     27 H4          3.9330   -1.5620   -0.1260 ha        1 IQ6      0.160000
     28 H5         -1.9510   -1.0380    1.0430 h4        1 IQ6      0.023100
     29 H6          3.5990    1.6180    3.3270 h4        1 IQ6      0.173000
     30 H8         10.7290    3.8220    2.8960 hc        1 IQ6      0.042200
     31 H9          9.8010    1.8460    4.0430 hc        1 IQ6      0.041700
     32 H10         8.1720    2.6210    4.1600 hc        1 IQ6      0.041700
     33 H11         9.3800    5.8520    2.5090 hc        1 IQ6      0.041700
     34 H12         7.9140    5.0670    3.2180 hc        1 IQ6      0.041700
     35 H13         8.2360    0.9960    2.2910 hc        1 IQ6      0.049950
     36 H14         9.6700    1.8300    1.5680 hc        1 IQ6      0.049950
     37 H15         9.4290    4.2030    0.6580 hc        1 IQ6      0.049950
     38 H16         7.8230    5.0370    0.7400 hc        1 IQ6      0.049950
     39 H17         6.8770    3.1050    2.0520 h1        1 IQ6      0.058700
     40 H18         1.1620    1.3080    3.9580 hn        1 IQ6      0.313700
     41 H19         8.1380    2.3340   -0.5050 hn        1 IQ6      0.399800
     42 H7          9.9290    4.3300    4.4370 hc        1 IQ6      0.042200
@<TRIPOS>BOND
     1    1    2 ar  
     2    1    5 ar  
     3    1   24 1   
     4    2    7 ar  
     5    2   25 1   
     6    3    8 ar  
     7    3   11 ar  
     8    3   26 1   
     9    4    8 ar  
    10    4   12 ar  
    11    4   27 1   
    12    5   19 ar  
    13    5   28 1   
    14    6    9 2   
    15    6   21 1   
    16    6   29 1   
    17    7    9 1   
    18    7   10 ar  
    19    8    9 1   
    20   10   19 ar  
    21   10   21 1   
    22   11   20 ar  
    23   11   22 1   
    24   12   20 ar  
    25   12   23 1   
    26   13   14 1   
    27   13   15 1   
    28   13   30 1   
    29   13   42 1   
    30   14   16 1   
    31   14   31 1   
    32   14   32 1   
    33   15   17 1   
    34   15   33 1   
    35   15   34 1   
    36   16   18 1   
    37   16   35 1   
    38   16   36 1   
    39   17   18 1   
    40   17   37 1   
    41   17   38 1   
    42   18   22 1   
    43   18   39 1   
    44   21   40 1   
    45   22   41 1   
@<TRIPOS>SUBSTRUCTURE
     1 IQ6         1 TEMP              0 ****  ****    0 ROOT
