@<TRIPOS>MOLECULE
IQ6
   42    45     1     0     0
SMALL
bcc


@<TRIPOS>ATOM
      1 C1          5.4470    0.0290   -0.6660 ca        1 IQ6     -0.269300
      2 C2          4.0960    0.3050   -0.5130 ca        1 IQ6     -0.049000
      3 C3         -0.4920   -0.1570   -0.4740 ca        1 IQ6     -0.271300
      4 C4          1.0990    1.3950    0.4670 ca        1 IQ6     -0.267300
      5 C5          5.9130   -1.3070   -0.5540 ca        1 IQ6      0.413200
      6 C6          1.5790   -2.2900    0.1530 cc        1 IQ6     -0.072100
      7 C7          3.2330   -0.7610   -0.2460 ca        1 IQ6     -0.176100
      8 C8          0.8040    0.1110   -0.0150 ca        1 IQ6      0.061200
      9 C9          1.8110   -0.9200   -0.0360 cd        1 IQ6     -0.098400
     10 C10         3.8130   -2.0960   -0.1640 ca        1 IQ6      0.417800
     11 C11        -1.4750    0.8730   -0.4410 ca        1 IQ6      0.630200
     12 C12         0.0700    2.3540    0.4600 ca        1 IQ6      0.525300
     13 C13        -5.8620   -1.9320    0.5370 c3        1 IQ6     -0.080400
     14 C14        -4.7010   -1.5750    1.4420 c3        1 IQ6     -0.074900
     15 C15        -5.4120   -2.0650   -0.9030 c3        1 IQ6     -0.074900
     16 C16        -3.9920   -0.3260    0.9640 c3        1 IQ6     -0.093900
     17 C17        -4.7090   -0.8130   -1.3850 c3        1 IQ6     -0.093900
     18 C18        -3.5010   -0.5010   -0.4840 c3        1 IQ6      0.187500
     19 N19         5.1440   -2.3740   -0.3120 nb        1 IQ6     -0.667000
     20 N20        -1.1890    2.1260    0.0380 nb        1 IQ6     -0.718000
     21 N21         2.7690   -3.0040    0.0820 na        1 IQ6     -0.280100
     22 N22        -2.7570    0.6400   -1.0070 nh        1 IQ6     -0.808900
     23 CL1         0.4430    3.9240    1.0470 cl        1 IQ6     -0.161000
     24 H1          6.1650    0.8310   -0.8760 ha        1 IQ6      0.145000
     25 H2          3.7090    1.3300   -0.6070 ha        1 IQ6      0.146000
     26 H3         -0.7340   -1.1470   -0.8820 ha        1 IQ6      0.149000
     27 H4          2.0990    1.6400    0.8480 ha        1 IQ6      0.160000
     28 H5          6.9900   -1.5260   -0.6730 h4        1 IQ6      0.023100
     29 H6          0.6330   -2.8030    0.3450 h4        1 IQ6      0.173000
     30 H8         -6.6510   -1.1370    0.6110 hc        1 IQ6      0.042200
     31 H9         -5.0740   -1.4130    2.4860 hc        1 IQ6      0.041700
     32 H10        -3.9750   -2.4300    1.4730 hc        1 IQ6      0.041700
     33 H11        -4.7220   -2.9440   -1.0000 hc        1 IQ6      0.041700
     34 H12        -6.3010   -2.2620   -1.5570 hc        1 IQ6      0.041700
     35 H13        -4.6910    0.5490    1.0220 hc        1 IQ6      0.049950
     36 H14        -3.1200   -0.1090    1.6350 hc        1 IQ6      0.049950
     37 H15        -4.3680   -0.9590   -2.4420 hc        1 IQ6      0.049950
     38 H16        -5.4250    0.0500   -1.3720 hc        1 IQ6      0.049950
     39 H17        -2.8120   -1.3960   -0.5100 h1        1 IQ6      0.058700
     40 H18         2.8760   -3.9780    0.1970 hn        1 IQ6      0.313700
     41 H19        -3.3290    1.4660   -1.0270 hn        1 IQ6      0.399800
     42 H7         -6.3220   -2.8960    0.8780 hc        1 IQ6      0.042200
@<TRIPOS>BOND
     1    1    2 ar  
     2    1    5 ar  
     3    1   24 1   
     4    2    7 ar  
     5    2   25 1   
     6    3    8 ar  
     7    3   11 ar  
     8    3   26 1   
     9    4    8 ar  
    10    4   12 ar  
    11    4   27 1   
    12    5   19 ar  
    13    5   28 1   
    14    6    9 2   
    15    6   21 1   
    16    6   29 1   
    17    7    9 1   
    18    7   10 ar  
    19    8    9 1   
    20   10   19 ar  
    21   10   21 1   
    22   11   20 ar  
    23   11   22 1   
    24   12   20 ar  
    25   12   23 1   
    26   13   14 1   
    27   13   15 1   
    28   13   30 1   
    29   13   42 1   
    30   14   16 1   
    31   14   31 1   
    32   14   32 1   
    33   15   17 1   
    34   15   33 1   
    35   15   34 1   
    36   16   18 1   
    37   16   35 1   
    38   16   36 1   
    39   17   18 1   
    40   17   37 1   
    41   17   38 1   
    42   18   22 1   
    43   18   39 1   
    44   21   40 1   
    45   22   41 1   
@<TRIPOS>SUBSTRUCTURE
     1 IQ6         1 TEMP              0 ****  ****    0 ROOT
