@<TRIPOS>MOLECULE
IQ6
   43    46     1     0     0
SMALL
bcc


@<TRIPOS>ATOM
      1 C1         -0.0710    0.2400   -0.1130 ca        1 IQ6     -0.241300
      2 C2          1.3130    0.2680   -0.0690 ca        1 IQ6     -0.065000
      3 C3          5.6700    0.3360    1.5190 ca        1 IQ6     -0.242300
      4 C4          4.5720   -0.1130   -0.5860 ca        1 IQ6     -0.207300
      5 C5         -0.8050   -0.2970    0.9800 ca        1 IQ6      0.426200
      6 C6          3.2510   -0.9780    2.8070 cc        1 IQ6     -0.040100
      7 C7          1.9490   -0.2490    1.0650 ca        1 IQ6     -0.171100
      8 C8          4.5110   -0.0610    0.8150 ca        1 IQ6      0.103200
      9 C9          3.3140   -0.4030    1.5220 cd        1 IQ6     -0.159400
     10 C10         1.1020   -0.7620    2.1320 ca        1 IQ6      0.418800
     11 C11         6.8160    0.6620    0.7710 ca        1 IQ6      0.482200
     12 C12         5.7730    0.2390   -1.2400 ca        1 IQ6      0.521300
     13 C13         9.0470    5.1710    2.5210 c3        1 IQ6     -0.091400
     14 C14         8.8040    4.1660    3.6270 c3        1 IQ6     -0.077900
     15 C15         8.1380    4.9190    1.3380 c3        1 IQ6     -0.077900
     16 C16         8.9440    2.7410    3.1240 c3        1 IQ6     -0.099900
     17 C17         8.2740    3.4990    0.8230 c3        1 IQ6     -0.099900
     18 C18         7.9730    2.5170    1.9590 c3        1 IQ6      0.129500
     19 N19        -0.2640   -0.7920    2.0970 nb        1 IQ6     -0.643000
     20 N20         6.8920    0.6260   -0.5860 nb        1 IQ6     -0.673000
     21 N21         1.9400   -1.1970    3.1790 na        1 IQ6     -0.254100
     22 N22         8.0470    1.0800    1.4830 n4        1 IQ6     -0.751700
     23 CL1         5.8270    0.1710   -2.9390 cl        1 IQ6     -0.076000
     24 H1         -0.6170    0.6310   -0.9830 ha        1 IQ6      0.159000
     25 H2          1.8950    0.6940   -0.8990 ha        1 IQ6      0.140000
     26 H3          5.6520    0.3910    2.6170 ha        1 IQ6      0.161000
     27 H4          3.6960   -0.4400   -1.1710 ha        1 IQ6      0.192000
     28 H5         -1.9120   -0.3230    0.9440 h4        1 IQ6      0.043100
     29 H6          4.0730   -1.2620    3.4700 h4        1 IQ6      0.172000
     30 H9          9.5420    4.3290    4.4560 hc        1 IQ6      0.066700
     31 H10         7.7780    4.3140    4.0560 hc        1 IQ6      0.066700
     32 H11         8.3950    5.6280    0.5060 hc        1 IQ6      0.066700
     33 H12         7.0720    5.1150    1.6290 hc        1 IQ6      0.066700
     34 H13        10.0000    2.5680    2.7860 hc        1 IQ6      0.066700
     35 H14         8.7250    2.0300    3.9640 hc        1 IQ6      0.066700
     36 H15         9.3160    3.3380    0.4400 hc        1 IQ6      0.066700
     37 H16         7.5620    3.3400   -0.0300 hc        1 IQ6      0.066700
     38 H17         6.9130    2.6780    2.3210 hx        1 IQ6      0.107700
     39 H18         1.6270   -1.6200    4.0170 hn        1 IQ6      0.328700
     40 H19         8.1660    0.4620    2.2920 hn        1 IQ6      0.460300
     41 H7         10.1190    5.1180    2.1920 hc        1 IQ6      0.066200
     42 H222        8.8640    0.9780    0.8640 hn        1 IQ6      0.460300
     43 H8          8.8690    6.2060    2.9150 hc        1 IQ6      0.066200
@<TRIPOS>BOND
     1    1    2 ar  
     2    1    5 ar  
     3    1   24 1   
     4    2    7 ar  
     5    2   25 1   
     6    3    8 ar  
     7    3   11 ar  
     8    3   26 1   
     9    4    8 ar  
    10    4   12 ar  
    11    4   27 1   
    12    5   19 ar  
    13    5   28 1   
    14    6    9 2   
    15    6   21 1   
    16    6   29 1   
    17    7    9 1   
    18    7   10 ar  
    19    8    9 1   
    20   10   19 ar  
    21   10   21 1   
    22   11   20 ar  
    23   11   22 1   
    24   12   20 ar  
    25   12   23 1   
    26   13   14 1   
    27   13   15 1   
    28   13   41 1   
    29   13   43 1   
    30   14   16 1   
    31   14   30 1   
    32   14   31 1   
    33   15   17 1   
    34   15   32 1   
    35   15   33 1   
    36   16   18 1   
    37   16   34 1   
    38   16   35 1   
    39   17   18 1   
    40   17   36 1   
    41   17   37 1   
    42   18   22 1   
    43   18   38 1   
    44   21   39 1   
    45   22   40 1   
    46   22   42 1   
@<TRIPOS>SUBSTRUCTURE
     1 IQ6         1 TEMP              0 ****  ****    0 ROOT
