@<TRIPOS>MOLECULE
IQ7
   57    60     1     0     0
SMALL
bcc


@<TRIPOS>ATOM
      1 C1          0.3140   -0.5570   -0.1160 c3        1 IQ7      0.118700
      2 O2          1.5670    0.0700    0.1380 os        1 IQ7     -0.465600
      3 C3          2.1670   -0.3470    1.3590 c3        1 IQ7      0.102400
      4 C4          3.6470    0.0370    1.2860 c3        1 IQ7      0.103800
      5 N5          3.8430    1.4600    0.8870 ny        1 IQ7     -0.670800
      6 C6          5.3060    1.8790    0.8520 c         1 IQ7      0.578700
      7 O7          6.0720    1.1440    1.4630 o         1 IQ7     -0.442100
      8 C8          5.6130    3.0790    0.0870 ca        1 IQ7     -0.241600
      9 C9          4.6310    4.0220   -0.2990 ca        1 IQ7     -0.096000
     10 C10         4.9570    5.1550   -1.0190 ca        1 IQ7     -0.119000
     11 C11         6.3030    5.3540   -1.3710 ca        1 IQ7     -0.023200
     12 N12         6.9620    6.3500   -2.0820 na        1 IQ7     -0.145300
     13 C13         6.3240    7.4510   -2.7450 c3        1 IQ7      0.028300
     14 C14         5.9030    8.6130   -1.8330 c3        1 IQ7      0.110400
     15 O15         7.0800    9.3350   -1.4950 os        1 IQ7     -0.452600
     16 C16         6.8280   10.4300   -0.6240 c3        1 IQ7      0.114700
     17 C17         8.3480    5.9800   -2.0960 cc        1 IQ7      0.564400
     18 N18         8.5790    4.8190   -1.4400 nd        1 IQ7     -0.533100
     19 C19         7.3250    4.3900   -0.9730 ca        1 IQ7      0.058400
     20 C20         6.9690    3.2620   -0.2380 ca        1 IQ7      0.035000
     21 C21         9.3760    6.7370   -2.7690 cc        1 IQ7     -0.320500
     22 C22        10.4710    6.2290   -3.5170 cd        1 IQ7      0.399200
     23 N23        11.2590    7.2670   -3.9620 nd        1 IQ7     -0.662000
     24 C24        10.6800    8.4190   -3.4900 cc        1 IQ7      0.504000
     25 N25         9.5200    8.1300   -2.7600 na        1 IQ7     -0.287900
     26 C26        11.1760    9.7770   -3.7020 ca        1 IQ7     -0.147500
     27 C27        12.5370    9.9770   -3.9760 ca        1 IQ7     -0.091000
     28 C28        13.0270   11.2640   -4.1820 ca        1 IQ7     -0.128000
     29 C29        12.1590   12.3580   -4.1160 ca        1 IQ7      0.035400
     30 Cl30       12.7530   13.9270   -4.3640 cl        1 IQ7     -0.069400
     31 C31        10.7980   12.1660   -3.8490 ca        1 IQ7     -0.128000
     32 C32        10.3100   10.8790   -3.6440 ca        1 IQ7     -0.091000
     33 H11C       -0.0180   -0.1110   -1.0880 h1        1 IQ7      0.057033
     34 H12C        0.4470   -1.6630   -0.2120 h1        1 IQ7      0.057033
     35 H13C       -0.4100   -0.3190    0.7000 h1        1 IQ7      0.057033
     36 H31C        1.6500    0.1610    2.2160 h1        1 IQ7      0.072200
     37 H32C        2.0980   -1.4610    1.4880 h1        1 IQ7      0.072200
     38 H41C        4.1300   -0.1290    2.2920 hx        1 IQ7      0.119700
     39 H42C        4.1750   -0.6030    0.5230 hx        1 IQ7      0.119700
     40 H5          3.3420    2.0680    1.5430 hn        1 IQ7      0.461800
     41 H9          3.5760    3.8900   -0.0150 ha        1 IQ7      0.122000
     42 H20         7.7330    2.5310    0.0800 ha        1 IQ7      0.184000
     43 H10         4.1860    5.8860   -1.3070 ha        1 IQ7      0.157000
     44 H131        7.0160    7.8410   -3.5450 h1        1 IQ7      0.087700
     45 H132        5.3880    7.0630   -3.2440 h1        1 IQ7      0.087700
     46 H141        5.3940    8.2500   -0.9010 h1        1 IQ7      0.049200
     47 H142        5.2040    9.2810   -2.4050 h1        1 IQ7      0.049200
     48 H161        7.8350   10.8900   -0.4630 h1        1 IQ7      0.047700
     49 H162        6.1320   11.1590   -1.1060 h1        1 IQ7      0.047700
     50 H163        6.4010   10.0680    0.3430 h1        1 IQ7      0.047700
     51 H22        10.7000    5.1840   -3.7390 h4        1 IQ7      0.061100
     52 H25         8.9570    8.7730   -2.2600 hn        1 IQ7      0.330700
     53 H27        13.2240    9.1170   -4.0330 ha        1 IQ7      0.149000
     54 H32         9.2360   10.7440   -3.4500 ha        1 IQ7      0.149000
     55 H28        14.0970   11.4150   -4.3980 ha        1 IQ7      0.156500
     56 H31        10.1140   13.0280   -3.8060 ha        1 IQ7      0.156500
     57 H52         3.4300    1.5940   -0.0460 hn        1 IQ7      0.461800
@<TRIPOS>BOND
     1    1    2 1   
     2    1   33 1   
     3    1   34 1   
     4    1   35 1   
     5    2    3 1   
     6    3    4 1   
     7    3   36 1   
     8    3   37 1   
     9    4    5 1   
    10    4   38 1   
    11    4   39 1   
    12    5    6 1   
    13    5   40 1   
    14    5   57 1   
    15    6    7 2   
    16    6    8 1   
    17    8    9 ar  
    18    8   20 ar  
    19    9   10 ar  
    20    9   41 1   
    21   10   11 ar  
    22   10   43 1   
    23   11   12 1   
    24   11   19 ar  
    25   12   13 1   
    26   12   17 1   
    27   13   14 1   
    28   13   44 1   
    29   13   45 1   
    30   14   15 1   
    31   14   46 1   
    32   14   47 1   
    33   15   16 1   
    34   16   48 1   
    35   16   49 1   
    36   16   50 1   
    37   17   18 2   
    38   17   21 1   
    39   18   19 1   
    40   19   20 ar  
    41   20   42 1   
    42   21   22 2   
    43   21   25 1   
    44   22   23 1   
    45   22   51 1   
    46   23   24 2   
    47   24   25 1   
    48   24   26 1   
    49   25   52 1   
    50   26   27 ar  
    51   26   32 ar  
    52   27   28 ar  
    53   27   53 1   
    54   28   29 ar  
    55   28   55 1   
    56   29   30 1   
    57   29   31 ar  
    58   31   32 ar  
    59   31   56 1   
    60   32   54 1   
@<TRIPOS>SUBSTRUCTURE
     1 IQ7         1 TEMP              0 ****  ****    0 ROOT
