@<TRIPOS>MOLECULE
IQ7
   57    60     1     0     0
SMALL
bcc


@<TRIPOS>ATOM
      1 C1          0.3270   -0.5740   -0.1600 c3        1 IQ7      0.118700
      2 O2          1.5720    0.0630    0.1120 os        1 IQ7     -0.465600
      3 C3          2.1520   -0.3420    1.3450 c3        1 IQ7      0.102400
      4 C4          3.6310    0.0500    1.2950 c3        1 IQ7      0.103800
      5 N5          3.8260    1.4710    0.8900 n4        1 IQ7     -0.670800
      6 C6          5.2870    1.8990    0.8760 c         1 IQ7      0.578700
      7 O7          6.0460    1.1760    1.5100 o         1 IQ7     -0.442100
      8 C8          5.6010    3.0920    0.1030 ca        1 IQ7     -0.241600
      9 C9          4.6200    4.0270   -0.3070 ca        1 IQ7     -0.096000
     10 C10         4.9520    5.1540   -1.0350 ca        1 IQ7     -0.119000
     11 C11         6.3030    5.3540   -1.3690 ca        1 IQ7     -0.023200
     12 N12         6.9680    6.3450   -2.0820 na        1 IQ7     -0.145300
     13 C13         6.3350    7.4370   -2.7650 c3        1 IQ7      0.028300
     14 C14         5.8970    8.6060   -1.8710 c3        1 IQ7      0.110400
     15 O15         7.0660    9.3360   -1.5240 os        1 IQ7     -0.452600
     16 C16         6.7980   10.4390   -0.6690 c3        1 IQ7      0.114700
     17 C17         8.3550    5.9810   -2.0710 cc        1 IQ7      0.564400
     18 N18         8.5820    4.8280   -1.3990 nd        1 IQ7     -0.533100
     19 C19         7.3220    4.3990   -0.9460 ca        1 IQ7      0.059400
     20 C20         6.9600    3.2770   -0.2040 ca        1 IQ7      0.035000
     21 C21         9.3900    6.7340   -2.7370 cc        1 IQ7     -0.320500
     22 C22        10.4980    6.2230   -3.4640 cd        1 IQ7      0.399200
     23 N23        11.2880    7.2590   -3.9090 nd        1 IQ7     -0.662000
     24 C24        10.6980    8.4140   -3.4580 cc        1 IQ7      0.504000
     25 N25         9.5280    8.1280   -2.7420 na        1 IQ7     -0.287900
     26 C26        11.1910    9.7720   -3.6780 ca        1 IQ7     -0.147500
     27 C27        12.5560    9.9740   -3.9330 ca        1 IQ7     -0.091000
     28 C28        13.0440   11.2610   -4.1460 ca        1 IQ7     -0.128000
     29 C29        12.1700   12.3520   -4.1070 ca        1 IQ7      0.035400
     30 CL30       12.7610   13.9200   -4.3630 cl        1 IQ7     -0.069400
     31 C31        10.8060   12.1570   -3.8590 ca        1 IQ7     -0.128000
     32 C32        10.3200   10.8700   -3.6460 ca        1 IQ7     -0.091000
     33 H11C        0.0090   -0.1370   -1.1400 h1        1 IQ7      0.057033
     34 H12C       -0.4130   -0.3340    0.6420 h1        1 IQ7      0.057033
     35 H13C        0.4680   -1.6790   -0.2450 h1        1 IQ7      0.057033
     36 H31C        2.0880   -1.4560    1.4810 h1        1 IQ7      0.072200
     37 H32C        1.6180    0.1690    2.1900 h1        1 IQ7      0.072200
     38 H41C        4.0980   -0.1050    2.3100 hx        1 IQ7      0.119700
     39 H42C        4.1760   -0.5920    0.5450 hx        1 IQ7      0.119700
     40 H5          3.4280    1.5970   -0.0510 hn        1 IQ7      0.461800
     41 H9          3.5620    3.8940   -0.0370 ha        1 IQ7      0.122000
     42 H20         7.7230    2.5530    0.1330 ha        1 IQ7      0.184000
     43 H10         4.1830    5.8780   -1.3420 ha        1 IQ7      0.157000
     44 H131        7.0370    7.8210   -3.5590 h1        1 IQ7      0.087700
     45 H132        5.4070    7.0390   -3.2730 h1        1 IQ7      0.087700
     46 H141        5.3760    8.2510   -0.9430 h1        1 IQ7      0.049200
     47 H142        5.2030    9.2650   -2.4600 h1        1 IQ7      0.049200
     48 H161        7.8010   10.9050   -0.4980 h1        1 IQ7      0.047700
     49 H162        6.1050   11.1610   -1.1690 h1        1 IQ7      0.047700
     50 H163        6.3580   10.0860    0.2960 h1        1 IQ7      0.047700
     51 H22        10.7350    5.1770   -3.6710 h4        1 IQ7      0.061100
     52 H25         8.9560    8.7750   -2.2580 hn        1 IQ7      0.330700
     53 H27        13.2470    9.1170   -3.9690 ha        1 IQ7      0.149000
     54 H32         9.2430   10.7330   -3.4670 ha        1 IQ7      0.149000
     55 H28        14.1160   11.4140   -4.3470 ha        1 IQ7      0.156500
     56 H31        10.1180   13.0160   -3.8360 ha        1 IQ7      0.156500
     57 H52         3.3100    2.0810    1.5320 hn        1 IQ7      0.461800
@<TRIPOS>BOND
     1    1    2 1   
     2    1   33 1   
     3    1   34 1   
     4    1   35 1   
     5    2    3 1   
     6    3    4 1   
     7    3   36 1   
     8    3   37 1   
     9    4    5 1   
    10    4   38 1   
    11    4   39 1   
    12    5    6 1   
    13    5   40 1   
    14    5   57 1   
    15    6    7 2   
    16    6    8 1   
    17    8    9 ar  
    18    8   20 ar  
    19    9   10 ar  
    20    9   41 1   
    21   10   11 ar  
    22   10   43 1   
    23   11   12 1   
    24   11   19 ar  
    25   12   13 1   
    26   12   17 1   
    27   13   14 1   
    28   13   44 1   
    29   13   45 1   
    30   14   15 1   
    31   14   46 1   
    32   14   47 1   
    33   15   16 1   
    34   16   48 1   
    35   16   49 1   
    36   16   50 1   
    37   17   18 2   
    38   17   21 1   
    39   18   19 1   
    40   19   20 ar  
    41   20   42 1   
    42   21   22 2   
    43   21   25 1   
    44   22   23 1   
    45   22   51 1   
    46   23   24 2   
    47   24   25 1   
    48   24   26 1   
    49   25   52 1   
    50   26   27 ar  
    51   26   32 ar  
    52   27   28 ar  
    53   27   53 1   
    54   28   29 ar  
    55   28   55 1   
    56   29   30 1   
    57   29   31 ar  
    58   31   32 ar  
    59   31   56 1   
    60   32   54 1   
@<TRIPOS>SUBSTRUCTURE
     1 IQ7         1 TEMP              0 ****  ****    0 ROOT
