@<TRIPOS>MOLECULE
IQA
   33    27     1     0     0
SMALL
bcc


@<TRIPOS>ATOM
      1 O21        -5.2610    0.5310    0.5780 o         1 IQA     -0.834800
      2 C20        -4.0020    0.5310    0.5780 c         1 IQA      0.918600
      3 O22        -3.3730    0.5310    1.6680 o         1 IQA     -0.834800
      4 C18        -3.2460    0.5400   -0.7330 c3        1 IQA     -0.146200
      5 C5         -1.7580    0.5380   -0.4560 ce        1 IQA     -0.140000
      6 C8         -0.9600   -0.6020   -0.3290 c1        1 IQA      0.384500
      7 N11        -1.2550   -1.9530   -0.4090 n2        1 IQA     -0.743800
      8 C10        -0.2770   -2.8710   -0.2450 c1        1 IQA      0.596900
      9 O19        -0.5350   -4.0550   -0.3260 o         1 IQA     -0.630900
     10 C12         1.0340   -2.4570    0.0070 cg        1 IQA     -0.171000
     11 C17         2.0560   -3.4140    0.1790 c1        1 IQA     -0.078667
     12 C16         3.3560   -3.0020    0.4280 c1        1 IQA     -0.078667
     13 C15         3.6520   -1.6510    0.5080 c1        1 IQA     -0.078667
     14 C14         2.6480   -0.7100    0.3390 c1        1 IQA     -0.078667
     15 C13         1.3240   -1.1280    0.0850 cg        1 IQA      0.466800
     16 N9          0.3240   -0.1940   -0.0830 n1        1 IQA     -0.467800
     17 C7          0.3370    1.2070   -0.0540 c1        1 IQA      0.005000
     18 C6         -0.9480    1.6490   -0.2850 cg        1 IQA     -0.067300
     19 C4         -1.2220    3.0260   -0.3100 c1        1 IQA     -0.032500
     20 C1         -0.1990    3.9420   -0.1030 c1        1 IQA     -0.078667
     21 C2          1.0980    3.4960    0.1300 c1        1 IQA     -0.078667
     22 C3          1.3700    2.1340    0.1550 c1        1 IQA     -0.082500
     23 H181       -3.4820   -0.2540   -1.2500 hc        1 IQA      0.041700
     24 H182       -3.4820    1.3400   -1.2390 hc        1 IQA      0.041700
     25 H11        -2.1090   -2.2230   -0.5820 hn        1 IQA      0.578400
     26 H17         1.8480   -4.3660    0.1220 ha        1 IQA      0.072500
     27 H16         4.0630   -3.6650    0.5470 ha        1 IQA      0.072500
     28 H15         4.5670   -1.3610    0.6840 ha        1 IQA      0.072500
     29 H14         2.8570    0.2420    0.3960 ha        1 IQA      0.072500
     30 H4         -2.1320    3.3400   -0.4730 ha        1 IQA      0.088500
     31 H1         -0.3900    4.8990   -0.1210 ha        1 IQA      0.072500
     32 H2          1.8170    4.1400    0.2750 ha        1 IQA      0.072500
     33 H3          2.2800    1.8210    0.3210 ha        1 IQA      0.065500
@<TRIPOS>BOND
     1    1    2 1   
     2    2    3 1   
     3    2    4 1   
     4    4    5 1   
     5    4   23 1   
     6    4   24 1   
     7    5    6 2   
     8    5   18 1   
     9    6    7 2   
    10    7   25 1   
    11    8    9 1   
    12    8   10 3   
    13   10   15 1   
    14   11   12 3   
    15   11   26 1   
    16   12   27 1   
    17   13   14 3   
    18   13   28 1   
    19   14   29 1   
    20   15   16 3   
    21   17   22 3   
    22   18   19 3   
    23   19   30 1   
    24   20   21 3   
    25   20   31 1   
    26   21   32 1   
    27   22   33 1   
@<TRIPOS>SUBSTRUCTURE
     1 IQA         1 TEMP              0 ****  ****    0 ROOT
