@<TRIPOS>MOLECULE
IQA
   33    36     1     0     0
SMALL
bcc


@<TRIPOS>ATOM
      1 O21         0.4430    0.2250    0.3430 o         1 IQA     -0.834800
      2 C20         1.2210   -0.5310   -0.2940 c         1 IQA      0.918600
      3 O22         1.2520   -1.7930   -0.1570 o         1 IQA     -0.834800
      4 C18         2.1460    0.1110   -1.3530 c3        1 IQA     -0.146200
      5 C5          3.5670    0.1010   -0.9970 cc        1 IQA     -0.098400
      6 C8          4.3610   -1.0210   -0.7240 cd        1 IQA      0.076500
      7 N11         3.9780   -2.3570   -0.6830 ns        1 IQA     -0.435100
      8 C10         4.9060   -3.3510   -0.4270 c         1 IQA      0.705100
      9 O19         4.5480   -4.5430   -0.3180 o         1 IQA     -0.651500
     10 C12         6.3370   -2.9530   -0.3380 ca        1 IQA     -0.191600
     11 C17         7.3010   -3.9540   -0.2070 ca        1 IQA     -0.046000
     12 C16         8.6540   -3.6350   -0.1500 ca        1 IQA     -0.191000
     13 C15         9.0470   -2.3000   -0.2420 ca        1 IQA     -0.085000
     14 C14         8.1090   -1.2840   -0.3700 ca        1 IQA     -0.195000
     15 C13         6.7270   -1.5820   -0.3950 ca        1 IQA      0.095800
     16 N9          5.7270   -0.6190   -0.4750 na        1 IQA     -0.024500
     17 C7          5.7690    0.7870   -0.5640 ca        1 IQA     -0.040200
     18 C6          4.4350    1.2540   -0.8890 ca        1 IQA     -0.045800
     19 C4          4.1880    2.6190   -1.0130 ca        1 IQA     -0.090000
     20 C1          5.2310    3.5170   -0.8190 ca        1 IQA     -0.156000
     21 C2          6.5120    3.0660   -0.4800 ca        1 IQA     -0.144000
     22 C3          6.7960    1.7100   -0.3370 ca        1 IQA     -0.140000
     23 H181        2.0000   -0.4570   -2.3110 hc        1 IQA      0.041700
     24 H182        1.8090    1.1680   -1.5170 hc        1 IQA      0.041700
     25 H11         2.9730   -2.5300   -0.6120 hn        1 IQA      0.420500
     26 H17         6.9620   -5.0020   -0.1520 ha        1 IQA      0.158000
     27 H16         9.4050   -4.4290   -0.0410 ha        1 IQA      0.127000
     28 H15        10.1170   -2.0430   -0.2180 ha        1 IQA      0.122000
     29 H14         8.4620   -0.2500   -0.4710 ha        1 IQA      0.141000
     30 H4          3.1720    2.9690   -1.2470 ha        1 IQA      0.146000
     31 H1          5.0480    4.5960   -0.9170 ha        1 IQA      0.118000
     32 H2          7.3140    3.7980   -0.3100 ha        1 IQA      0.114000
     33 H3          7.8010    1.4060   -0.0250 ha        1 IQA      0.123000
@<TRIPOS>BOND
     1    1    2 1   
     2    2    3 1   
     3    2    4 1   
     4    4    5 1   
     5    4   23 1   
     6    4   24 1   
     7    5    6 2   
     8    5   18 1   
     9    6    7 1   
    10    6   16 1   
    11    7    8 1   
    12    7   25 1   
    13    8    9 2   
    14    8   10 1   
    15   10   11 ar  
    16   10   15 ar  
    17   11   12 ar  
    18   11   26 1   
    19   12   13 ar  
    20   12   27 1   
    21   13   14 ar  
    22   13   28 1   
    23   14   15 ar  
    24   14   29 1   
    25   15   16 1   
    26   16   17 1   
    27   17   18 ar  
    28   17   22 ar  
    29   18   19 ar  
    30   19   20 ar  
    31   19   30 1   
    32   20   21 ar  
    33   20   31 1   
    34   21   22 ar  
    35   21   32 1   
    36   22   33 1   
@<TRIPOS>SUBSTRUCTURE
     1 IQA         1 TEMP              0 ****  ****    0 ROOT
