@<TRIPOS>MOLECULE
IQA
   33    36     1     0     0
SMALL
bcc


@<TRIPOS>ATOM
      1 O21         0.4430    0.2280    0.3440 o         1 IQA     -0.834800
      2 C20         1.2210   -0.5270   -0.2950 c         1 IQA      0.918600
      3 O22         1.2510   -1.7900   -0.1590 o         1 IQA     -0.834800
      4 C18         2.1470    0.1150   -1.3520 c3        1 IQA     -0.146200
      5 C5          3.5670    0.1030   -0.9970 cc        1 IQA     -0.098400
      6 C8          4.3600   -1.0200   -0.7250 cd        1 IQA      0.076500
      7 N11         3.9770   -2.3550   -0.6850 n         1 IQA     -0.435100
      8 C10         4.9040   -3.3510   -0.4300 c         1 IQA      0.705100
      9 O19         4.5440   -4.5430   -0.3230 o         1 IQA     -0.651500
     10 C12         6.3350   -2.9540   -0.3410 ca        1 IQA     -0.191600
     11 C17         7.2980   -3.9560   -0.2110 ca        1 IQA     -0.046000
     12 C16         8.6510   -3.6390   -0.1550 ca        1 IQA     -0.191000
     13 C15         9.0450   -2.3040   -0.2440 ca        1 IQA     -0.085000
     14 C14         8.1090   -1.2860   -0.3710 ca        1 IQA     -0.195000
     15 C13         6.7260   -1.5830   -0.3960 ca        1 IQA      0.095800
     16 N9          5.7270   -0.6190   -0.4750 na        1 IQA     -0.024500
     17 C7          5.7700    0.7870   -0.5610 ca        1 IQA     -0.040200
     18 C6          4.4370    1.2560   -0.8860 ca        1 IQA     -0.045800
     19 C4          4.1910    2.6210   -1.0090 ca        1 IQA     -0.090000
     20 C1          5.2350    3.5170   -0.8130 ca        1 IQA     -0.156000
     21 C2          6.5150    3.0640   -0.4750 ca        1 IQA     -0.144000
     22 C3          6.7980    1.7090   -0.3340 ca        1 IQA     -0.140000
     23 H181        2.0000   -0.4520   -2.3110 hc        1 IQA      0.041700
     24 H182        1.8100    1.1720   -1.5150 hc        1 IQA      0.041700
     25 H11         2.9710   -2.5270   -0.6150 hn        1 IQA      0.420500
     26 H17         6.9580   -5.0040   -0.1580 ha        1 IQA      0.158000
     27 H16         9.4020   -4.4330   -0.0470 ha        1 IQA      0.127000
     28 H15        10.1150   -2.0470   -0.2200 ha        1 IQA      0.122000
     29 H14         8.4630   -0.2530   -0.4700 ha        1 IQA      0.141000
     30 H4          3.1750    2.9720   -1.2420 ha        1 IQA      0.146000
     31 H1          5.0530    4.5970   -0.9100 ha        1 IQA      0.118000
     32 H2          7.3180    3.7960   -0.3040 ha        1 IQA      0.114000
     33 H3          7.8030    1.4030   -0.0210 ha        1 IQA      0.123000
@<TRIPOS>BOND
     1    1    2 1   
     2    2    3 1   
     3    2    4 1   
     4    4    5 1   
     5    4   23 1   
     6    4   24 1   
     7    5    6 2   
     8    5   18 1   
     9    6    7 1   
    10    6   16 1   
    11    7    8 1   
    12    7   25 1   
    13    8    9 2   
    14    8   10 1   
    15   10   11 ar  
    16   10   15 ar  
    17   11   12 ar  
    18   11   26 1   
    19   12   13 ar  
    20   12   27 1   
    21   13   14 ar  
    22   13   28 1   
    23   14   15 ar  
    24   14   29 1   
    25   15   16 1   
    26   16   17 1   
    27   17   18 ar  
    28   17   22 ar  
    29   18   19 ar  
    30   19   20 ar  
    31   19   30 1   
    32   20   21 ar  
    33   20   31 1   
    34   21   22 ar  
    35   21   32 1   
    36   22   33 1   
@<TRIPOS>SUBSTRUCTURE
     1 IQA         1 TEMP              0 ****  ****    0 ROOT
