@<TRIPOS>MOLECULE
IQA
   33    36     1     0     0
SMALL
bcc


@<TRIPOS>ATOM
      1 O21         2.0600    0.7740    4.1400 o         1 IQA     -0.834800
      2 C20         2.1620    0.1410    3.0570 c         1 IQA      0.918600
      3 O22         3.1360    0.2690    2.2520 o         1 IQA     -0.834800
      4 C18         1.0700   -0.8980    2.7210 c3        1 IQA     -0.146200
      5 C5          0.2030   -0.5230    1.6020 cc        1 IQA     -0.098400
      6 C8          0.5970   -0.2470    0.2850 cd        1 IQA      0.076500
      7 N11         1.8830   -0.2220   -0.2410 n         1 IQA     -0.435100
      8 C10         2.0930    0.0390   -1.5840 c         1 IQA      0.705100
      9 O19         3.2530    0.1340   -2.0400 o         1 IQA     -0.651500
     10 C12         0.8950    0.1510   -2.4600 ca        1 IQA     -0.191600
     11 C17         1.0870    0.2880   -3.8370 ca        1 IQA     -0.046000
     12 C16         0.0000    0.3660   -4.7010 ca        1 IQA     -0.191000
     13 C15        -1.2930    0.2910   -4.1830 ca        1 IQA     -0.085000
     14 C14        -1.5120    0.1580   -2.8180 ca        1 IQA     -0.195000
     15 C13        -0.4230    0.1110   -1.9180 ca        1 IQA      0.095800
     16 N9         -0.5610    0.0250   -0.5370 na        1 IQA     -0.024500
     17 C7         -1.6920   -0.0520    0.3000 ca        1 IQA     -0.040200
     18 C6         -1.2380   -0.3930    1.6350 ca        1 IQA     -0.045800
     19 C4         -2.1590   -0.5100    2.6730 ca        1 IQA     -0.090000
     20 C1         -3.5070   -0.2930    2.4110 ca        1 IQA     -0.156000
     21 C2         -3.9400    0.0600    1.1280 ca        1 IQA     -0.144000
     22 C3         -3.0490    0.1960    0.0670 ca        1 IQA     -0.140000
     23 H181        1.5920   -1.8630    2.4780 hc        1 IQA      0.041700
     24 H182        0.4460   -1.0590    3.6390 hc        1 IQA      0.041700
     25 H11         2.6420   -0.1670    0.4420 hn        1 IQA      0.420500
     26 H17         2.1210    0.3300   -4.2190 ha        1 IQA      0.158000
     27 H16         0.1600    0.4790   -5.7820 ha        1 IQA      0.127000
     28 H15        -2.1570    0.3320   -4.8640 ha        1 IQA      0.122000
     29 H14        -2.5440    0.0700   -2.4560 ha        1 IQA      0.141000
     30 H4         -1.8080   -0.7550    3.6870 ha        1 IQA      0.146000
     31 H1         -4.2420   -0.3860    3.2230 ha        1 IQA      0.118000
     32 H2         -5.0090    0.2470    0.9530 ha        1 IQA      0.114000
     33 H3         -3.4280    0.5210   -0.9090 ha        1 IQA      0.123000
@<TRIPOS>BOND
     1    1    2 1   
     2    2    3 1   
     3    2    4 1   
     4    4    5 1   
     5    4   23 1   
     6    4   24 1   
     7    5    6 2   
     8    5   18 1   
     9    6    7 1   
    10    6   16 1   
    11    7    8 1   
    12    7   25 1   
    13    8    9 2   
    14    8   10 1   
    15   10   11 ar  
    16   10   15 ar  
    17   11   12 ar  
    18   11   26 1   
    19   12   13 ar  
    20   12   27 1   
    21   13   14 ar  
    22   13   28 1   
    23   14   15 ar  
    24   14   29 1   
    25   15   16 1   
    26   16   17 1   
    27   17   18 ar  
    28   17   22 ar  
    29   18   19 ar  
    30   19   20 ar  
    31   19   30 1   
    32   20   21 ar  
    33   20   31 1   
    34   21   22 ar  
    35   21   32 1   
    36   22   33 1   
@<TRIPOS>SUBSTRUCTURE
     1 IQA         1 TEMP              0 ****  ****    0 ROOT
