@<TRIPOS>MOLECULE
IQB
   49    50     1     0     0
SMALL
bcc


@<TRIPOS>ATOM
      1 C1          0.3420    0.3300    1.0660 ca        1 IQB     -0.661500
      2 C2          1.1550    0.7140    2.1770 ca        1 IQB      0.070000
      3 C3          1.1260    0.0680    3.3940 ca        1 IQB     -0.188000
      4 C4          0.2720   -1.0230    3.5850 ca        1 IQB      0.119000
      5 C5         -0.5570   -1.4530    2.5370 ca        1 IQB     -0.239300
      6 C6         -1.4410   -2.5790    2.7110 ca        1 IQB      0.502200
      7 N7         -2.2340   -3.0400    1.7570 nb        1 IQB     -0.638000
      8 C8         -2.2010   -2.4100    0.5480 ca        1 IQB      0.516200
      9 C9         -1.3920   -1.3070    0.2650 ca        1 IQB     -0.340300
     10 C10        -0.5390   -0.7970    1.2680 ca        1 IQB      0.145000
     11 S           0.5070    1.1050   -0.2470 s4        1 IQB      1.682300
     12 O1         -0.1610    0.7580   -1.3760 o         1 IQB     -0.440400
     13 O2          1.4450    2.0900   -0.2930 o         1 IQB     -0.440400
     14 N1'        -1.2140    3.0290   -0.0550 n3        1 IQB     -0.974800
     15 C2'        -0.9840    3.8780   -1.2030 c3        1 IQB      0.108800
     16 C3'        -1.9190    5.1050   -1.3000 c3        1 IQB      0.060800
     17 N4'        -1.6500    5.9340   -2.5050 n4        1 IQB     -0.761000
     18 C5'        -2.5390    7.1560   -2.5720 c3        1 IQB      0.168000
     19 C6'        -2.1130    8.2020   -1.6140 c2        1 IQB     -0.312200
     20 C7'        -1.4900    9.3410   -1.9550 ce        1 IQB      0.045800
     21 C1'        -1.0850    9.7510   -3.2910 ca        1 IQB     -0.144800
     22 C2B        -2.0100    9.8460   -4.3390 ca        1 IQB     -0.114500
     23 C3B        -1.6070   10.2900   -5.5960 ca        1 IQB     -0.097500
     24 C4'        -0.2710   10.6390   -5.8250 ca        1 IQB     -0.003900
     25 BR4'        0.2710   11.2190   -7.5130 br        1 IQB     -0.016100
     26 C5B         0.6520   10.5630   -4.7760 ca        1 IQB     -0.097500
     27 C6B         0.2470   10.1320   -3.5150 ca        1 IQB     -0.114500
     28 H2          1.8530    1.5690    2.0460 ha        1 IQB      0.176000
     29 H3          1.7830    0.4030    4.2180 ha        1 IQB      0.194000
     30 H4          0.2510   -1.5500    4.5590 ha        1 IQB      0.188000
     31 H6         -1.4740   -3.1060    3.6880 h4        1 IQB      0.065100
     32 H8         -2.8740   -2.8400   -0.2240 h4        1 IQB      0.067100
     33 H9         -1.4340   -0.8810   -0.7490 ha        1 IQB      0.177000
     34 HN1        -2.1440    2.6460   -0.0700 hn        1 IQB      0.395800
     35 H2'1       -1.1070    3.2400   -2.1270 h1        1 IQB      0.097700
     36 H2'2        0.0900    4.2280   -1.1560 h1        1 IQB      0.097700
     37 H3'1       -1.7910    5.7670   -0.3950 hx        1 IQB      0.113700
     38 H3'2       -2.9950    4.7690   -1.3440 hx        1 IQB      0.113700
     39 HN4        -1.7990    5.3680   -3.3480 hn        1 IQB      0.454300
     40 H5'1       -2.4810    7.5290   -3.6400 hx        1 IQB      0.115200
     41 H5'2       -3.5950    6.8210   -2.3570 hx        1 IQB      0.115200
     42 H6'        -2.4020    8.0300   -0.5630 ha        1 IQB      0.149000
     43 H7'        -1.2370   10.0720   -1.1570 ha        1 IQB      0.170000
     44 H2'        -3.0730    9.6180   -4.1630 ha        1 IQB      0.143000
     45 H3'        -2.3530   10.3780   -6.4050 ha        1 IQB      0.170000
     46 H5'         1.7040   10.8590   -4.9360 ha        1 IQB      0.170000
     47 H6B         0.9760   10.1040   -2.6900 ha        1 IQB      0.143000
     48 H1'2       -1.0860    3.5390    0.8020 hn        1 IQB      0.395800
     49 H4'2       -0.6700    6.2450   -2.4920 hn        1 IQB      0.454300
@<TRIPOS>BOND
     1    1    2 ar  
     2    1   10 ar  
     3    1   11 1   
     4    2    3 ar  
     5    2   28 1   
     6    3    4 ar  
     7    3   29 1   
     8    4    5 ar  
     9    4   30 1   
    10    5    6 ar  
    11    5   10 ar  
    12    6    7 ar  
    13    6   31 1   
    14    7    8 ar  
    15    8    9 ar  
    16    8   32 1   
    17    9   10 ar  
    18    9   33 1   
    19   11   12 1   
    20   11   13 1   
    21   14   15 1   
    22   14   34 1   
    23   14   48 1   
    24   15   16 1   
    25   15   35 1   
    26   15   36 1   
    27   16   17 1   
    28   16   37 1   
    29   16   38 1   
    30   17   18 1   
    31   17   39 1   
    32   17   49 1   
    33   18   19 1   
    34   18   40 1   
    35   18   41 1   
    36   19   20 2   
    37   19   42 1   
    38   20   21 1   
    39   20   43 1   
    40   21   22 ar  
    41   21   27 ar  
    42   22   23 ar  
    43   22   44 1   
    44   23   24 ar  
    45   23   45 1   
    46   24   25 1   
    47   24   26 ar  
    48   26   27 ar  
    49   26   46 1   
    50   27   47 1   
@<TRIPOS>SUBSTRUCTURE
     1 IQB         1 TEMP              0 ****  ****    0 ROOT
