@<TRIPOS>MOLECULE
IQB
   49    50     1     0     0
SMALL
bcc


@<TRIPOS>ATOM
      1 C1          0.3880    0.3240    1.0310 ca        1 IQB     -0.661500
      2 C2          1.1980    0.7080    2.1450 ca        1 IQB      0.070000
      3 C3          1.1760    0.0510    3.3570 ca        1 IQB     -0.188000
      4 C4          0.3340   -1.0500    3.5390 ca        1 IQB      0.119000
      5 C5         -0.4910   -1.4810    2.4880 ca        1 IQB     -0.239300
      6 C6         -1.3620   -2.6180    2.6530 ca        1 IQB      0.502200
      7 N7         -2.1510   -3.0790    1.6960 nb        1 IQB     -0.638000
      8 C8         -2.1260   -2.4390    0.4920 ca        1 IQB      0.516200
      9 C9         -1.3290   -1.3260    0.2180 ca        1 IQB     -0.340300
     10 C10        -0.4810   -0.8140    1.2240 ca        1 IQB      0.145000
     11 S           0.5420    1.1120   -0.2760 s4        1 IQB      1.682300
     12 O1         -0.1240    0.7670   -1.4070 o         1 IQB     -0.440400
     13 O2          1.4700    2.1070   -0.3140 o         1 IQB     -0.440400
     14 N1'        -1.1980    3.0150   -0.0630 n8        1 IQB     -0.974800
     15 C2'        -0.9810    3.8770   -1.2040 c3        1 IQB      0.108800
     16 C3'        -1.9270    5.0950   -1.2880 c3        1 IQB      0.060800
     17 N4'        -1.6710    5.9370   -2.4870 ny        1 IQB     -0.761000
     18 C5'        -2.5710    7.1520   -2.5390 c3        1 IQB      0.168000
     19 C6'        -2.1470    8.1940   -1.5760 c2        1 IQB     -0.312200
     20 C7'        -1.5350    9.3410   -1.9120 ce        1 IQB      0.045800
     21 C1'        -1.1430    9.7640   -3.2480 ca        1 IQB     -0.144800
     22 C2B        -2.0770    9.8600   -4.2890 ca        1 IQB     -0.114500
     23 C3B        -1.6860   10.3170   -5.5450 ca        1 IQB     -0.097500
     24 C4'        -0.3550   10.6780   -5.7810 ca        1 IQB     -0.003900
     25 Br4'        0.1710   11.2750   -7.4680 br        1 IQB     -0.016100
     26 C5B         0.5770   10.6010   -4.7390 ca        1 IQB     -0.097500
     27 C6B         0.1840   10.1580   -3.4790 ca        1 IQB     -0.114500
     28 H2          1.8860    1.5710    2.0210 ha        1 IQB      0.176000
     29 H3          1.8310    0.3860    4.1820 ha        1 IQB      0.194000
     30 H4          0.3200   -1.5850    4.5080 ha        1 IQB      0.188000
     31 H6         -1.3890   -3.1540    3.6250 h4        1 IQB      0.065100
     32 H8         -2.7950   -2.8700   -0.2830 h4        1 IQB      0.067100
     33 H9         -1.3770   -0.8910   -0.7930 ha        1 IQB      0.177000
     34 HN1        -2.1250    2.6230   -0.0790 hn        1 IQB      0.395800
     35 H2'1        0.0910    4.2360   -1.1590 h1        1 IQB      0.097700
     36 H2'2       -1.1010    3.2450   -2.1340 h1        1 IQB      0.097700
     37 H3'1       -3.0010    4.7500   -1.3300 hx        1 IQB      0.113700
     38 H3'2       -1.8010    5.7510   -0.3780 hx        1 IQB      0.113700
     39 HN4        -1.8190    5.3770   -3.3340 hn        1 IQB      0.454300
     40 H5'1       -3.6220    6.8060   -2.3200 hx        1 IQB      0.115200
     41 H5'2       -2.5220    7.5340   -3.6040 hx        1 IQB      0.115200
     42 H6'        -2.4280    8.0110   -0.5250 ha        1 IQB      0.149000
     43 H7'        -1.2830   10.0680   -1.1110 ha        1 IQB      0.170000
     44 H2'        -3.1370    9.6230   -4.1060 ha        1 IQB      0.143000
     45 H3'        -2.4380   10.4050   -6.3480 ha        1 IQB      0.170000
     46 H5'         1.6250   10.9060   -4.9040 ha        1 IQB      0.170000
     47 H6B         0.9190   10.1290   -2.6590 ha        1 IQB      0.143000
     48 H1'2       -1.0730    3.5190    0.7980 hn        1 IQB      0.395800
     49 H4'2       -0.6940    6.2550   -2.4760 hn        1 IQB      0.454300
@<TRIPOS>BOND
     1    1    2 ar  
     2    1   10 ar  
     3    1   11 1   
     4    2    3 ar  
     5    2   28 1   
     6    3    4 ar  
     7    3   29 1   
     8    4    5 ar  
     9    4   30 1   
    10    5    6 ar  
    11    5   10 ar  
    12    6    7 ar  
    13    6   31 1   
    14    7    8 ar  
    15    8    9 ar  
    16    8   32 1   
    17    9   10 ar  
    18    9   33 1   
    19   11   12 1   
    20   11   13 1   
    21   14   15 1   
    22   14   34 1   
    23   14   48 1   
    24   15   16 1   
    25   15   35 1   
    26   15   36 1   
    27   16   17 1   
    28   16   37 1   
    29   16   38 1   
    30   17   18 1   
    31   17   39 1   
    32   17   49 1   
    33   18   19 1   
    34   18   40 1   
    35   18   41 1   
    36   19   20 2   
    37   19   42 1   
    38   20   21 1   
    39   20   43 1   
    40   21   22 ar  
    41   21   27 ar  
    42   22   23 ar  
    43   22   44 1   
    44   23   24 ar  
    45   23   45 1   
    46   24   25 1   
    47   24   26 ar  
    48   26   27 ar  
    49   26   46 1   
    50   27   47 1   
@<TRIPOS>SUBSTRUCTURE
     1 IQB         1 TEMP              0 ****  ****    0 ROOT
