@<TRIPOS>MOLECULE
IQB
   49    50     1     0     0
SMALL
bcc


@<TRIPOS>ATOM
      1 C1          0.3810    0.3050    1.0020 ca        1 IQB     -0.661500
      2 C2          1.2560    0.6720    2.0710 ca        1 IQB      0.070000
      3 C3          1.2760    0.0230    3.2880 ca        1 IQB     -0.188000
      4 C4          0.4130   -1.0520    3.5190 ca        1 IQB      0.119000
      5 C5         -0.4750   -1.4660    2.5140 ca        1 IQB     -0.239300
      6 C6         -1.3690   -2.5760    2.7300 ca        1 IQB      0.502200
      7 N7         -2.2170   -3.0210    1.8150 nb        1 IQB     -0.638000
      8 C8         -2.2330   -2.3890    0.6070 ca        1 IQB      0.516200
      9 C9         -1.4190   -1.3000    0.2860 ca        1 IQB     -0.340300
     10 C10        -0.5090   -0.8070    1.2460 ca        1 IQB      0.145000
     11 S           0.4930    1.0800   -0.3170 s4        1 IQB      1.682300
     12 O1         -0.2370    0.7480   -1.4110 o         1 IQB     -0.440400
     13 O2          1.4460    2.0480   -0.4080 o         1 IQB     -0.440400
     14 N1'        -1.1790    3.0340   -0.0330 n3        1 IQB     -0.974800
     15 C2'        -0.9970    3.8790   -1.1930 c3        1 IQB      0.108800
     16 C3'        -1.9120    5.1230   -1.2400 c3        1 IQB      0.060800
     17 N4'        -1.6960    5.9470   -2.4590 n4        1 IQB     -0.761000
     18 C5'        -2.5620    7.1870   -2.4770 c3        1 IQB      0.168000
     19 C6'        -2.0580    8.2260   -1.5480 c2        1 IQB     -0.312200
     20 C7'        -1.4330    9.3510   -1.9300 ce        1 IQB      0.045800
     21 C1'        -1.1020    9.7510   -3.2890 ca        1 IQB     -0.144800
     22 C2B        -2.0880    9.8630   -4.2790 ca        1 IQB     -0.114500
     23 C3B        -1.7530   10.2970   -5.5590 ca        1 IQB     -0.097500
     24 C4'        -0.4270   10.6190   -5.8700 ca        1 IQB     -0.003900
     25 BR4'        0.0230   11.1850   -7.5900 br        1 IQB     -0.016100
     26 C5B         0.5570   10.5250   -4.8790 ca        1 IQB     -0.097500
     27 C6B         0.2210   10.1050   -3.5950 ca        1 IQB     -0.114500
     28 H2          1.9610    1.5140    1.9070 ha        1 IQB      0.176000
     29 H3          1.9790    0.3440    4.0780 ha        1 IQB      0.194000
     30 H4          0.4310   -1.5810    4.4920 ha        1 IQB      0.188000
     31 H6         -1.3630   -3.1050    3.7060 h4        1 IQB      0.065100
     32 H8         -2.9510   -2.8050   -0.1300 h4        1 IQB      0.067100
     33 H9         -1.5050   -0.8710   -0.7240 ha        1 IQB      0.177000
     34 HN1        -2.1160    2.6690    0.0040 hn        1 IQB      0.395800
     35 H2'1        0.0850    4.2080   -1.2070 h1        1 IQB      0.097700
     36 H2'2       -1.1840    3.2430   -2.1090 h1        1 IQB      0.097700
     37 H3'1       -2.9960    4.8090   -1.2220 hx        1 IQB      0.113700
     38 H3'2       -1.7200    5.7840   -0.3440 hx        1 IQB      0.113700
     39 HN4        -1.9050    5.3840   -3.2910 hn        1 IQB      0.454300
     40 H5'1       -3.6090    6.8740   -2.1980 hx        1 IQB      0.115200
     41 H5'2       -2.5590    7.5570   -3.5470 hx        1 IQB      0.115200
     42 H6'        -2.2860    8.0600   -0.4820 ha        1 IQB      0.149000
     43 H7'        -1.1180   10.0780   -1.1500 ha        1 IQB      0.170000
     44 H2'        -3.1430    9.6580   -4.0370 ha        1 IQB      0.143000
     45 H3'        -2.5450   10.4000   -6.3220 ha        1 IQB      0.170000
     46 H5'         1.6030   10.7990   -5.1030 ha        1 IQB      0.170000
     47 H6B         0.9980   10.0630   -2.8160 ha        1 IQB      0.143000
     48 H1'2       -0.9950    3.5420    0.8150 hn        1 IQB      0.395800
     49 H4'2       -0.7110    6.2370   -2.5020 hn        1 IQB      0.454300
@<TRIPOS>BOND
     1    1    2 ar  
     2    1   10 ar  
     3    1   11 1   
     4    2    3 ar  
     5    2   28 1   
     6    3    4 ar  
     7    3   29 1   
     8    4    5 ar  
     9    4   30 1   
    10    5    6 ar  
    11    5   10 ar  
    12    6    7 ar  
    13    6   31 1   
    14    7    8 ar  
    15    8    9 ar  
    16    8   32 1   
    17    9   10 ar  
    18    9   33 1   
    19   11   12 1   
    20   11   13 1   
    21   14   15 1   
    22   14   34 1   
    23   14   48 1   
    24   15   16 1   
    25   15   35 1   
    26   15   36 1   
    27   16   17 1   
    28   16   37 1   
    29   16   38 1   
    30   17   18 1   
    31   17   39 1   
    32   17   49 1   
    33   18   19 1   
    34   18   40 1   
    35   18   41 1   
    36   19   20 2   
    37   19   42 1   
    38   20   21 1   
    39   20   43 1   
    40   21   22 ar  
    41   21   27 ar  
    42   22   23 ar  
    43   22   44 1   
    44   23   24 ar  
    45   23   45 1   
    46   24   25 1   
    47   24   26 ar  
    48   26   27 ar  
    49   26   46 1   
    50   27   47 1   
@<TRIPOS>SUBSTRUCTURE
     1 IQB         1 TEMP              0 ****  ****    0 ROOT
