@<TRIPOS>MOLECULE
IQB
   47    49     1     0     0
SMALL
bcc


@<TRIPOS>ATOM
      1 C1         -0.1180    0.8420    5.5370 ca        1 IQB     -0.373500
      2 C2         -0.7310    2.0770    5.4130 ca        1 IQB      0.018000
      3 C3         -1.8380    2.4470    6.2040 ca        1 IQB     -0.170000
      4 C4         -2.3460    1.5630    7.1280 ca        1 IQB     -0.032000
      5 C5         -1.7460    0.2920    7.2940 ca        1 IQB     -0.190300
      6 C6         -2.2440   -0.6570    8.2490 ca        1 IQB      0.435200
      7 N7         -1.7090   -1.8490    8.4540 nb        1 IQB     -0.666000
      8 C8         -0.6060   -2.1790    7.7100 ca        1 IQB      0.411200
      9 C9         -0.0400   -1.3510    6.7570 ca        1 IQB     -0.265300
     10 C10        -0.6170   -0.0710    6.5110 ca        1 IQB      0.085000
     11 S           1.1930    0.4910    4.5140 sy        1 IQB      1.514200
     12 O1          2.2270   -0.1130    5.2570 o         1 IQB     -0.653800
     13 O2          1.5260    1.6740    3.8150 o         1 IQB     -0.653800
     14 N1'         0.5710   -0.6030    3.5010 n3        1 IQB     -0.919100
     15 C2'         0.0890   -0.3170    2.1830 c3        1 IQB      0.221800
     16 C3'         0.8520   -1.0920    1.0810 c3        1 IQB      0.145800
     17 N4'         0.3140   -0.8140   -0.2340 n3        1 IQB     -0.822200
     18 C5'         1.0540   -1.4780   -1.2930 c3        1 IQB      0.193000
     19 C6'         0.6190   -1.0620   -2.6610 c2        1 IQB     -0.156200
     20 C7'         1.4930   -0.8670   -3.6570 ce        1 IQB     -0.119200
     21 C1'         1.1310   -0.5110   -5.0190 ca        1 IQB     -0.041800
     22 C2B         2.0940    0.0860   -5.8500 ca        1 IQB     -0.121000
     23 C3B         1.7820    0.4410   -7.1580 ca        1 IQB     -0.103000
     24 C4'         0.5000    0.2000   -7.6620 ca        1 IQB     -0.025900
     25 BR4'        0.0780    0.6760   -9.4230 br        1 IQB     -0.088100
     26 C5B        -0.4640   -0.4000   -6.8470 ca        1 IQB     -0.103000
     27 C6B        -0.1490   -0.7520   -5.5370 ca        1 IQB     -0.121000
     28 H2         -0.3440    2.8060    4.6740 ha        1 IQB      0.166000
     29 H3         -2.2850    3.4430    6.0700 ha        1 IQB      0.147000
     30 H4         -3.2170    1.8280    7.7480 ha        1 IQB      0.142000
     31 H6         -3.1270   -0.3950    8.8620 h4        1 IQB      0.025100
     32 H8         -0.1820   -3.1760    7.9310 h4        1 IQB      0.029100
     33 H9          0.8730   -1.6640    6.2280 ha        1 IQB      0.164000
     34 HN1         0.4980   -1.5600    3.7520 hn        1 IQB      0.448800
     35 H2'1        0.1930    0.7910    1.9930 h1        1 IQB      0.061200
     36 H2'2       -1.0060   -0.5820    2.1180 h1        1 IQB      0.061200
     37 H3'1        0.7440   -2.1990    1.2640 h1        1 IQB      0.037200
     38 H3'2        1.9520   -0.8460    1.1560 h1        1 IQB      0.037200
     39 HN4         0.2740    0.1750   -0.3990 hn        1 IQB      0.362800
     40 H5'1        0.8600   -2.5870   -1.1890 h1        1 IQB      0.040700
     41 H5'2        2.1710   -1.3280   -1.1860 h1        1 IQB      0.040700
     42 H6'        -0.4680   -0.9500   -2.8060 ha        1 IQB      0.139000
     43 H7'         2.5790   -0.9650   -3.4770 ha        1 IQB      0.128000
     44 H2'         3.1060    0.2780   -5.4610 ha        1 IQB      0.139000
     45 H3'         2.5500    0.9110   -7.7910 ha        1 IQB      0.147000
     46 H5'        -1.4760   -0.5990   -7.2340 ha        1 IQB      0.147000
     47 H6B        -0.9160   -1.2300   -4.9080 ha        1 IQB      0.139000
@<TRIPOS>BOND
     1    1    2 ar  
     2    1   10 ar  
     3    1   11 1   
     4    2    3 ar  
     5    2   28 1   
     6    3    4 ar  
     7    3   29 1   
     8    4    5 ar  
     9    4   30 1   
    10    5    6 ar  
    11    5   10 ar  
    12    6    7 ar  
    13    6   31 1   
    14    7    8 ar  
    15    8    9 ar  
    16    8   32 1   
    17    9   10 ar  
    18    9   33 1   
    19   11   12 2   
    20   11   13 2   
    21   11   14 1   
    22   14   15 1   
    23   14   34 1   
    24   15   16 1   
    25   15   35 1   
    26   15   36 1   
    27   16   17 1   
    28   16   37 1   
    29   16   38 1   
    30   17   18 1   
    31   17   39 1   
    32   18   19 1   
    33   18   40 1   
    34   18   41 1   
    35   19   20 2   
    36   19   42 1   
    37   20   21 1   
    38   20   43 1   
    39   21   22 ar  
    40   21   27 ar  
    41   22   23 ar  
    42   22   44 1   
    43   23   24 ar  
    44   23   45 1   
    45   24   25 1   
    46   24   26 ar  
    47   26   27 ar  
    48   26   46 1   
    49   27   47 1   
@<TRIPOS>SUBSTRUCTURE
     1 IQB         1 TEMP              0 ****  ****    0 ROOT
