@<TRIPOS>MOLECULE
IQD
   19    20     1     0     0
SMALL
bcc


@<TRIPOS>ATOM
      1 O01        -0.0140    0.1560   -0.1190 oh        1 IQD     -0.500100
      2 C02         1.3600    0.1040   -0.0330 ca        1 IQD      0.111100
      3 C03         2.0400    0.1020    1.1920 ca        1 IQD     -0.180000
      4 C04         3.4320    0.0470    1.2030 ca        1 IQD     -0.105000
      5 C05         4.1440   -0.0060    0.0060 ca        1 IQD     -0.099000
      6 C06         3.4640   -0.0040   -1.2160 ca        1 IQD     -0.147600
      7 C07         4.2370   -0.0620   -2.4910 c         1 IQD      0.693100
      8 O08         5.4740   -0.1110   -2.4970 o         1 IQD     -0.499100
      9 N09         3.5210   -0.0590   -3.7310 ne        1 IQD     -0.631100
     10 C10         2.2360   -0.0080   -3.7240 c2        1 IQD      0.492200
     11 C11         1.3250    0.0530   -2.5400 c3        1 IQD     -0.142400
     12 C12         2.0630    0.0500   -1.2520 ca        1 IQD     -0.075300
     13 H1         -0.3670    0.1890    0.7820 ho        1 IQD      0.424000
     14 H2          1.4760    0.1440    2.1360 ha        1 IQD      0.139000
     15 H3          3.9700    0.0460    2.1630 ha        1 IQD      0.142000
     16 H4          5.2450   -0.0500    0.0060 ha        1 IQD      0.163000
     17 H5          1.7330   -0.0090   -4.7150 h4        1 IQD      0.027800
     18 H6          0.6180   -0.8240   -2.5690 hc        1 IQD      0.093700
     19 H7          0.6900    0.9800   -2.6070 hc        1 IQD      0.093700
@<TRIPOS>BOND
     1    1    2 1   
     2    1   13 1   
     3    2    3 ar  
     4    2   12 ar  
     5    3    4 ar  
     6    3   14 1   
     7    4    5 ar  
     8    4   15 1   
     9    5    6 ar  
    10    5   16 1   
    11    6    7 1   
    12    6   12 ar  
    13    7    8 2   
    14    7    9 1   
    15    9   10 2   
    16   10   11 1   
    17   10   17 1   
    18   11   12 1   
    19   11   18 1   
    20   11   19 1   
@<TRIPOS>SUBSTRUCTURE
     1 IQD         1 TEMP              0 ****  ****    0 ROOT
