@<TRIPOS>MOLECULE
IQD
   19    20     1     0     0
SMALL
bcc


@<TRIPOS>ATOM
      1 O01        -0.0100    0.1410   -0.1220 oh        1 IQD     -0.500100
      2 C02         1.3650    0.0990   -0.0350 ca        1 IQD      0.111100
      3 C03         2.0430    0.1100    1.1910 ca        1 IQD     -0.180000
      4 C04         3.4350    0.0660    1.2040 ca        1 IQD     -0.105000
      5 C05         4.1490    0.0120    0.0080 ca        1 IQD     -0.099000
      6 C06         3.4700    0.0010   -1.2140 ca        1 IQD     -0.147600
      7 C07         4.2460   -0.0580   -2.4880 c         1 IQD      0.693100
      8 O08         5.4830   -0.0980   -2.4930 o         1 IQD     -0.499100
      9 N09         3.5310   -0.0670   -3.7290 ne        1 IQD     -0.631100
     10 C10         2.2460   -0.0260   -3.7250 c2        1 IQD      0.492200
     11 C11         1.3330    0.0340   -2.5420 c3        1 IQD     -0.142400
     12 C12         2.0690    0.0440   -1.2530 ca        1 IQD     -0.075300
     13 H1         -0.3640    0.1760    0.7780 ho        1 IQD      0.424000
     14 H2          1.4780    0.1530    2.1340 ha        1 IQD      0.139000
     15 H3          3.9730    0.0740    2.1640 ha        1 IQD      0.142000
     16 H4          5.2510   -0.0240    0.0100 ha        1 IQD      0.163000
     17 H5          1.7440   -0.0360   -4.7150 h4        1 IQD      0.027800
     18 H6          0.6340   -0.8480   -2.5670 hc        1 IQD      0.093700
     19 H7          0.6910    0.9560   -2.6140 hc        1 IQD      0.093700
@<TRIPOS>BOND
     1    1    2 1   
     2    1   13 1   
     3    2    3 ar  
     4    2   12 ar  
     5    3    4 ar  
     6    3   14 1   
     7    4    5 ar  
     8    4   15 1   
     9    5    6 ar  
    10    5   16 1   
    11    6    7 1   
    12    6   12 ar  
    13    7    8 2   
    14    7    9 1   
    15    9   10 2   
    16   10   11 1   
    17   10   17 1   
    18   11   12 1   
    19   11   18 1   
    20   11   19 1   
@<TRIPOS>SUBSTRUCTURE
     1 IQD         1 TEMP              0 ****  ****    0 ROOT
