@<TRIPOS>MOLECULE
IQD
   19    20     1     0     0
SMALL
bcc


@<TRIPOS>ATOM
      1 O01        -0.0080    0.1390   -0.1180 oh        1 IQD     -0.500100
      2 C02         1.3660    0.0990   -0.0330 ca        1 IQD      0.111100
      3 C03         2.0470    0.1120    1.1920 ca        1 IQD     -0.180000
      4 C04         3.4390    0.0700    1.2020 ca        1 IQD     -0.105000
      5 C05         4.1510    0.0150    0.0060 ca        1 IQD     -0.099000
      6 C06         3.4700    0.0020   -1.2160 ca        1 IQD     -0.147600
      7 C07         4.2440   -0.0570   -2.4910 c         1 IQD      0.693100
      8 O08         5.4810   -0.0960   -2.4980 o         1 IQD     -0.499100
      9 N09         3.5270   -0.0690   -3.7300 ne        1 IQD     -0.631100
     10 C10         2.2420   -0.0290   -3.7240 c2        1 IQD      0.492200
     11 C11         1.3310    0.0300   -2.5400 c3        1 IQD     -0.142400
     12 C12         2.0690    0.0440   -1.2520 ca        1 IQD     -0.075300
     13 H1         -0.3610    0.1740    0.7830 ho        1 IQD      0.424000
     14 H2          1.4830    0.1560    2.1350 ha        1 IQD      0.139000
     15 H3          3.9780    0.0800    2.1620 ha        1 IQD      0.142000
     16 H4          5.2530   -0.0180    0.0050 ha        1 IQD      0.163000
     17 H5          1.7380   -0.0410   -4.7140 h4        1 IQD      0.027800
     18 H6          0.6320   -0.8530   -2.5630 hc        1 IQD      0.093700
     19 H7          0.6870    0.9520   -2.6120 hc        1 IQD      0.093700
@<TRIPOS>BOND
     1    1    2 1   
     2    1   13 1   
     3    2    3 ar  
     4    2   12 ar  
     5    3    4 ar  
     6    3   14 1   
     7    4    5 ar  
     8    4   15 1   
     9    5    6 ar  
    10    5   16 1   
    11    6    7 1   
    12    6   12 ar  
    13    7    8 2   
    14    7    9 1   
    15    9   10 2   
    16   10   11 1   
    17   10   17 1   
    18   11   12 1   
    19   11   18 1   
    20   11   19 1   
@<TRIPOS>SUBSTRUCTURE
     1 IQD         1 TEMP              0 ****  ****    0 ROOT
