@<TRIPOS>MOLECULE
IQG
   58    59     1     0     0
SMALL
bcc


@<TRIPOS>ATOM
      1 P          -4.2340    1.0120   -1.1840 p3        1 IQG      2.456000
      2 OP1        -5.0870    2.2110   -1.3680 o         1 IQG     -1.147000
      3 OP2        -4.5020   -0.1990   -1.9760 o         1 IQG     -1.147000
      4 O5'        -2.3070    2.1000   -1.9760 oh        1 IQG     -0.384000
      5 C5'        -2.0150    3.3540   -2.5580 c3        1 IQG     -0.056000
      6 C4'        -0.5400    3.6620   -2.6010 c2        1 IQG      0.178000
      7 O4'         0.2800    3.0460   -1.9120 o         1 IQG     -0.306000
      8 C1'         1.3720    6.2580   -2.2230 c2        1 IQG     -0.406000
      9 N9          1.9340    7.4120   -1.8330 n3        1 IQG      0.060000
     10 C8          4.3200   10.1460   -3.0140 c1        1 IQG      0.038000
     11 N7          3.4310    9.9770   -2.2560 n2        1 IQG     -0.235000
     12 C5          2.3680    9.7410   -1.4150 c2        1 IQG     -0.099000
     13 C6          2.1530   10.5040   -0.3370 c1        1 IQG      0.259000
     14 O6          1.8940   11.1650    0.6190 o         1 IQG     -0.166000
     15 N1         -0.1780    9.9820   -3.8040 n2        1 IQG     -0.497000
     16 C2         -0.6120    9.5550   -2.6220 c2        1 IQG      0.154000
     17 N2         -2.0360    9.8460   -2.3320 nh        1 IQG     -0.210000
     18 C23        -2.9280    8.8680   -2.8710 ca        1 IQG     -0.035000
     19 C22        -3.3520    8.9570   -4.2560 ca        1 IQG      0.041000
     20 N21        -2.7440    9.8790   -5.1010 nh        1 IQG     -0.142000
     21 C20        -3.1570   10.0250   -6.3860 c2        1 IQG     -0.030000
     22 C19        -4.2260    9.2930   -6.8930 c2        1 IQG     -0.251000
     23 C18        -4.8560    8.3100   -6.1220 c1        1 IQG     -0.189000
     24 C17        -4.3890    8.1250   -4.7960 ca        1 IQG     -0.058000
     25 C16        -4.9040    7.1040   -3.9510 ca        1 IQG      0.025000
     26 N15        -5.8250    6.0880   -4.2100 n2        1 IQG     -0.178000
     27 C14        -5.8970    5.3500   -3.0440 c2        1 IQG      0.116000
     28 N14        -6.7490    4.2580   -2.8150 nh        1 IQG     -0.301000
     29 N13        -5.0480    5.8800   -2.0270 na        1 IQG     -0.188000
     30 C13        -4.8650    5.3820   -0.7080 c3        1 IQG     -0.095000
     31 C12        -4.4130    6.9930   -2.5970 ca        1 IQG     -0.112000
     32 C11        -3.4580    7.8660   -2.0650 ca        1 IQG     -0.107000
     33 N3          0.0290    8.9040   -1.5840 n2        1 IQG     -0.447000
     34 C4          1.3780    8.6440   -1.6680 c2        1 IQG     -0.085000
     35 C3'        -0.1010    4.7750   -3.5420 c3        1 IQG     -0.012000
     36 C2'         0.0250    6.1120   -2.8040 c3        1 IQG     -0.087000
     37 O3'        -0.9730    4.8700   -4.6540 oh        1 IQG     -0.328000
     38 H5'2       -1.8510    2.0290   -1.1150 ho        1 IQG      0.268000
     39 H5'1       -2.4270    3.2910   -3.6040 h1        1 IQG      0.119500
     40 H4'        -2.5430    4.1740   -1.9940 h1        1 IQG      0.119500
     41 H1'         1.9600    5.3440   -2.0550 h4        1 IQG      0.134000
     42 H8          2.8930    7.3310   -1.5500 hn        1 IQG      0.200000
     43 H1          0.7860    9.7910   -3.9550 hn        1 IQG      0.122000
     44 H2         -2.1610    9.8850   -1.3330 hn        1 IQG      0.169000
     45 H20        -1.8980   10.3430   -4.7780 hn        1 IQG      0.310000
     46 H19        -2.5880   10.7580   -6.9860 h4        1 IQG      0.125000
     47 H18        -4.5590    9.4780   -7.9210 ha        1 IQG      0.120000
     48 H14        -6.9930    3.8010   -3.6710 hn        1 IQG      0.222000
     49 H14'       -6.3880    3.6010   -2.1360 hn        1 IQG      0.222000
     50 H13        -4.9550    4.2570   -0.6940 h1        1 IQG      0.104000
     51 H13'       -5.6360    5.8210   -0.0170 h1        1 IQG      0.104000
     52 H12        -3.8450    5.6720   -0.3380 h1        1 IQG      0.104000
     53 H11        -3.1240    7.7500   -1.0220 ha        1 IQG      0.140000
     54 H3'        -0.7680    6.1860   -2.0100 hc        1 IQG      0.098500
     55 H2'1        0.8900    4.4830   -3.9980 h1        1 IQG      0.125000
     56 H2'2       -0.1800    6.9370   -3.5440 hc        1 IQG      0.098500
     57 H3         -1.7440    5.3870   -4.3850 ho        1 IQG      0.215000
     58 OP3        -3.2750    0.9990   -0.0610 o         1 IQG     -1.147000
@<TRIPOS>BOND
     1    1    2 1   
     2    1    3 1   
     3    1   58 1   
     4    4    5 1   
     5    4   38 1   
     6    5    6 1   
     7    5   39 1   
     8    5   40 1   
     9    6    7 1   
    10    6   35 1   
    11    8    9 1   
    12    8   36 1   
    13    8   41 1   
    14    9   34 1   
    15    9   42 1   
    16   10   11 1   
    17   11   12 1   
    18   12   13 1   
    19   12   34 1   
    20   13   14 1   
    21   15   16 1   
    22   15   43 1   
    23   16   17 1   
    24   16   33 1   
    25   17   18 1   
    26   17   44 1   
    27   18   19 1   
    28   18   32 1   
    29   19   20 1   
    30   19   24 1   
    31   20   21 1   
    32   20   45 1   
    33   21   22 1   
    34   21   46 1   
    35   22   23 1   
    36   22   47 1   
    37   23   24 1   
    38   24   25 1   
    39   25   26 1   
    40   25   31 1   
    41   26   27 1   
    42   27   28 1   
    43   27   29 1   
    44   28   48 1   
    45   28   49 1   
    46   29   30 1   
    47   29   31 1   
    48   30   50 1   
    49   30   51 1   
    50   30   52 1   
    51   31   32 1   
    52   32   53 1   
    53   33   34 1   
    54   35   36 1   
    55   35   37 1   
    56   35   55 1   
    57   36   54 1   
    58   36   56 1   
    59   37   57 1   
@<TRIPOS>SUBSTRUCTURE
     1 IQG         1 TEMP              0 ****  ****    0 ROOT
