@<TRIPOS>MOLECULE
IQG
   58    61     1     0     0
SMALL
bcc


@<TRIPOS>ATOM
      1 P           0.8380   -0.0180    0.5530 p3        1 IQG      2.428000
      2 OP1         2.1540    0.6010    0.7990 o         1 IQG     -1.141000
      3 OP2        -0.0290   -0.3710    1.6930 o         1 IQG     -1.141000
      4 O5'        -0.2740    1.7630   -0.5330 oh        1 IQG     -0.394000
      5 C5'        -0.1380    3.1100   -0.9430 c3        1 IQG     -0.014000
      6 C4'        -1.3780    3.5970   -1.6900 c3        1 IQG     -0.054000
      7 O4'        -1.4230    5.0390   -1.6830 os        1 IQG     -0.253000
      8 C1'        -1.1350    5.5760   -2.9440 c2        1 IQG     -0.286000
      9 N9          0.2750    6.1200   -2.9440 nx        1 IQG      0.024000
     10 C8          0.9980    6.0770   -4.2650 c1        1 IQG     -0.167000
     11 N7          1.1850    7.2440   -4.8080 n2        1 IQG     -0.245000
     12 C5          0.6310    8.2530   -3.9290 c2        1 IQG     -0.244000
     13 C6          0.5520    9.5310   -4.2370 c1        1 IQG      0.298000
     14 O6          0.5230   10.6910   -4.5280 o         1 IQG     -0.218000
     15 N1         -0.0870   10.0360   -0.1690 n2        1 IQG     -0.335000
     16 C2         -0.5260    9.4420   -1.2510 c2        1 IQG      0.162000
     17 N2         -1.3250   10.2290   -2.1620 nu        1 IQG     -0.264000
     18 C23        -2.5250    9.7060   -2.7240 ca        1 IQG     -0.058000
     19 C22        -3.1170   10.4340   -3.8370 ca        1 IQG      0.035000
     20 N21        -2.4340   11.5040   -4.4150 nu        1 IQG     -0.168000
     21 C20        -3.0040   12.2550   -5.4010 c2        1 IQG     -0.026000
     22 C19        -4.3000   12.0170   -5.8290 c2        1 IQG     -0.237000
     23 C18        -5.0310   10.9200   -5.3460 c1        1 IQG     -0.165000
     24 C17        -4.4070   10.1050   -4.3700 ca        1 IQG     -0.053000
     25 C16        -5.0000    8.9000   -3.9060 ca        1 IQG      0.019000
     26 N15        -6.1680    8.2490   -4.3040 n2        1 IQG     -0.155000
     27 C14        -6.1860    7.0730   -3.5860 c2        1 IQG      0.064000
     28 N14        -7.2260    6.1160   -3.6120 nv        1 IQG     -0.282000
     29 N13        -5.0790    6.9590   -2.6970 na        1 IQG     -0.153000
     30 C13        -4.6210    5.7800   -2.0340 c3        1 IQG     -0.104000
     31 C12        -4.3160    8.1170   -2.9060 ca        1 IQG     -0.074000
     32 C11        -3.1360    8.5410   -2.2780 ca        1 IQG     -0.035000
     33 N3         -0.2760    8.0670   -1.5420 n2        1 IQG     -0.244000
     34 C4          0.1280    7.6070   -2.6780 c2        1 IQG      0.196000
     35 C3'        -1.4000    3.1640   -3.1680 c3        1 IQG     -0.017000
     36 C2'        -1.3740    4.4790   -3.9700 c3        1 IQG     -0.190000
     37 O3'        -2.6020    2.4340   -3.3880 oh        1 IQG     -0.334000
     38 H5'2       -0.4080    1.2080   -1.3250 ho        1 IQG      0.258000
     39 H5'1       -0.0150    3.6940    0.0080 h1        1 IQG      0.084000
     40 H4'         0.7810    3.2310   -1.5750 h1        1 IQG      0.084000
     41 H1'        -2.3040    3.2520   -1.1570 h1        1 IQG      0.113000
     42 H8          0.8530    5.6940   -2.2170 hn        1 IQG      0.189000
     43 H1          0.5460    9.4990    0.3840 hn        1 IQG      0.159000
     44 H2         -1.4950   11.1500   -1.7910 hn        1 IQG      0.195000
     45 H20        -1.4630   11.6270   -4.2070 hn        1 IQG      0.264000
     46 H19        -2.3610   13.0510   -5.8190 h4        1 IQG      0.132000
     47 H18        -4.7480   12.6790   -6.5810 ha        1 IQG      0.131000
     48 H14        -7.8440    6.2730   -4.3840 hn        1 IQG      0.184000
     49 H14'       -6.8710    5.1800   -3.6100 hn        1 IQG      0.184000
     50 H13        -4.9130    4.8630   -2.6120 h1        1 IQG      0.115000
     51 H13'       -3.4900    5.7950   -1.9520 h1        1 IQG      0.115000
     52 H12        -5.0770    5.7250   -1.0100 h1        1 IQG      0.115000
     53 H11        -2.7150    7.9210   -1.4660 ha        1 IQG      0.189000
     54 H3'        -2.3810    4.6640   -4.4220 hc        1 IQG      0.093500
     55 H2'1       -0.5230    2.5080   -3.4130 h1        1 IQG      0.085000
     56 H2'2       -0.6190    4.4420   -4.7910 hc        1 IQG      0.093500
     57 H3         -2.6060    2.2080   -4.3240 ho        1 IQG      0.183000
     58 OP3         0.4970   -0.5080   -0.8040 o         1 IQG     -1.141000
@<TRIPOS>BOND
     1    1    2 1   
     2    1    3 1   
     3    1   58 1   
     4    4    5 1   
     5    4   38 1   
     6    5    6 1   
     7    5   39 1   
     8    5   40 1   
     9    6    7 1   
    10    6   35 1   
    11    6   41 1   
    12    7    8 1   
    13    8    9 1   
    14    8   36 1   
    15    9   10 1   
    16    9   34 1   
    17    9   42 1   
    18   10   11 1   
    19   11   12 1   
    20   12   13 1   
    21   12   34 1   
    22   13   14 1   
    23   15   16 1   
    24   15   43 1   
    25   16   17 1   
    26   16   33 1   
    27   17   18 1   
    28   17   44 1   
    29   18   19 1   
    30   18   32 1   
    31   19   20 1   
    32   19   24 1   
    33   20   21 1   
    34   20   45 1   
    35   21   22 1   
    36   21   46 1   
    37   22   23 1   
    38   22   47 1   
    39   23   24 1   
    40   24   25 1   
    41   25   26 1   
    42   25   31 1   
    43   26   27 1   
    44   27   28 1   
    45   27   29 1   
    46   28   48 1   
    47   28   49 1   
    48   29   30 1   
    49   29   31 1   
    50   30   50 1   
    51   30   51 1   
    52   30   52 1   
    53   31   32 1   
    54   32   53 1   
    55   33   34 1   
    56   35   36 1   
    57   35   37 1   
    58   35   55 1   
    59   36   54 1   
    60   36   56 1   
    61   37   57 1   
@<TRIPOS>SUBSTRUCTURE
     1 IQG         1 TEMP              0 ****  ****    0 ROOT
