@<TRIPOS>MOLECULE
IQG
   58    59     1     0     0
SMALL
bcc


@<TRIPOS>ATOM
      1 P          -3.7850    0.8700   -0.6330 p3        1 IQG      2.454000
      2 OP1        -3.7170   -0.1210   -1.7170 o         1 IQG     -1.145000
      3 OP2        -3.7140    0.4830    0.7840 o         1 IQG     -1.145000
      4 O5'        -1.7950    1.9620   -0.9580 oh        1 IQG     -0.418000
      5 C5'        -0.6810    2.0800   -1.8380 c3        1 IQG      0.043000
      6 C4'        -0.7190    3.3130   -2.6850 c2        1 IQG     -0.102000
      7 O4'         0.4930    3.9510   -2.7020 oh        1 IQG     -0.361000
      8 C1'         0.5400    6.2940   -4.1050 c1        1 IQG     -0.382000
      9 N9          1.4720    7.2510   -3.5360 n4        1 IQG      0.066000
     10 C8          2.4290    7.8680   -4.5430 c1        1 IQG     -0.158000
     11 N7          2.2460    9.1440   -4.7280 n2        1 IQG     -0.252000
     12 C5          1.1860    9.5900   -3.8520 c2        1 IQG     -0.247000
     13 C6          0.5770   10.7560   -3.9430 c1        1 IQG      0.293000
     14 O6          0.0590   11.8300   -4.0160 o         1 IQG     -0.203000
     15 N1          0.0110   10.1510   -0.0840 n2        1 IQG     -0.331000
     16 C2         -0.4040    9.6320   -1.2110 c2        1 IQG      0.144000
     17 N2         -1.5180   10.2480   -1.8960 nh        1 IQG     -0.238000
     18 C23        -2.5560    9.3670   -2.3350 ca        1 IQG     -0.127000
     19 C22        -3.2780    9.6790   -3.5410 ca        1 IQG      0.071000
     20 N21        -2.9610   10.8250   -4.2690 nh        1 IQG     -0.181000
     21 C20        -3.6710   11.1710   -5.3840 c2        1 IQG     -0.026000
     22 C19        -4.7590   10.4290   -5.8020 c2        1 IQG     -0.241000
     23 C18        -5.1270    9.2390   -5.1450 c1        1 IQG     -0.151000
     24 C17        -4.3510    8.8520   -4.0260 ca        1 IQG     -0.086000
     25 C16        -4.5730    7.6220   -3.3510 ca        1 IQG      0.087000
     26 N15        -5.3930    6.5480   -3.6700 n2        1 IQG     -0.196000
     27 C14        -5.1330    5.5860   -2.6970 c2        1 IQG      0.172000
     28 N14        -5.7350    4.3370   -2.6180 nh        1 IQG     -0.304000
     29 N13        -4.2450    6.0690   -1.6840 na        1 IQG     -0.178000
     30 C13        -3.4950    5.2550   -0.7810 c3        1 IQG     -0.102000
     31 C12        -3.8170    7.3330   -2.1430 ca        1 IQG     -0.122000
     32 C11        -2.8600    8.1970   -1.6320 ca        1 IQG     -0.031000
     33 N3          0.1690    8.4530   -1.8060 n2        1 IQG     -0.220000
     34 C4          0.8010    8.4770   -2.9290 c2        1 IQG      0.107000
     35 C3'        -1.7940    3.7630   -3.3710 c2        1 IQG     -0.123000
     36 C2'        -0.2810    6.5710   -5.1170 c2        1 IQG     -0.318000
     37 O3'        -3.0380    3.1920   -3.4130 oh        1 IQG     -0.296000
     38 H5'2       -2.1390    2.8480   -0.7550 ho        1 IQG      0.249000
     39 H5'1       -0.7160    1.1590   -2.4820 h1        1 IQG      0.091500
     40 H4'         0.2530    2.0710   -1.2120 h1        1 IQG      0.091500
     41 H1'         0.4530    4.7900   -3.2950 ho        1 IQG      0.306000
     42 H8          1.9840    6.7420   -2.8180 hn        1 IQG      0.240000
     43 H1          0.8460    9.7530    0.2880 hn        1 IQG      0.152000
     44 H2         -1.9100   11.0030   -1.3570 hn        1 IQG      0.189000
     45 H20        -2.1360   11.3380   -4.0360 hn        1 IQG      0.257000
     46 H19        -3.3120   12.0760   -5.9080 h4        1 IQG      0.128000
     47 H18        -5.3330   10.7590   -6.6780 ha        1 IQG      0.128000
     48 H14        -6.0900    4.0180   -3.4940 hn        1 IQG      0.240500
     49 H14'       -5.2030    3.6360   -2.1180 hn        1 IQG      0.240500
     50 H13        -4.1260    4.4020   -0.4030 h1        1 IQG      0.109333
     51 H13'       -3.1600    5.8900    0.0820 h1        1 IQG      0.109333
     52 H12        -2.5900    4.8240   -1.2960 h1        1 IQG      0.109333
     53 H11        -2.3200    7.9390   -0.7060 ha        1 IQG      0.148000
     54 H3'        -0.9160    5.7740   -5.5240 ha        1 IQG      0.089000
     55 H2'1       -1.7640    4.6680   -4.0020 h4        1 IQG      0.175000
     56 H2'2       -0.4030    7.5410   -5.6180 ha        1 IQG      0.089000
     57 H3         -3.1170    2.4990   -2.7270 ho        1 IQG      0.249000
     58 OP3        -4.1530    2.2720   -0.9810 o         1 IQG     -1.145000
@<TRIPOS>BOND
     1    1    2 1   
     2    1    3 1   
     3    1   58 1   
     4    4    5 1   
     5    4   38 1   
     6    5    6 1   
     7    5   39 1   
     8    5   40 1   
     9    6    7 1   
    10    6   35 1   
    11    7   41 1   
    12    8    9 1   
    13    8   36 1   
    14    9   10 1   
    15    9   34 1   
    16    9   42 1   
    17   10   11 1   
    18   11   12 1   
    19   12   13 1   
    20   12   34 1   
    21   13   14 1   
    22   15   16 1   
    23   15   43 1   
    24   16   17 1   
    25   16   33 1   
    26   17   18 1   
    27   17   44 1   
    28   18   19 1   
    29   18   32 1   
    30   19   20 1   
    31   19   24 1   
    32   20   21 1   
    33   20   45 1   
    34   21   22 1   
    35   21   46 1   
    36   22   23 1   
    37   22   47 1   
    38   23   24 1   
    39   24   25 1   
    40   25   26 1   
    41   25   31 1   
    42   26   27 1   
    43   27   28 1   
    44   27   29 1   
    45   28   48 1   
    46   28   49 1   
    47   29   30 1   
    48   29   31 1   
    49   30   50 1   
    50   30   51 1   
    51   30   52 1   
    52   31   32 1   
    53   32   53 1   
    54   33   34 1   
    55   35   37 1   
    56   35   55 1   
    57   36   54 1   
    58   36   56 1   
    59   37   57 1   
@<TRIPOS>SUBSTRUCTURE
     1 IQG         1 TEMP              0 ****  ****    0 ROOT
