@<TRIPOS>MOLECULE
IQK
   56    59     1     0     0
SMALL
bcc


@<TRIPOS>ATOM
      1 C1         -6.7490    3.4650    0.3230 c3        1 IQK      0.109700
      2 N1         -1.9860   -2.0150   -0.0390 nh        1 IQK     -0.776500
      3 O1         -6.8570    2.2090   -0.3430 os        1 IQK     -0.318900
      4 S1         -3.2310   -2.1700    1.0120 sy        1 IQK      1.524200
      5 C2         -5.9640    1.2360    0.0320 ca        1 IQK      0.195100
      6 N2          1.9900    2.0110   -0.1050 nh        1 IQK     -0.776500
      7 O2          6.8630   -2.2220   -0.1840 os        1 IQK     -0.318900
      8 S2          3.2250    2.2090    0.9500 sy        1 IQK      1.524200
      9 C3         -6.1100    0.0030   -0.6390 ca        1 IQK     -0.211500
     10 O3          3.8710    3.4100    0.5770 o         1 IQK     -0.653800
     11 C4         -5.2490   -1.0360   -0.3300 ca        1 IQK      0.024500
     12 O4          2.7680    2.1190    2.2800 o         1 IQK     -0.653800
     13 C5         -4.2370   -0.8890    0.6330 ca        1 IQK     -0.439500
     14 O5         -3.8730   -3.3850    0.6830 o         1 IQK     -0.653800
     15 C6         -1.0070   -1.0100   -0.0760 ca        1 IQK      0.154600
     16 O6         -2.7870   -2.0230    2.3400 o         1 IQK     -0.653800
     17 C7         -0.5060   -0.5190   -1.3370 ca        1 IQK     -0.034000
     18 C8         -1.0120   -0.9970   -2.5790 ca        1 IQK     -0.120000
     19 C9         -0.5040   -0.5530   -3.7750 ca        1 IQK     -0.124000
     20 C10         0.5430    0.3930   -3.7900 ca        1 IQK     -0.124000
     21 C11         1.0390    0.8870   -2.6090 ca        1 IQK     -0.120000
     22 C12         0.5220    0.4610   -1.3520 ca        1 IQK     -0.034000
     23 C13         1.0110    1.0040   -0.1080 ca        1 IQK      0.154600
     24 C14         4.2340    0.9140    0.6350 ca        1 IQK     -0.439500
     25 C15         5.2560    1.0200   -0.3240 ca        1 IQK      0.024500
     26 C16         6.1190   -0.0310   -0.5810 ca        1 IQK     -0.211500
     27 C17         5.9660   -1.2340    0.1410 ca        1 IQK      0.195100
     28 C18         6.7480   -3.4500    0.5320 c3        1 IQK      0.109700
     29 C19         4.9600   -1.3610    1.1110 ca        1 IQK     -0.211500
     30 C20         4.1100   -0.2870    1.3450 ca        1 IQK      0.024500
     31 C21         0.4840    0.5270    1.0870 ca        1 IQK     -0.157000
     32 C22        -0.4900   -0.4830    1.1030 ca        1 IQK     -0.157000
     33 C23        -4.1190    0.3410    1.2920 ca        1 IQK      0.024500
     34 C24        -4.9670    1.4040    1.0050 ca        1 IQK     -0.211500
     35 H1         -5.7510    3.9270    0.1280 h1        1 IQK      0.052033
     36 H1A        -7.5660    4.0730   -0.1430 h1        1 IQK      0.052033
     37 H1B        -6.9220    3.3440    1.4190 h1        1 IQK      0.052033
     38 HN1        -1.8930   -2.6810   -0.7750 hn        1 IQK      0.454800
     39 HN2         1.9040    2.6450   -0.8680 hn        1 IQK      0.454800
     40 H3         -6.9040   -0.1120   -1.3910 ha        1 IQK      0.154000
     41 H4         -5.3690   -2.0110   -0.8370 ha        1 IQK      0.155500
     42 H8         -1.8350   -1.7260   -2.5990 ha        1 IQK      0.130000
     43 H9         -0.9060   -0.9280   -4.7290 ha        1 IQK      0.137000
     44 H10         0.9540    0.7280   -4.7550 ha        1 IQK      0.137000
     45 H11         1.8640    1.6140   -2.6520 ha        1 IQK      0.130000
     46 H15         5.3800    1.9730   -0.8700 ha        1 IQK      0.155500
     47 H16         6.9200    0.0530   -1.3290 ha        1 IQK      0.154000
     48 H18         7.5690   -4.0760    0.1000 h1        1 IQK      0.052033
     49 H18A        6.9100   -3.2820    1.6250 h1        1 IQK      0.052033
     50 H18B        5.7520   -3.9190    0.3480 h1        1 IQK      0.052033
     51 H19         4.8380   -2.2910    1.6840 ha        1 IQK      0.154000
     52 H20         3.3230   -0.3760    2.1160 ha        1 IQK      0.155500
     53 H21         0.8260    0.9260    2.0600 ha        1 IQK      0.173000
     54 H22        -0.8420   -0.8400    2.0890 ha        1 IQK      0.173000
     55 H23        -3.3400    0.4620    2.0670 ha        1 IQK      0.155500
     56 H24        -4.8510    2.3570    1.5400 ha        1 IQK      0.154000
@<TRIPOS>BOND
     1    1    3 1   
     2    1   35 1   
     3    1   36 1   
     4    1   37 1   
     5    2    4 1   
     6    2   15 1   
     7    2   38 1   
     8    3    5 1   
     9    4   13 1   
    10    4   14 2   
    11    4   16 2   
    12    5    9 ar  
    13    5   34 ar  
    14    6    8 1   
    15    6   23 1   
    16    6   39 1   
    17    7   27 1   
    18    7   28 1   
    19    8   10 2   
    20    8   12 2   
    21    8   24 1   
    22    9   11 ar  
    23    9   40 1   
    24   11   13 ar  
    25   11   41 1   
    26   13   33 ar  
    27   15   17 ar  
    28   15   32 ar  
    29   17   18 ar  
    30   17   22 ar  
    31   18   19 ar  
    32   18   42 1   
    33   19   20 ar  
    34   19   43 1   
    35   20   21 ar  
    36   20   44 1   
    37   21   22 ar  
    38   21   45 1   
    39   22   23 ar  
    40   23   31 ar  
    41   24   25 ar  
    42   24   30 ar  
    43   25   26 ar  
    44   25   46 1   
    45   26   27 ar  
    46   26   47 1   
    47   27   29 ar  
    48   28   48 1   
    49   28   49 1   
    50   28   50 1   
    51   29   30 ar  
    52   29   51 1   
    53   30   52 1   
    54   31   32 ar  
    55   31   53 1   
    56   32   54 1   
    57   33   34 ar  
    58   33   55 1   
    59   34   56 1   
@<TRIPOS>SUBSTRUCTURE
     1 IQK         1 TEMP              0 ****  ****    0 ROOT
