@<TRIPOS>MOLECULE
IQK
   56    50     1     0     0
SMALL
bcc


@<TRIPOS>ATOM
      1 C1         -6.8630    7.4500   -0.8460 c3        1 IQK     -0.080000
      2 N1         -2.3480    1.3440    1.3360 n3        1 IQK     -0.850000
      3 O1         -5.6370    6.7190   -0.9270 os        1 IQK     -0.202000
      4 S1         -2.4260    3.0070    1.5080 s4        1 IQK      2.087800
      5 C2         -5.5020    5.7090    0.0700 c2        1 IQK      0.146000
      6 N2          1.3330   -1.9840   -0.7490 n3        1 IQK     -0.831000
      7 O2          5.4870   -7.1230   -1.6110 os        1 IQK     -0.201000
      8 S2          2.8240   -1.9070   -1.5490 s4        1 IQK      2.091800
      9 C3         -4.7070    4.9520   -0.7980 c2        1 IQK     -0.186000
     10 O3          3.7290   -1.0030   -0.8860 o         1 IQK     -0.540900
     11 C4         -3.9700    3.9070   -0.3160 c1        1 IQK      0.015000
     12 O4          2.6950   -1.2710   -2.8420 o         1 IQK     -0.540900
     13 C5         -4.0100    3.5950    1.0280 c1        1 IQK     -0.875000
     14 O5         -2.0960    3.4240    2.9020 o         1 IQK     -0.543900
     15 C6         -1.0720    0.6910    1.2310 c2        1 IQK      0.035000
     16 O6         -1.3640    3.6650    0.7550 o         1 IQK     -0.543900
     17 C7          0.0860    0.4380    1.9850 c2        1 IQK     -0.017000
     18 C8          0.2290    0.9910    3.2590 c2        1 IQK     -0.122000
     19 C9          1.3780    0.7380    4.0040 c1        1 IQK     -0.118000
     20 C10         2.3710   -0.0570    3.4870 c1        1 IQK     -0.123500
     21 C11         2.2320   -0.6100    2.2190 c1        1 IQK     -0.123500
     22 C12         1.0830   -0.3580    1.4690 c1        1 IQK     -0.046000
     23 C13         0.9430   -0.9160    0.1910 c2        1 IQK      0.103000
     24 C14         3.5290   -3.5550   -1.7020 c1        1 IQK     -0.886000
     25 C15         4.4690   -3.9960   -0.7880 c2        1 IQK      0.013000
     26 C16         5.1030   -5.2340   -0.9790 c1        1 IQK     -0.187000
     27 C17         4.7790   -6.0280   -2.1070 c1        1 IQK      0.150000
     28 C18         5.9030   -8.0620   -2.6290 c3        1 IQK     -0.080000
     29 C19         3.8380   -5.5870   -3.0220 c1        1 IQK     -0.238000
     30 C20         3.2060   -4.3540   -2.8330 c1        1 IQK      0.030000
     31 C21        -0.1990   -0.6660   -0.5530 c1        1 IQK     -0.183000
     32 C22        -1.2120    0.1420   -0.0280 c1        1 IQK     -0.089000
     33 C23        -4.8040    4.3500    1.9000 c1        1 IQK      0.021000
     34 C24        -5.5430    5.4000    1.4150 c1        1 IQK     -0.238000
     35 H1         -7.5770    6.8560   -0.5410 h1        1 IQK      0.090333
     36 H1A        -7.1010    7.8230   -1.7700 h1        1 IQK      0.090333
     37 H1B        -6.7590    8.2040   -0.1990 h1        1 IQK      0.090333
     38 HN1        -3.0900    0.8590    1.3840 hn        1 IQK      0.246000
     39 HN2         0.7700   -2.6920   -0.8980 hn        1 IQK      0.246000
     40 H3         -4.6800    5.1590   -1.6950 ha        1 IQK      0.160000
     41 H4         -3.4140    3.3790   -0.9260 ha        1 IQK      0.158000
     42 H8         -0.4770    1.5530    3.6270 ha        1 IQK      0.159000
     43 H9          1.4790    1.1270    4.8970 ha        1 IQK      0.139000
     44 H10         3.1750   -0.2340    4.0090 ha        1 IQK      0.129500
     45 H11         2.9310   -1.1670    1.8570 ha        1 IQK      0.129500
     46 H15         4.6880   -3.4560   -0.0240 ha        1 IQK      0.162000
     47 H16         5.8030   -5.5610   -0.3050 ha        1 IQK      0.161000
     48 H18         6.5650   -8.6430   -2.2710 h1        1 IQK      0.091667
     49 H18A        5.1190   -8.5990   -2.9290 h1        1 IQK      0.091667
     50 H18B        6.2670   -7.5850   -3.3760 h1        1 IQK      0.091667
     51 H19         3.6030   -6.1680   -3.8460 ha        1 IQK      0.148000
     52 H20         2.5230   -4.0320   -3.4990 ha        1 IQK      0.157000
     53 H21        -0.2930   -1.0390   -1.4060 ha        1 IQK      0.170000
     54 H22        -2.0500    0.3260   -0.5720 ha        1 IQK      0.142000
     55 H23        -4.8310    4.1320    2.8480 ha        1 IQK      0.157000
     56 H24        -6.1170    5.9460    2.0410 ha        1 IQK      0.146000
@<TRIPOS>BOND
     1    1    3 1   
     2    1   35 1   
     3    1   36 1   
     4    1   37 1   
     5    2    4 1   
     6    2   15 1   
     7    2   38 1   
     8    3    5 1   
     9    4   14 1   
    10    4   16 1   
    11    5    9 1   
    12    5   34 1   
    13    6    8 1   
    14    6   23 1   
    15    6   39 1   
    16    7   27 1   
    17    7   28 1   
    18    8   10 1   
    19    8   12 1   
    20    9   11 1   
    21    9   40 1   
    22   11   41 1   
    23   13   33 1   
    24   15   17 1   
    25   15   32 1   
    26   17   18 1   
    27   17   22 1   
    28   18   19 1   
    29   18   42 1   
    30   19   43 1   
    31   20   21 1   
    32   20   44 1   
    33   21   45 1   
    34   22   23 1   
    35   23   31 1   
    36   24   25 1   
    37   24   30 1   
    38   25   26 1   
    39   25   46 1   
    40   26   47 1   
    41   27   29 1   
    42   28   48 1   
    43   28   49 1   
    44   28   50 1   
    45   29   51 1   
    46   30   52 1   
    47   31   53 1   
    48   32   54 1   
    49   33   55 1   
    50   34   56 1   
@<TRIPOS>SUBSTRUCTURE
     1 IQK         1 TEMP              0 ****  ****    0 ROOT
