@<TRIPOS>MOLECULE
IQK
   56    59     1     0     0
SMALL
bcc


@<TRIPOS>ATOM
      1 C1          0.5720    0.2080   -0.8450 c3        1 IQK      0.109700
      2 N1          3.9870    1.1520    5.5030 nh        1 IQK     -0.776500
      3 O1          1.9680    0.2470   -0.5610 os        1 IQK     -0.318900
      4 S1          3.8820   -0.3760    4.9260 sy        1 IQK      1.524200
      5 C2          2.3330    0.0960    0.7540 ca        1 IQK      0.195100
      6 N2         -0.2680    4.6530    6.7870 nh        1 IQK     -0.776500
      7 O2          1.9660    5.8670   12.7200 os        1 IQK     -0.318900
      8 S2         -1.2980    4.5480    8.0550 sy        1 IQK      1.524200
      9 C3          3.7230    0.1290    0.9950 ca        1 IQK     -0.211500
     10 O3         -2.2440    5.5830    7.8780 o         1 IQK     -0.653800
     11 C4          4.1840   -0.0090    2.2930 ca        1 IQK      0.024500
     12 O4         -1.8020    3.2400    8.1840 o         1 IQK     -0.653800
     13 C5          3.2990   -0.1790    3.3720 ca        1 IQK     -0.439500
     14 O5          5.2060   -0.8680    4.8730 o         1 IQK     -0.653800
     15 C6          2.9390    2.0350    5.8050 ca        1 IQK      0.154600
     16 O6          2.9520   -1.1290    5.6700 o         1 IQK     -0.653800
     17 C7          3.0720    3.4480    5.5460 ca        1 IQK     -0.034000
     18 C8          4.2400    3.9900    4.9390 ca        1 IQK     -0.120000
     19 C9          4.3760    5.3400    4.7290 ca        1 IQK     -0.124000
     20 C10         3.3460    6.2230    5.1230 ca        1 IQK     -0.124000
     21 C11         2.2000    5.7280    5.6950 ca        1 IQK     -0.120000
     22 C12         2.0210    4.3320    5.9080 ca        1 IQK     -0.034000
     23 C13         0.8030    3.8020    6.4720 ca        1 IQK      0.154600
     24 C14        -0.3390    4.8920    9.3800 ca        1 IQK     -0.439500
     25 C15        -0.1850    6.2150    9.8280 ca        1 IQK      0.024500
     26 C16         0.5830    6.5190   10.9390 ca        1 IQK     -0.211500
     27 C17         1.2220    5.4710   11.6360 ca        1 IQK      0.195100
     28 C18         2.6180    4.8350   13.4580 c3        1 IQK      0.109700
     29 C19         1.0760    4.1410   11.2150 ca        1 IQK     -0.211500
     30 C20         0.2980    3.8700   10.0960 ca        1 IQK      0.024500
     31 C21         0.7000    2.4310    6.6800 ca        1 IQK     -0.157000
     32 C22         1.7620    1.5640    6.3770 ca        1 IQK     -0.157000
     33 C23         1.9250   -0.2170    3.1050 ca        1 IQK      0.024500
     34 C24         1.4300   -0.0810    1.8140 ca        1 IQK     -0.211500
     35 H1          0.5320    0.3470   -1.9560 h1        1 IQK      0.052033
     36 H1A         0.0420    1.0420   -0.3230 h1        1 IQK      0.052033
     37 H1B         0.1400   -0.7790   -0.5530 h1        1 IQK      0.052033
     38 HN1         4.8900    1.5510    5.6440 hn        1 IQK      0.454800
     39 HN2        -0.3620    5.4170    6.1540 hn        1 IQK      0.454800
     40 H3          4.4150    0.2590    0.1500 ha        1 IQK      0.154000
     41 H4          5.2710   -0.0050    2.4880 ha        1 IQK      0.155500
     42 H8          5.0540    3.3260    4.6110 ha        1 IQK      0.130000
     43 H9          5.2820    5.7460    4.2560 ha        1 IQK      0.137000
     44 H10         3.4740    7.3040    4.9670 ha        1 IQK      0.137000
     45 H11         1.4200    6.4410    6.0020 ha        1 IQK      0.130000
     46 H15        -0.7050    7.0270    9.2870 ha        1 IQK      0.155500
     47 H16         0.7020    7.5530   11.2900 ha        1 IQK      0.154000
     48 H18         1.8690    4.1250   13.8850 h1        1 IQK      0.052033
     49 H18A        3.1440    5.3950   14.2720 h1        1 IQK      0.052033
     50 H18B        3.3520    4.2950   12.8120 h1        1 IQK      0.052033
     51 H19         1.5620    3.3170   11.7560 ha        1 IQK      0.154000
     52 H20         0.1680    2.8220    9.7660 ha        1 IQK      0.155500
     53 H21        -0.2210    1.9850    7.1010 ha        1 IQK      0.173000
     54 H22         1.6260    0.4890    6.5990 ha        1 IQK      0.173000
     55 H23         1.2200   -0.3710    3.9430 ha        1 IQK      0.155500
     56 H24         0.3460   -0.1160    1.6360 ha        1 IQK      0.154000
@<TRIPOS>BOND
     1    1    3 1   
     2    1   35 1   
     3    1   36 1   
     4    1   37 1   
     5    2    4 1   
     6    2   15 1   
     7    2   38 1   
     8    3    5 1   
     9    4   13 1   
    10    4   14 2   
    11    4   16 2   
    12    5    9 ar  
    13    5   34 ar  
    14    6    8 1   
    15    6   23 1   
    16    6   39 1   
    17    7   27 1   
    18    7   28 1   
    19    8   10 2   
    20    8   12 2   
    21    8   24 1   
    22    9   11 ar  
    23    9   40 1   
    24   11   13 ar  
    25   11   41 1   
    26   13   33 ar  
    27   15   17 ar  
    28   15   32 ar  
    29   17   18 ar  
    30   17   22 ar  
    31   18   19 ar  
    32   18   42 1   
    33   19   20 ar  
    34   19   43 1   
    35   20   21 ar  
    36   20   44 1   
    37   21   22 ar  
    38   21   45 1   
    39   22   23 ar  
    40   23   31 ar  
    41   24   25 ar  
    42   24   30 ar  
    43   25   26 ar  
    44   25   46 1   
    45   26   27 ar  
    46   26   47 1   
    47   27   29 ar  
    48   28   48 1   
    49   28   49 1   
    50   28   50 1   
    51   29   30 ar  
    52   29   51 1   
    53   30   52 1   
    54   31   32 ar  
    55   31   53 1   
    56   32   54 1   
    57   33   34 ar  
    58   33   55 1   
    59   34   56 1   
@<TRIPOS>SUBSTRUCTURE
     1 IQK         1 TEMP              0 ****  ****    0 ROOT
