@<TRIPOS>MOLECULE
IQK
   56    59     1     0     0
SMALL
bcc


@<TRIPOS>ATOM
      1 C1          0.5660    0.2120   -0.8430 c3        1 IQK      0.109700
      2 N1          3.9910    1.1570    5.5000 nu        1 IQK     -0.776500
      3 O1          1.9630    0.2520   -0.5610 os        1 IQK     -0.318900
      4 S1          3.8860   -0.3710    4.9230 sy        1 IQK      1.524200
      5 C2          2.3290    0.1010    0.7540 ca        1 IQK      0.195100
      6 N2         -0.2660    4.6560    6.7870 nu        1 IQK     -0.776500
      7 O2          1.9630    5.8520   12.7260 os        1 IQK     -0.318900
      8 S2         -1.2970    4.5480    8.0530 sy        1 IQK      1.524200
      9 C3          3.7200    0.1340    0.9920 ca        1 IQK     -0.211500
     10 O3         -2.2430    5.5840    7.8790 o         1 IQK     -0.653800
     11 C4          4.1830   -0.0040    2.2890 ca        1 IQK      0.024750
     12 O4         -1.8020    3.2390    8.1790 o         1 IQK     -0.653800
     13 C5          3.3000   -0.1740    3.3690 ca        1 IQK     -0.439500
     14 O5          5.2100   -0.8620    4.8670 o         1 IQK     -0.653800
     15 C6          2.9420    2.0390    5.8030 ca        1 IQK      0.154600
     16 O6          2.9580   -1.1250    5.6670 o         1 IQK     -0.653800
     17 C7          3.0740    3.4530    5.5460 ca        1 IQK     -0.034000
     18 C8          4.2420    3.9960    4.9390 ca        1 IQK     -0.120000
     19 C9          4.3780    5.3460    4.7310 ca        1 IQK     -0.124000
     20 C10         3.3480    6.2280    5.1260 ca        1 IQK     -0.124000
     21 C11         2.2020    5.7320    5.6960 ca        1 IQK     -0.120000
     22 C12         2.0230    4.3360    5.9080 ca        1 IQK     -0.034000
     23 C13         0.8050    3.8040    6.4710 ca        1 IQK      0.154600
     24 C14        -0.3390    4.8880    9.3810 ca        1 IQK     -0.439500
     25 C15        -0.1860    6.2090    9.8330 ca        1 IQK      0.024750
     26 C16         0.5810    6.5090   10.9460 ca        1 IQK     -0.211500
     27 C17         1.2200    5.4600   11.6400 ca        1 IQK      0.195100
     28 C18         2.6150    4.8180   13.4610 c3        1 IQK      0.109700
     29 C19         1.0750    4.1310   11.2140 ca        1 IQK     -0.211500
     30 C20         0.2980    3.8630   10.0930 ca        1 IQK      0.024750
     31 C21         0.7030    2.4330    6.6770 ca        1 IQK     -0.157000
     32 C22         1.7650    1.5680    6.3740 ca        1 IQK     -0.157000
     33 C23         1.9250   -0.2120    3.1050 ca        1 IQK      0.024750
     34 C24         1.4290   -0.0770    1.8150 ca        1 IQK     -0.211500
     35 H1          0.5240    0.3510   -1.9540 h1        1 IQK      0.052033
     36 H1A         0.1340   -0.7750   -0.5510 h1        1 IQK      0.052033
     37 H1B         0.0370    1.0460   -0.3200 h1        1 IQK      0.052033
     38 HN1         4.8930    1.5560    5.6410 hn        1 IQK      0.454800
     39 HN2        -0.3590    5.4210    6.1550 hn        1 IQK      0.454800
     40 H3          4.4100    0.2640    0.1460 ha        1 IQK      0.154000
     41 H4          5.2710    0.0000    2.4820 ha        1 IQK      0.155500
     42 H8          5.0570    3.3320    4.6100 ha        1 IQK      0.130000
     43 H9          5.2840    5.7530    4.2580 ha        1 IQK      0.137000
     44 H10         3.4750    7.3090    4.9700 ha        1 IQK      0.137000
     45 H11         1.4210    6.4450    6.0040 ha        1 IQK      0.130000
     46 H15        -0.7060    7.0230    9.2950 ha        1 IQK      0.155500
     47 H16         0.6990    7.5430   11.3010 ha        1 IQK      0.154000
     48 H18         3.1390    5.3750   14.2780 h1        1 IQK      0.052033
     49 H18A        3.3490    4.2800   12.8130 h1        1 IQK      0.052033
     50 H18B        1.8660    4.1060   13.8840 h1        1 IQK      0.052033
     51 H19         1.5620    3.3060   11.7520 ha        1 IQK      0.154000
     52 H20         0.1690    2.8170    9.7590 ha        1 IQK      0.155500
     53 H21        -0.2180    1.9870    7.0980 ha        1 IQK      0.173000
     54 H22         1.6290    0.4920    6.5950 ha        1 IQK      0.173000
     55 H23         1.2220   -0.3660    3.9440 ha        1 IQK      0.155500
     56 H24         0.3440   -0.1120    1.6390 ha        1 IQK      0.154000
@<TRIPOS>BOND
     1    1    3 1   
     2    1   35 1   
     3    1   36 1   
     4    1   37 1   
     5    2    4 1   
     6    2   15 1   
     7    2   38 1   
     8    3    5 1   
     9    4   13 1   
    10    4   14 2   
    11    4   16 2   
    12    5    9 ar  
    13    5   34 ar  
    14    6    8 1   
    15    6   23 1   
    16    6   39 1   
    17    7   27 1   
    18    7   28 1   
    19    8   10 2   
    20    8   12 2   
    21    8   24 1   
    22    9   11 ar  
    23    9   40 1   
    24   11   13 ar  
    25   11   41 1   
    26   13   33 ar  
    27   15   17 ar  
    28   15   32 ar  
    29   17   18 ar  
    30   17   22 ar  
    31   18   19 ar  
    32   18   42 1   
    33   19   20 ar  
    34   19   43 1   
    35   20   21 ar  
    36   20   44 1   
    37   21   22 ar  
    38   21   45 1   
    39   22   23 ar  
    40   23   31 ar  
    41   24   25 ar  
    42   24   30 ar  
    43   25   26 ar  
    44   25   46 1   
    45   26   27 ar  
    46   26   47 1   
    47   27   29 ar  
    48   28   48 1   
    49   28   49 1   
    50   28   50 1   
    51   29   30 ar  
    52   29   51 1   
    53   30   52 1   
    54   31   32 ar  
    55   31   53 1   
    56   32   54 1   
    57   33   34 ar  
    58   33   55 1   
    59   34   56 1   
@<TRIPOS>SUBSTRUCTURE
     1 IQK         1 TEMP              0 ****  ****    0 ROOT
