@<TRIPOS>MOLECULE
IQK
   58    59     1     0     0
SMALL
bcc


@<TRIPOS>ATOM
      1 C1          0.8470   -2.8970   -1.7770 c3        1 IQK      0.097700
      2 N1          2.1680    2.3340    3.2180 nh        1 IQK     -0.875700
      3 O1          1.5620   -1.6530   -1.8650 os        1 IQK     -0.267400
      4 S1          3.9600    0.8130    2.7030 s4        1 IQK      1.683800
      5 C2          2.0720   -1.1260   -0.7380 ca        1 IQK      0.298100
      6 N2          1.6440    3.6580    8.7380 nh        1 IQK     -0.875700
      7 O2          1.1060    6.8780   14.3480 os        1 IQK     -0.267400
      8 S2         -0.2430    5.1100    9.0800 s4        1 IQK      1.683800
      9 C3          2.7960    0.0910   -0.9070 ca        1 IQK     -0.214750
     10 O3          0.0590    5.9560    8.0610 o         1 IQK     -0.439150
     11 C4          3.3620    0.6960    0.1820 ca        1 IQK      0.059500
     12 O4         -1.1020    4.0630    8.9390 o         1 IQK     -0.439150
     13 C5          3.2520    0.1530    1.5020 ca        1 IQK     -0.686000
     14 O5          4.7900    1.8620    2.4500 o         1 IQK     -0.439150
     15 C6          2.0640    2.6920    4.6040 ca        1 IQK      0.049100
     16 O6          3.9310    0.1600    3.8930 o         1 IQK     -0.439150
     17 C7          2.9560    3.6650    5.1780 ca        1 IQK     -0.018000
     18 C8          3.9650    4.3080    4.4060 ca        1 IQK     -0.136000
     19 C9          4.7960    5.2500    4.9620 ca        1 IQK     -0.083000
     20 C10         4.6630    5.5930    6.3260 ca        1 IQK     -0.083000
     21 C11         3.7090    4.9790    7.1000 ca        1 IQK     -0.136000
     22 C12         2.8330    3.9970    6.5570 ca        1 IQK     -0.018000
     23 C13         1.8360    3.3330    7.3530 ca        1 IQK      0.049100
     24 C14         0.1490    5.5280   10.5120 ca        1 IQK     -0.686000
     25 C15         0.9220    6.7060   10.7580 ca        1 IQK      0.059500
     26 C16         1.2290    7.1290   12.0230 ca        1 IQK     -0.214750
     27 C17         0.7650    6.3820   13.1460 ca        1 IQK      0.298100
     28 C18         0.6480    6.1930   15.5260 c3        1 IQK      0.097700
     29 C19         0.0000    5.2060   12.9390 ca        1 IQK     -0.214750
     30 C20        -0.2910    4.8030   11.6590 ca        1 IQK      0.059500
     31 C21         1.0090    2.3820    6.7700 ca        1 IQK     -0.116000
     32 C22         1.1110    2.0770    5.4030 ca        1 IQK     -0.116000
     33 C23         2.5130   -1.0600    1.6330 ca        1 IQK      0.059500
     34 C24         1.9380   -1.6890    0.5560 ca        1 IQK     -0.214750
     35 H1          0.5650   -3.0890   -2.8460 h1        1 IQK      0.081367
     36 H1A        -0.0590   -2.7730   -1.1370 h1        1 IQK      0.081367
     37 H1B         1.5190   -3.6990   -1.3890 h1        1 IQK      0.081367
     38 HN1         1.3010    1.9270    2.9020 hn        1 IQK      0.407550
     39 HN2         1.4080    2.8180    9.2480 hn        1 IQK      0.407550
     40 H3          2.8930    0.5150   -1.9220 ha        1 IQK      0.190250
     41 H4          3.9410    1.6310    0.0440 ha        1 IQK      0.171750
     42 H8          4.1160    4.0470    3.3460 ha        1 IQK      0.135500
     43 H9          5.5730    5.7420    4.3530 ha        1 IQK      0.165000
     44 H10         5.3350    6.3530    6.7580 ha        1 IQK      0.165000
     45 H11         3.6390    5.2740    8.1570 ha        1 IQK      0.135500
     46 H15         1.2670    7.3000    9.8880 ha        1 IQK      0.171750
     47 H16         1.8190    8.0440   12.2030 ha        1 IQK      0.190250
     48 H18         1.0740    5.1620   15.5600 h1        1 IQK      0.081367
     49 H18A       -0.4680    6.1790   15.5520 h1        1 IQK      0.081367
     50 H18B        1.0630    6.8300   16.3520 h1        1 IQK      0.081367
     51 H19        -0.3660    4.6240   13.8010 ha        1 IQK      0.190250
     52 H20        -0.9000    3.8900   11.5020 ha        1 IQK      0.171750
     53 H21         0.2420    1.8490    7.3600 ha        1 IQK      0.159000
     54 H22         0.4080    1.3330    4.9920 ha        1 IQK      0.159000
     55 H23         2.4160   -1.5100    2.6400 ha        1 IQK      0.171750
     56 H24         1.3830   -2.6320    0.6950 ha        1 IQK      0.190250
     57 H12         2.3570    3.1580    2.6660 hn        1 IQK      0.407550
     58 H221        2.4810    4.0480    9.1380 hn        1 IQK      0.407550
@<TRIPOS>BOND
     1    1    3 1   
     2    1   35 1   
     3    1   36 1   
     4    1   37 1   
     5    2   15 1   
     6    2   38 1   
     7    2   57 1   
     8    3    5 1   
     9    4   13 1   
    10    4   14 1   
    11    4   16 1   
    12    5    9 ar  
    13    5   34 ar  
    14    6   23 1   
    15    6   39 1   
    16    6   58 1   
    17    7   27 1   
    18    7   28 1   
    19    8   10 1   
    20    8   12 1   
    21    8   24 1   
    22    9   11 ar  
    23    9   40 1   
    24   11   13 ar  
    25   11   41 1   
    26   13   33 ar  
    27   15   17 ar  
    28   15   32 ar  
    29   17   18 ar  
    30   17   22 ar  
    31   18   19 ar  
    32   18   42 1   
    33   19   20 ar  
    34   19   43 1   
    35   20   21 ar  
    36   20   44 1   
    37   21   22 ar  
    38   21   45 1   
    39   22   23 ar  
    40   23   31 ar  
    41   24   25 ar  
    42   24   30 ar  
    43   25   26 ar  
    44   25   46 1   
    45   26   27 ar  
    46   26   47 1   
    47   27   29 ar  
    48   28   48 1   
    49   28   49 1   
    50   28   50 1   
    51   29   30 ar  
    52   29   51 1   
    53   30   52 1   
    54   31   32 ar  
    55   31   53 1   
    56   32   54 1   
    57   33   34 ar  
    58   33   55 1   
    59   34   56 1   
@<TRIPOS>SUBSTRUCTURE
     1 IQK         1 TEMP              0 ****  ****    0 ROOT
