@<TRIPOS>MOLECULE
IQO
   71    78     1     0     0
SMALL
bcc


@<TRIPOS>ATOM
      1 C4         -7.3740   -0.0030    0.3010 ca        1 IQO     -0.010400
      2 C6         -8.9820   -1.3640    1.5870 ca        1 IQO     -0.130000
      3 C7         -9.2420   -0.2240    2.3550 ca        1 IQO     -0.126000
      4 C8         -8.5960    0.9850    2.1050 ca        1 IQO     -0.131000
      5 C13        -5.3480    0.6290   -1.0490 c3        1 IQO      0.114700
      6 C15        -3.8340    1.7220   -2.7230 c3        1 IQO      0.170800
      7 C17        -0.2250    1.7370   -1.6480 ca        1 IQO     -0.076300
      8 C20         2.2780    0.8910   -0.7180 cp        1 IQO     -0.149500
      9 C21         1.4670    0.0160   -1.4510 ca        1 IQO     -0.100000
     10 C22         0.2230    0.4390   -1.9150 ca        1 IQO     -0.124500
     11 C24         3.7440   -0.7540    0.5680 cq        1 IQO      0.365500
     12 C28         7.0650    1.4920   -0.5590 ca        1 IQO     -0.183300
     13 C1         -6.5930   -1.5730   -1.1790 c         1 IQO      0.773500
     14 N2         -7.6200   -2.1940   -0.4000 n         1 IQO     -0.441100
     15 C3         -8.0520   -1.2590    0.5600 ca        1 IQO     -0.006400
     16 N5         -6.5330   -0.1770   -0.8280 n         1 IQO     -0.328000
     17 C9         -7.6550    1.1150    1.0780 ca        1 IQO     -0.122000
     18 O10        -5.9470   -2.1450   -2.0730 o         1 IQO     -0.618500
     19 C11        -2.9250    1.0700   -0.5700 c3        1 IQO      0.170800
     20 C12        -4.0890    0.1110   -0.3360 c3        1 IQO     -0.098400
     21 C14        -5.0220    0.7820   -2.5430 c3        1 IQO     -0.098400
     22 C18         0.5870    2.6100   -0.9170 ca        1 IQO     -0.124500
     23 C19         1.8360    2.1940   -0.4600 ca        1 IQO     -0.100000
     24 N23         4.9280   -1.1930    0.9660 nb        1 IQO     -0.612000
     25 C25         3.6100    0.4570   -0.2550 cp        1 IQO      0.385500
     26 N26         4.6690    1.1720   -0.6050 nb        1 IQO     -0.632000
     27 C27         5.9190    0.7370   -0.1900 ca        1 IQO      0.308300
     28 C29         8.2950    1.0290   -0.1440 ca        1 IQO     -0.046200
     29 C30         8.4420   -0.1970    0.6540 ca        1 IQO      0.076400
     30 C31         7.3310   -0.9290    1.0150 ca        1 IQO     -0.098300
     31 C32         6.0520   -0.4680    0.5970 ca        1 IQO      0.265300
     32 C33        10.4560    0.6100    0.3310 cc        1 IQO      0.450700
     33 N34         9.5970    1.5160   -0.3260 na        1 IQO     -0.315300
     34 N35         9.8210   -0.4070    0.9200 nd        1 IQO     -0.569100
     35 C36         2.5390   -1.5010    0.9810 cq        1 IQO     -0.143500
     36 C37         2.2750   -2.7600    0.4280 ca        1 IQO     -0.101500
     37 C38         1.1480   -3.4740    0.8350 ca        1 IQO     -0.132500
     38 C39         0.2910   -2.9410    1.7970 ca        1 IQO     -0.120000
     39 C40         0.5610   -1.6920    2.3570 ca        1 IQO     -0.132500
     40 C41         1.6840   -0.9710    1.9540 ca        1 IQO     -0.101500
     41 N42        -2.6510    1.3090   -1.9790 n3        1 IQO     -0.729600
     42 H6         -9.5030   -2.3090    1.7900 ha        1 IQO      0.143000
     43 H7         -9.9780   -0.2880    3.1710 ha        1 IQO      0.136000
     44 H8         -8.8290    1.8630    2.7260 ha        1 IQO      0.136000
     45 H13        -5.5920    1.6550   -0.6340 h1        1 IQO      0.059700
     46 H15        -3.5600    1.7370   -3.8160 h1        1 IQO      0.034700
     47 H15A       -4.1560    2.7690   -2.4380 h1        1 IQO      0.034700
     48 H21         1.8110   -1.0100   -1.6540 ha        1 IQO      0.142000
     49 H22        -0.4110   -0.2520   -2.4910 ha        1 IQO      0.142500
     50 HN2        -7.6470   -3.1720   -0.2610 hn        1 IQO      0.341500
     51 H9         -7.1610    2.0790    0.8940 ha        1 IQO      0.142000
     52 H11        -3.1420    2.0350   -0.0210 h1        1 IQO      0.034700
     53 H11A       -1.9930    0.6230   -0.1200 h1        1 IQO      0.034700
     54 H12        -4.2640    0.0340    0.7680 hc        1 IQO      0.067700
     55 H12A       -3.8330   -0.9100   -0.7230 hc        1 IQO      0.067700
     56 H14        -4.7960   -0.2260   -2.9830 hc        1 IQO      0.067700
     57 H14A       -5.8990    1.2120   -3.0910 hc        1 IQO      0.067700
     58 H18         0.2460    3.6340   -0.7040 ha        1 IQO      0.142500
     59 H19         2.4770    2.8920    0.0990 ha        1 IQO      0.142000
     60 H31         7.4230   -1.8490    1.6140 ha        1 IQO      0.171000
     61 H33        11.5430    0.7620    0.3390 h5        1 IQO      0.070800
     62 HN34        9.8520    2.3190   -0.8330 hn        1 IQO      0.310700
     63 H37         2.9600   -3.1850   -0.3200 ha        1 IQO      0.139000
     64 H38         0.9400   -4.4610    0.3970 ha        1 IQO      0.133500
     65 H39        -0.5960   -3.5080    2.1170 ha        1 IQO      0.132000
     66 H40        -0.1100   -1.2750    3.1220 ha        1 IQO      0.133500
     67 H41         1.8990    0.0110    2.4000 ha        1 IQO      0.139000
     68 C16        -1.5370    2.2250   -2.1890 c3        1 IQO      0.215100
     69 H28         6.9560    2.4080   -1.1570 ha        1 IQO      0.157000
     70 H16        -1.7580    3.2470   -1.7530 h1        1 IQO      0.040700
     71 H16A       -1.4160    2.3560   -3.3050 h1        1 IQO      0.040700
@<TRIPOS>BOND
     1    1   15 ar  
     2    1   16 1   
     3    1   17 ar  
     4    2    3 ar  
     5    2   15 ar  
     6    2   42 1   
     7    3    4 ar  
     8    3   43 1   
     9    4   17 ar  
    10    4   44 1   
    11    5   16 1   
    12    5   20 1   
    13    5   21 1   
    14    5   45 1   
    15    6   21 1   
    16    6   41 1   
    17    6   46 1   
    18    6   47 1   
    19    7   10 ar  
    20    7   22 ar  
    21    7   68 1   
    22    8    9 ar  
    23    8   23 ar  
    24    8   25 1   
    25    9   10 ar  
    26    9   48 1   
    27   10   49 1   
    28   11   24 1   
    29   11   25 2   
    30   11   35 1   
    31   12   27 ar  
    32   12   28 ar  
    33   12   69 1   
    34   13   14 1   
    35   13   16 1   
    36   13   18 2   
    37   14   15 1   
    38   14   50 1   
    39   17   51 1   
    40   19   20 1   
    41   19   41 1   
    42   19   52 1   
    43   19   53 1   
    44   20   54 1   
    45   20   55 1   
    46   21   56 1   
    47   21   57 1   
    48   22   23 ar  
    49   22   58 1   
    50   23   59 1   
    51   24   31 ar  
    52   25   26 ar  
    53   26   27 ar  
    54   27   31 ar  
    55   28   29 ar  
    56   28   33 1   
    57   29   30 ar  
    58   29   34 1   
    59   30   31 ar  
    60   30   60 1   
    61   32   33 1   
    62   32   34 2   
    63   32   61 1   
    64   33   62 1   
    65   35   36 1   
    66   35   40 2   
    67   36   37 ar  
    68   36   63 1   
    69   37   38 ar  
    70   37   64 1   
    71   38   39 ar  
    72   38   65 1   
    73   39   40 ar  
    74   39   66 1   
    75   40   67 1   
    76   41   68 1   
    77   68   70 1   
    78   68   71 1   
@<TRIPOS>SUBSTRUCTURE
     1 IQO         1 TEMP              0 ****  ****    0 ROOT
