@<TRIPOS>MOLECULE
IQO
   71    94     1     0     0
SMALL
bcc


@<TRIPOS>ATOM
      1 C4          0.0000    0.0000    0.0000 c2        1 IQO      0.248000
      2 C6          2.0860    0.0000    1.2020 c3        1 IQO     -0.066000
      3 C7          1.3900   -0.0000    2.3960 c3        1 IQO     -0.129000
      4 C8          0.0050    0.0080    2.3950 c2        1 IQO     -0.302000
      5 C13        -1.7880    0.0020   -1.8110 DU        1 IQO     -0.153000
      6 C15        -3.4640   -1.2050   -3.2130 c3        1 IQO     -0.271000
      7 C17        -5.0280    1.1350   -5.6720 c3        1 IQO     -0.153000
      8 C20        -5.1320    3.2040   -7.5100 c2        1 IQO     -0.013000
      9 C21        -4.6900    1.9400   -7.9020 c3        1 IQO      0.022000
     10 C22        -4.6360    0.9150   -6.9800 c2        1 IQO     -0.249000
     11 C24        -4.0740    4.5300   -9.4060 c2        1 IQO     -0.064000
     12 C28        -7.4310    6.9290   -9.4990 c2        1 IQO     -0.039000
     13 C1          0.6980    0.0020   -2.1090 c2        1 IQO      0.313000
     14 N2          1.7990    0.0020   -1.3340 ns        1 IQO     -0.314000
     15 C3          1.3950    0.0000    0.0000 c2        1 IQO      0.035000
     16 N5         -0.4030    0.0010   -1.3330 n         1 IQO      0.036000
     17 C9         -0.6910    0.0040    1.2020 c2        1 IQO     -0.070000
     18 O10         0.6980    0.0040   -3.3260 o         1 IQO     -0.388000
     19 C11        -3.4660    1.2180   -3.2050 DU        1 IQO     -0.082000
     20 C12        -2.0360    1.2530   -2.6600 DU        1 IQO     -0.390000
     21 C14        -2.0340   -1.2430   -2.6680 DU        1 IQO     -0.442000
     22 C18        -5.4730    2.3840   -5.2790 c3        1 IQO     -0.413000
     23 C19        -5.5270    3.4190   -6.1900 c2        1 IQO     -0.237000
     24 N23        -4.1170    5.5110  -10.2880 n2        1 IQO      0.019000
     25 C25        -5.1930    4.3100   -8.4930 c2        1 IQO      0.055000
     26 N26        -6.2570    5.0890   -8.5400 n2        1 IQO      0.045000
     27 C27        -6.3130    6.0860   -9.4300 c2        1 IQO     -0.143000
     28 C29        -7.4630    7.9490  -10.4220 c2        1 IQO     -0.064000
     29 C30        -6.3840    8.1680  -11.3090 c3        1 IQO     -0.237000
     30 C31        -5.2590    7.3550  -11.2720 c2        1 IQO     -0.043000
     31 C32        -5.1900    6.3090  -10.3450 c2        1 IQO      0.071000
     32 C33        -7.8970    9.6710  -11.7420 c3        1 IQO     -0.041000
     33 N34        -8.4030    8.9200  -10.7260 n7        1 IQO     -0.293000
     34 N35        -6.7210    9.2350  -12.0840 n2        1 IQO     -0.129000
     35 C36        -2.8890    3.6440   -9.3470 c3        1 IQO     -0.094000
     36 C37        -2.3290    3.1450  -10.5220 c3        1 IQO     -0.286000
     37 C38        -1.2240    2.3200  -10.4600 c3        1 IQO     -0.120000
     38 C39        -0.6740    1.9880   -9.2360 c3        1 IQO     -0.196000
     39 C40        -1.2250    2.4800   -8.0670 c3        1 IQO     -0.268000
     40 C41        -2.3260    3.3100   -8.1150 c2        1 IQO     -0.378000
     41 N42        -3.6510    0.0090   -4.0180 n3        1 IQO     -0.108000
     42 H6          1.2510   -0.0050    0.5130 hc        1 IQO      0.097000
     43 H7          2.2910   -0.0030    1.7950 DU        1 IQO      0.144000
     44 H8          0.9780    0.0060    2.8720 DU        1 IQO      0.207000
     45 H13        -1.5320    0.0040   -0.7580 ha        1 IQO      0.190000
     46 H15        -3.0710   -0.7290   -2.3230 DU        1 IQO      0.213000
     47 H15A       -3.6360   -2.0770   -3.8320 h1        1 IQO      0.175000
     48 H21        -4.6010    1.4070   -6.9630 hc        1 IQO      0.189000
     49 H22        -4.5070    1.3460   -7.9660 DU        1 IQO      0.131000
     50 HN2         1.0930   -0.0080   -2.0430 hn        1 IQO      0.354000
     51 H9          0.1420    0.0040    0.5090 ha        1 IQO     -0.297000
     52 H11        -3.0910    0.9500   -2.2250 DU        1 IQO      0.177000
     53 H11A       -4.1660    1.2060   -2.3790 ha        1 IQO      0.066000
     54 H12        -2.8430    1.6780   -3.2440 DU        1 IQO      0.177000
     55 H12A       -1.9060    2.1370   -2.0460 ha        1 IQO      0.103000
     56 H14        -1.7560   -0.2480   -2.9930 DU        1 IQO      0.218000
     57 H14A       -1.3340   -1.2570   -3.4940 ha        1 IQO      0.185000
     58 H18        -4.8870    1.6420   -4.7500 DU        1 IQO      0.379000
     59 H19        -5.6550    2.9800   -5.2080 DU        1 IQO      0.304000
     60 H31        -5.3670    6.8370  -10.3260 ha        1 IQO      0.088000
     61 H33        -6.9890    9.0850  -11.8170 DU        1 IQO      0.359000
     62 HN34       -8.4040    9.6540  -11.4060 DU        1 IQO      0.236000
     63 H37        -3.1550    3.8450  -10.4930 DU        1 IQO      0.434000
     64 H38        -2.0010    2.8680  -10.9790 DU        1 IQO      0.248000
     65 H39        -0.7300    1.9580  -10.3170 DU        1 IQO      0.214000
     66 H40        -0.5070    1.9020   -8.6350 DU        1 IQO      0.202000
     67 H41        -1.5470    2.7570   -7.6050 DU        1 IQO      0.236000
     68 C16        -4.9660    0.0100   -4.6710 c3        1 IQO     -0.025000
     69 H28        -8.2290    6.8300   -8.7730 ha        1 IQO      0.152000
     70 H16        -4.9760   -1.0420   -4.9280 h1        1 IQO      0.088000
     71 H16A       -5.4980    0.1170   -3.7340 h1        1 IQO      0.088000
@<TRIPOS>BOND
     1    1   15 1   
     2    1   16 1   
     3    1   17 1   
     4    2    3 1   
     5    2   15 1   
     6    2   42 1   
     7    2   43 1   
     8    3    4 1   
     9    3   43 1   
    10    3   44 1   
    11    4   17 1   
    12    4   44 1   
    13    5   16 1   
    14    5   20 1   
    15    5   21 1   
    16    5   45 1   
    17    5   56 1   
    18    6   21 1   
    19    6   41 1   
    20    6   46 1   
    21    6   47 1   
    22    7   10 1   
    23    7   22 1   
    24    7   58 1   
    25    7   68 1   
    26    8    9 1   
    27    8   23 1   
    28    8   25 1   
    29    9   10 1   
    30    9   48 1   
    31    9   49 1   
    32   10   49 1   
    33   11   24 1   
    34   11   25 1   
    35   11   35 1   
    36   12   27 1   
    37   12   28 1   
    38   12   69 1   
    39   13   14 1   
    40   13   16 1   
    41   13   18 1   
    42   14   15 1   
    43   14   50 1   
    44   17   51 1   
    45   19   20 1   
    46   19   41 1   
    47   19   52 1   
    48   19   53 1   
    49   19   54 1   
    50   20   52 1   
    51   20   54 1   
    52   20   55 1   
    53   21   46 1   
    54   21   56 1   
    55   21   57 1   
    56   22   23 1   
    57   22   58 1   
    58   22   59 1   
    59   23   59 1   
    60   24   31 1   
    61   25   26 1   
    62   26   27 1   
    63   27   31 1   
    64   28   29 1   
    65   28   33 1   
    66   29   30 1   
    67   29   34 1   
    68   29   61 1   
    69   30   31 1   
    70   30   60 1   
    71   32   33 1   
    72   32   34 1   
    73   32   61 1   
    74   32   62 1   
    75   33   62 1   
    76   35   36 1   
    77   35   40 1   
    78   35   63 1   
    79   36   37 1   
    80   36   63 1   
    81   36   64 1   
    82   37   38 1   
    83   37   64 1   
    84   37   65 1   
    85   38   39 1   
    86   38   65 1   
    87   38   66 1   
    88   39   40 1   
    89   39   66 1   
    90   39   67 1   
    91   40   67 1   
    92   41   68 1   
    93   68   70 1   
    94   68   71 1   
@<TRIPOS>SUBSTRUCTURE
     1 IQO         1 TEMP              0 ****  ****    0 ROOT
