@<TRIPOS>MOLECULE
IQO
   71    78     1     0     0
SMALL
bcc


@<TRIPOS>ATOM
      1 C4          0.2000   -0.7370   -0.4490 ca        1 IQO     -0.010400
      2 C6          2.5590   -0.7900    0.2780 ca        1 IQO     -0.130000
      3 C7          2.1680   -0.0460    1.3960 ca        1 IQO     -0.126000
      4 C8          0.8440    0.3380    1.5890 ca        1 IQO     -0.131000
      5 C13        -1.8190   -0.6750   -1.9480 c3        1 IQO      0.114700
      6 C15        -4.1140   -1.0480   -2.8860 c3        1 IQO      0.171300
      7 C17        -5.2200    1.7090   -5.2000 ca        1 IQO     -0.076300
      8 C20        -5.2480    3.5920   -7.2740 cp        1 IQO     -0.149500
      9 C21        -4.5660    2.3800   -7.4330 ca        1 IQO     -0.100000
     10 C22        -4.5550    1.4430   -6.4020 ca        1 IQO     -0.124500
     11 C24        -4.0380    5.0660   -8.9690 cq        1 IQO      0.365500
     12 C28        -7.7560    6.3180  -10.3700 ca        1 IQO     -0.183300
     13 C1          0.3490   -1.8960   -2.4240 c         1 IQO      0.773500
     14 N2          1.6470   -1.9120   -1.8200 n         1 IQO     -0.441100
     15 C3          1.5800   -1.1400   -0.6440 ca        1 IQO     -0.006400
     16 N5         -0.5750   -1.2760   -1.5080 n         1 IQO     -0.328000
     17 C9         -0.1590    0.0000    0.6730 ca        1 IQO     -0.122000
     18 O10         0.0750   -2.4250   -3.5140 o         1 IQO     -0.618500
     19 C11        -3.0040    1.0670   -3.3080 c3        1 IQO      0.171300
     20 C12        -1.6470    0.4560   -2.9740 c3        1 IQO     -0.098400
     21 C14        -2.7850   -1.7140   -2.5390 c3        1 IQO     -0.098400
     22 C18        -5.9020    2.9210   -5.0440 ca        1 IQO     -0.124500
     23 C19        -5.9240    3.8550   -6.0770 ca        1 IQO     -0.100000
     24 N23        -4.0420    5.9130   -9.9860 nb        1 IQO     -0.612000
     25 C25        -5.2900    4.5710   -8.3770 cp        1 IQO      0.385500
     26 N26        -6.4700    4.9770   -8.8220 nb        1 IQO     -0.632000
     27 C27        -6.4970    5.8740   -9.8800 ca        1 IQO      0.308300
     28 C29        -7.7530    7.1980  -11.4300 ca        1 IQO     -0.046200
     29 C30        -6.5080    7.6750  -12.0480 ca        1 IQO      0.076400
     30 C31        -5.2860    7.2480  -11.5730 ca        1 IQO     -0.098300
     31 C32        -5.2670    6.3400  -10.4780 ca        1 IQO      0.265300
     32 C33        -8.1680    8.6160  -13.1290 cc        1 IQO      0.450700
     33 N34        -8.7870    7.8200  -12.1430 na        1 IQO     -0.315300
     34 N35        -6.8340    8.5620  -13.1080 nd        1 IQO     -0.569100
     35 C36        -2.7400    4.6300   -8.4180 cq        1 IQO     -0.143500
     36 C37        -1.9220    3.7680   -9.1580 ca        1 IQO     -0.101500
     37 C38        -0.6870    3.3730   -8.6460 ca        1 IQO     -0.132500
     38 C39        -0.2600    3.8440   -7.4050 ca        1 IQO     -0.120000
     39 C40        -1.0690    4.7130   -6.6730 ca        1 IQO     -0.132500
     40 C41        -2.3070    5.1100   -7.1770 ca        1 IQO     -0.101500
     41 N42        -3.9730    0.0910   -3.7840 n3        1 IQO     -0.729600
     42 H6          3.6060   -1.0930    0.1410 ha        1 IQO      0.143000
     43 H7          2.9300    0.2380    2.1380 ha        1 IQO      0.136000
     44 H8          0.5720    0.9210    2.4820 ha        1 IQO      0.136000
     45 H13        -2.2960   -0.2390   -1.0170 h1        1 IQO      0.059700
     46 H15        -4.6330   -0.7550   -1.9250 h1        1 IQO      0.034700
     47 H15A       -4.7630   -1.8100   -3.4050 h1        1 IQO      0.034700
     48 H21        -4.0320    2.1700   -8.3730 ha        1 IQO      0.142000
     49 H22        -4.0180    0.4910   -6.5310 ha        1 IQO      0.142500
     50 HN2         2.4690   -2.0200   -2.3580 hn        1 IQO      0.341500
     51 H9         -1.1990    0.3090    0.8470 ha        1 IQO      0.142000
     52 H11        -2.8650    1.8270   -4.1300 h1        1 IQO      0.034700
     53 H11A       -3.3840    1.6160   -2.3950 h1        1 IQO      0.034700
     54 H12        -1.1660    0.0490   -3.9020 hc        1 IQO      0.067700
     55 H12A       -0.9890    1.2640   -2.5630 hc        1 IQO      0.067700
     56 H14        -2.3270   -2.1760   -3.4530 hc        1 IQO      0.067700
     57 H14A       -2.9830   -2.5300   -1.7980 hc        1 IQO      0.067700
     58 H18        -6.4310    3.1390   -4.1040 ha        1 IQO      0.142500
     59 H19        -6.4780    4.7980   -5.9530 ha        1 IQO      0.142000
     60 H31        -4.3430    7.5970  -12.0230 ha        1 IQO      0.171000
     61 H33        -8.7630    9.2150  -13.8320 h5        1 IQO      0.070800
     62 HN34       -9.7510    7.7020  -11.9910 hn        1 IQO      0.310700
     63 H37        -2.2530    3.4090  -10.1440 ha        1 IQO      0.139000
     64 H38        -0.0470    2.6920   -9.2270 ha        1 IQO      0.133500
     65 H39         0.7160    3.5330   -7.0040 ha        1 IQO      0.132000
     66 H40        -0.7300    5.0920   -5.6970 ha        1 IQO      0.133500
     67 H41        -2.9420    5.8000   -6.6010 ha        1 IQO      0.139000
     68 C16        -5.2650    0.6870   -4.1010 c3        1 IQO      0.215100
     69 H28        -8.6870    5.9590   -9.9090 ha        1 IQO      0.157000
     70 H16        -5.7380    1.1530   -3.1850 h1        1 IQO      0.040700
     71 H16A       -5.9450   -0.1480   -4.4430 h1        1 IQO      0.040700
@<TRIPOS>BOND
     1    1   15 ar  
     2    1   16 1   
     3    1   17 ar  
     4    2    3 ar  
     5    2   15 ar  
     6    2   42 1   
     7    3    4 ar  
     8    3   43 1   
     9    4   17 ar  
    10    4   44 1   
    11    5   16 1   
    12    5   20 1   
    13    5   21 1   
    14    5   45 1   
    15    6   21 1   
    16    6   41 1   
    17    6   46 1   
    18    6   47 1   
    19    7   10 ar  
    20    7   22 ar  
    21    7   68 1   
    22    8    9 ar  
    23    8   23 ar  
    24    8   25 1   
    25    9   10 ar  
    26    9   48 1   
    27   10   49 1   
    28   11   24 1   
    29   11   25 2   
    30   11   35 1   
    31   12   27 ar  
    32   12   28 ar  
    33   12   69 1   
    34   13   14 1   
    35   13   16 1   
    36   13   18 2   
    37   14   15 1   
    38   14   50 1   
    39   17   51 1   
    40   19   20 1   
    41   19   41 1   
    42   19   52 1   
    43   19   53 1   
    44   20   54 1   
    45   20   55 1   
    46   21   56 1   
    47   21   57 1   
    48   22   23 ar  
    49   22   58 1   
    50   23   59 1   
    51   24   31 ar  
    52   25   26 ar  
    53   26   27 ar  
    54   27   31 ar  
    55   28   29 ar  
    56   28   33 1   
    57   29   30 ar  
    58   29   34 1   
    59   30   31 ar  
    60   30   60 1   
    61   32   33 1   
    62   32   34 2   
    63   32   61 1   
    64   33   62 1   
    65   35   36 1   
    66   35   40 2   
    67   36   37 ar  
    68   36   63 1   
    69   37   38 ar  
    70   37   64 1   
    71   38   39 ar  
    72   38   65 1   
    73   39   40 ar  
    74   39   66 1   
    75   40   67 1   
    76   41   68 1   
    77   68   70 1   
    78   68   71 1   
@<TRIPOS>SUBSTRUCTURE
     1 IQO         1 TEMP              0 ****  ****    0 ROOT
