@<TRIPOS>MOLECULE
IQO
   71    57     1     0     0
SMALL
bcc


@<TRIPOS>ATOM
      1 C4         -1.0070   -4.3350    5.8640 c1        1 IQO     -0.001000
      2 C6         -2.2630   -5.0010    7.8200 c1        1 IQO     -0.130000
      3 C7         -1.3430   -6.0130    8.0720 c1        1 IQO     -0.120875
      4 C8         -0.2510   -6.1910    7.2220 c1        1 IQO     -0.120875
      5 C13        -0.1970   -3.1290    3.9050 c3        1 IQO      0.047000
      6 C15         1.3440   -1.3970    2.7840 c3        1 IQO     -0.069000
      7 C17         1.5060   -0.8960   -0.1480 c1        1 IQO     -0.107000
      8 C20         0.8810    1.1510   -1.9320 c1        1 IQO     -0.035750
      9 C21         0.8870   -0.1640   -2.3640 c1        1 IQO     -0.120875
     10 C22         1.2000   -1.1910   -1.4730 c1        1 IQO     -0.120875
     11 C24        -0.4450    2.7430   -3.3610 c1        1 IQO      0.006000
     12 C28         3.1670    3.7190   -5.1320 c1        1 IQO     -0.089250
     13 C1         -2.1880   -2.5020    5.1070 c1        1 IQO      0.369000
     14 N2         -2.8400   -3.0140    6.2470 n2        1 IQO     -0.297000
     15 C3         -2.0940   -4.1590    6.7110 c1        1 IQO      0.001000
     16 N5         -1.0670   -3.3160    4.8420 n3        1 IQO     -0.236000
     17 C9         -0.0820   -5.3530    6.1190 c1        1 IQO     -0.121000
     18 O10        -2.5350   -1.5350    4.4610 o         1 IQO     -0.360000
     19 C11         0.1460   -2.8210    1.3730 c3        1 IQO     -0.069000
     20 C12        -0.8640   -3.0810    2.4860 c3        1 IQO     -0.178000
     21 C14         0.3520   -1.6420    3.8950 c3        1 IQO     -0.178000
     22 C16         2.1390   -1.9850    0.7490 c3        1 IQO     -0.031000
     23 C18         1.4980    0.4230    0.2830 c1        1 IQO     -0.125000
     24 C19         1.1860    1.4470   -0.6070 c1        1 IQO     -0.089250
     25 N23        -0.4210    3.5890   -4.4090 n1        1 IQO     -0.097000
     26 C25         0.7410    2.2020   -2.8750 c1        1 IQO      0.006000
     27 N26         1.9140    2.5240   -3.4520 n1        1 IQO     -0.097000
     28 C27         1.9390    3.3850   -4.5190 c1        1 IQO     -0.041500
     29 C29         3.1890    4.6010   -6.2360 c1        1 IQO     -0.035750
     30 C30         2.0190    5.1320   -6.7120 c1        1 IQO     -0.035750
     31 C31         0.7930    4.7990   -6.1010 c1        1 IQO     -0.089250
     32 C32         0.7690    3.9170   -4.9970 c1        1 IQO     -0.041500
     33 C33         3.6730    5.8970   -7.9480 c1        1 IQO     -0.006000
     34 N34         4.2050    5.0750   -7.0000 n1        1 IQO     -0.207500
     35 N35         2.3210    5.9300   -7.7670 n1        1 IQO     -0.207500
     36 C36        -1.8150    2.9610   -3.3010 c1        1 IQO     -0.035750
     37 C37        -2.6820    2.0690   -3.9080 c1        1 IQO     -0.120875
     38 C38        -4.0540    2.2240   -3.7610 c1        1 IQO     -0.120875
     39 C39        -4.5560    3.2700   -3.0070 c1        1 IQO     -0.120875
     40 C40        -3.6870    4.1660   -2.3970 c1        1 IQO     -0.120875
     41 C41        -2.3180    4.0120   -2.5440 c1        1 IQO     -0.089250
     42 N42         1.2360   -2.3040    1.8420 n3        1 IQO     -0.255000
     43 H6         -3.0300   -4.8760    8.4180 ha        1 IQO      0.143000
     44 H7         -1.4610   -6.6000    8.8460 ha        1 IQO      0.139375
     45 H8          0.3930   -6.9000    7.3990 ha        1 IQO      0.139375
     46 H13         0.5250   -3.7770    3.9410 h1        1 IQO      0.107000
     47 H15         1.1810   -0.5140    2.3980 h1        1 IQO      0.080500
     48 H15A        2.2540   -1.4240    3.1530 h1        1 IQO      0.080500
     49 H21         0.6740   -0.3720   -3.2910 ha        1 IQO      0.139375
     50 H22         1.2040   -2.1160   -1.7780 ha        1 IQO      0.139375
     51 H28         4.0010    3.3440   -4.7910 ha        1 IQO      0.151750
     52 HN2        -3.5970   -2.6720    6.6340 hn        1 IQO      0.257000
     53 H9          0.6750   -5.4770    5.5300 ha        1 IQO      0.144000
     54 H11         0.3580   -3.6680    0.9280 h1        1 IQO      0.080500
     55 H11A       -0.2460   -2.2080    0.7210 h1        1 IQO      0.080500
     56 H12        -1.3050   -3.9320    2.3170 hc        1 IQO      0.101000
     57 H12A       -1.5350   -2.3700    2.4760 hc        1 IQO      0.101000
     58 H14        -0.4050   -1.0250    3.7850 hc        1 IQO      0.101000
     59 H14A        0.7870   -1.4590    4.7520 hc        1 IQO      0.101000
     60 H16         2.3040   -2.7910    0.2160 h1        1 IQO      0.098500
     61 H16A        2.9810   -1.6570    1.1100 h1        1 IQO      0.098500
     62 H18         1.7110    0.6320    1.2060 ha        1 IQO      0.134000
     63 H19         1.1820    2.3680   -0.3030 ha        1 IQO      0.151750
     64 H31        -0.0500    5.1760   -6.4490 ha        1 IQO      0.151750
     65 H33         4.1740    6.3800   -8.6390 DU        1 IQO      0.230000
     66 HN34        5.0890    4.8780   -6.8970 DU        1 IQO      0.230000
     67 H37        -2.3280    1.3280   -4.4430 ha        1 IQO      0.139375
     68 H38        -4.6640    1.5950   -4.1890 ha        1 IQO      0.139375
     69 H39        -5.5190    3.3790   -2.9040 ha        1 IQO      0.139375
     70 H40        -4.0420    4.9050   -1.8640 ha        1 IQO      0.139375
     71 H41        -1.7070    4.6410   -2.1160 ha        1 IQO      0.151750
@<TRIPOS>BOND
     1    1   16 1   
     2    1   17 1   
     3    2   15 1   
     4    2   43 1   
     5    3    4 1   
     6    3   44 1   
     7    4   45 1   
     8    5   16 1   
     9    5   20 1   
    10    5   21 1   
    11    5   46 1   
    12    6   21 1   
    13    6   42 1   
    14    6   47 1   
    15    6   48 1   
    16    7   22 1   
    17    7   23 1   
    18    8   24 1   
    19    9   10 1   
    20    9   49 1   
    21   10   50 1   
    22   11   26 1   
    23   12   29 1   
    24   12   51 1   
    25   13   16 1   
    26   13   18 1   
    27   14   15 1   
    28   14   52 1   
    29   17   53 1   
    30   19   20 1   
    31   19   42 1   
    32   19   54 1   
    33   19   55 1   
    34   20   56 1   
    35   20   57 1   
    36   21   58 1   
    37   21   59 1   
    38   22   42 1   
    39   22   60 1   
    40   22   61 1   
    41   23   62 1   
    42   24   63 1   
    43   25   32 1   
    44   27   28 1   
    45   28   32 1   
    46   30   31 1   
    47   31   64 1   
    48   33   34 1   
    49   33   35 1   
    50   36   41 1   
    51   37   38 1   
    52   37   67 1   
    53   38   68 1   
    54   39   40 1   
    55   39   69 1   
    56   40   70 1   
    57   41   71 1   
@<TRIPOS>SUBSTRUCTURE
     1 IQO         1 TEMP              0 ****  ****    0 ROOT
