@<TRIPOS>MOLECULE
IQP
   37    39     1     0     0
SMALL
bcc


@<TRIPOS>ATOM
      1 C1         -0.8090    0.4110    0.8630 ca        1 IQP     -0.360500
      2 C2         -2.0890    0.0540    1.2510 ca        1 IQP      0.011000
      3 C3         -2.3530   -0.5860    2.4800 ca        1 IQP     -0.171000
      4 C4         -1.3170   -0.8780    3.3360 ca        1 IQP     -0.033000
      5 C5          0.0060   -0.5130    2.9910 ca        1 IQP     -0.191300
      6 C6          1.1120   -0.7850    3.8660 ca        1 IQP      0.433200
      7 N7          2.3620   -0.4400    3.6060 nb        1 IQP     -0.665000
      8 C8          2.5980    0.2240    2.4310 ca        1 IQP      0.407200
      9 C9          1.6160    0.5330    1.5060 ca        1 IQP     -0.256300
     10 C10         0.2670    0.1500    1.7610 ca        1 IQP      0.088000
     11 S          -0.6190    1.1820   -0.6460 sy        1 IQP      1.503200
     12 O1          0.2080    2.3180   -0.4890 o         1 IQP     -0.653800
     13 O2         -1.9140    1.4470   -1.1450 o         1 IQP     -0.653800
     14 N1'         0.1510    0.0830   -1.5670 n3        1 IQP     -0.815500
     15 C2'        -0.4070   -1.1410   -2.1200 c3        1 IQP      0.249500
     16 CM2        -1.9010   -1.3390   -1.8860 c3        1 IQP     -0.132100
     17 C3'        -0.1660   -1.2450   -3.6550 c3        1 IQP      0.148800
     18 N4'         1.2180   -1.0420   -4.0250 n3        1 IQP     -0.819200
     19 C5'         1.7970    0.1540   -3.4500 c3        1 IQP      0.150800
     20 C6'         1.5380    0.2680   -1.9330 c3        1 IQP      0.209800
     21 H2         -2.9440    0.2790    0.5830 ha        1 IQP      0.167000
     22 H3         -3.3900   -0.8460    2.7390 ha        1 IQP      0.146000
     23 H4         -1.4990   -1.3880    4.2950 ha        1 IQP      0.141000
     24 H6          0.9280   -1.3110    4.8210 h4        1 IQP      0.024100
     25 H8          3.6530    0.5100    2.2660 h4        1 IQP      0.028100
     26 H9          1.8700    1.1000    0.5980 ha        1 IQP      0.162000
     27 H2'         0.1410   -2.0060   -1.6310 h1        1 IQP      0.056700
     28 HM21       -2.2080   -2.3020   -2.3620 hc        1 IQP      0.057033
     29 HM22       -2.1300   -1.4000   -0.7950 hc        1 IQP      0.057033
     30 HM23       -2.5040   -0.5100   -2.3340 hc        1 IQP      0.057033
     31 H3'1       -0.4500   -2.2880   -3.9720 h1        1 IQP      0.039200
     32 H3'2       -0.8630   -0.5220   -4.1710 h1        1 IQP      0.039200
     33 HN4         1.3080   -1.0240   -5.0240 hn        1 IQP      0.367800
     34 H5'1        2.9110    0.1030   -3.6060 h1        1 IQP      0.039700
     35 H5'2        1.4210    1.0960   -3.9480 h1        1 IQP      0.039700
     36 H6'1        2.1640   -0.5060   -1.4010 h1        1 IQP      0.064700
     37 H6'2        1.8850    1.2920   -1.6080 h1        1 IQP      0.064700
@<TRIPOS>BOND
     1    1    2 ar  
     2    1   10 ar  
     3    1   11 1   
     4    2    3 ar  
     5    2   21 1   
     6    3    4 ar  
     7    3   22 1   
     8    4    5 ar  
     9    4   23 1   
    10    5    6 ar  
    11    5   10 ar  
    12    6    7 ar  
    13    6   24 1   
    14    7    8 ar  
    15    8    9 ar  
    16    8   25 1   
    17    9   10 ar  
    18    9   26 1   
    19   11   12 2   
    20   11   13 2   
    21   11   14 1   
    22   14   15 1   
    23   14   20 1   
    24   15   16 1   
    25   15   17 1   
    26   15   27 1   
    27   16   28 1   
    28   16   29 1   
    29   16   30 1   
    30   17   18 1   
    31   17   31 1   
    32   17   32 1   
    33   18   19 1   
    34   18   33 1   
    35   19   20 1   
    36   19   34 1   
    37   19   35 1   
    38   20   36 1   
    39   20   37 1   
@<TRIPOS>SUBSTRUCTURE
     1 IQP         1 TEMP              0 ****  ****    0 ROOT
