@<TRIPOS>MOLECULE
IQP
   37    33     1     0     0
SMALL
bcc


@<TRIPOS>ATOM
      1 C1          0.7540   -0.3040    1.1850 c1        1 IQP     -0.811000
      2 C2          2.1260   -0.0710    1.1460 c1        1 IQP      0.017000
      3 C3          2.8570   -0.0450    2.3170 c1        1 IQP     -0.101500
      4 C4          2.2200   -0.2520    3.5440 c1        1 IQP     -0.101500
      5 C5          0.8330   -0.4870    3.5860 c1        1 IQP     -0.023000
      6 C6          0.1920   -0.6490    4.8150 c1        1 IQP     -0.114000
      7 N7         -1.1810   -0.8370    4.8630 n1        1 IQP     -0.139000
      8 C8         -1.9110   -0.8640    3.7050 c1        1 IQP     -0.058000
      9 C9         -1.2760   -0.7030    2.4770 c1        1 IQP     -0.114000
     10 C10         0.1070   -0.5140    2.4280 c1        1 IQP     -0.023000
     11 S           0.2370   -1.0730   -0.3800 s4        1 IQP      2.071800
     12 O1         -0.8830   -1.9640   -0.1800 o         1 IQP     -0.546400
     13 O2          1.2430   -1.9920   -0.8730 o         1 IQP     -0.546400
     14 N1'        -0.1180    0.1190   -1.5260 n2        1 IQP     -0.841000
     15 C2'        -0.7280   -0.2720   -2.8670 c3        1 IQP      0.020000
     16 CM2        -1.5080   -1.4040   -2.7710 c3        1 IQP     -0.267000
     17 C3'        -1.5860    1.0130   -3.0570 c3        1 IQP     -0.095000
     18 N4'        -0.7900    2.2180   -3.1480 n3        1 IQP     -0.274000
     19 C5'         0.3880    2.0470   -2.6770 c3        1 IQP     -0.087000
     20 C6'         0.6850    1.3240   -1.5900 c3        1 IQP     -0.041000
     21 H2          2.5720    0.0740    0.2920 ha        1 IQP      0.167000
     22 H3          3.8290    0.1180    2.2870 ha        1 IQP      0.145000
     23 H4          2.7540   -0.2320    4.4020 ha        1 IQP      0.145000
     24 H6          0.7090   -0.6310    5.6390 ha        1 IQP      0.169500
     25 H8         -2.8780   -0.9990    3.7400 ha        1 IQP      0.167000
     26 H9         -1.8010   -0.7230    1.6460 ha        1 IQP      0.169500
     27 H2'        -0.0480   -0.3520   -3.5590 h1        1 IQP      0.091000
     28 HM21       -1.9930   -1.3960   -1.9180 hc        1 IQP      0.105667
     29 HM22       -2.1650   -1.4210   -3.5280 hc        1 IQP      0.105667
     30 HM23       -0.9270   -2.2160   -2.8160 hc        1 IQP      0.105667
     31 H3'1       -2.2050    1.0980   -2.2860 h1        1 IQP      0.094000
     32 H3'2       -2.1270    0.9190   -3.8970 h1        1 IQP      0.094000
     33 HN4        -1.2160    2.9100   -2.6820 hn        1 IQP      0.152000
     34 H5'1        0.9230    1.6570   -3.4190 h1        1 IQP      0.101000
     35 H5'2        0.7500    2.9500   -2.5100 h1        1 IQP      0.101000
     36 H6'1        0.5120    1.8770   -0.7720 h1        1 IQP      0.079500
     37 H6'2        1.6500    1.0750   -1.6150 h1        1 IQP      0.079500
@<TRIPOS>BOND
     1    1    2 1   
     2    1   11 1   
     3    2   21 1   
     4    3    4 1   
     5    3   22 1   
     6    4   23 1   
     7    5    6 1   
     8    5   10 1   
     9    6   24 1   
    10    7    8 1   
    11    8   25 1   
    12    9   10 1   
    13    9   26 1   
    14   11   12 1   
    15   11   13 1   
    16   14   15 1   
    17   14   20 1   
    18   15   16 1   
    19   15   17 1   
    20   15   27 1   
    21   16   28 1   
    22   16   29 1   
    23   16   30 1   
    24   17   18 1   
    25   17   31 1   
    26   17   32 1   
    27   18   19 1   
    28   18   33 1   
    29   19   20 1   
    30   19   34 1   
    31   19   35 1   
    32   20   36 1   
    33   20   37 1   
@<TRIPOS>SUBSTRUCTURE
     1 IQP         1 TEMP              0 ****  ****    0 ROOT
