@<TRIPOS>MOLECULE
IQP
   37    39     1     0     0
SMALL
bcc


@<TRIPOS>ATOM
      1 C1         -0.1370   -0.0320   -0.0490 ca        1 IQP     -0.360500
      2 C2          1.2460   -0.0220   -0.1110 ca        1 IQP      0.011000
      3 C3          2.0510    0.0160    1.0460 ca        1 IQP     -0.171000
      4 C4          1.4640    0.0480    2.2880 ca        1 IQP     -0.033000
      5 C5          0.0530    0.0190    2.4020 ca        1 IQP     -0.191300
      6 C6         -0.5970    0.0330    3.6820 ca        1 IQP      0.433200
      7 N7         -1.9080   -0.0230    3.8450 nb        1 IQP     -0.665000
      8 C8         -2.6780   -0.1080    2.7140 ca        1 IQP      0.407200
      9 C9         -2.1660   -0.1210    1.4290 ca        1 IQP     -0.256300
     10 C10        -0.7570   -0.0410    1.2350 ca        1 IQP      0.088000
     11 S          -1.0010   -0.0820   -1.5180 sy        1 IQP      1.503200
     12 O1         -2.0050   -1.0750   -1.4370 o         1 IQP     -0.653800
     13 O2         -0.0550   -0.2680   -2.5520 o         1 IQP     -0.653800
     14 N1'        -1.7040    1.3830   -1.6230 n3        1 IQP     -0.815500
     15 C2'        -1.0480    2.6500   -1.9050 c3        1 IQP      0.249500
     16 CM2         0.4370    2.5550   -2.2390 c3        1 IQP     -0.132100
     17 C3'        -1.7330    3.4070   -3.0820 c3        1 IQP      0.148800
     18 N4'        -3.1640    3.5410   -2.9100 n3        1 IQP     -0.819200
     19 C5'        -3.8240    2.2920   -2.5920 c3        1 IQP      0.150800
     20 C6'        -3.1300    1.5310   -1.4420 c3        1 IQP      0.209800
     21 H2          1.7480   -0.0500   -1.0990 ha        1 IQP      0.167000
     22 H3          3.1460    0.0210    0.9380 ha        1 IQP      0.146000
     23 H4          2.0740    0.0910    3.2050 ha        1 IQP      0.141000
     24 H6          0.0180    0.0910    4.5990 h4        1 IQP      0.024100
     25 H8         -3.7660   -0.1740    2.9000 h4        1 IQP      0.028100
     26 H9         -2.8400   -0.2270    0.5660 ha        1 IQP      0.162000
     27 H2'        -1.1580    3.2940   -0.9780 h1        1 IQP      0.056700
     28 HM21        0.8200    3.5840   -2.4420 hc        1 IQP      0.057033
     29 HM22        0.6200    1.9200   -3.1410 hc        1 IQP      0.057033
     30 HM23        1.0130    2.1320   -1.3800 hc        1 IQP      0.057033
     31 H3'1       -1.2990    4.4460   -3.1140 h1        1 IQP      0.039200
     32 H3'2       -1.4590    2.8850   -4.0440 h1        1 IQP      0.039200
     33 HN4        -3.5720    3.9480   -3.7310 hn        1 IQP      0.367800
     34 H5'1       -4.8720    2.5340   -2.2610 h1        1 IQP      0.039700
     35 H5'2       -3.8930    1.6030   -3.4850 h1        1 IQP      0.039700
     36 H6'1       -3.6140    0.5140   -1.3710 h1        1 IQP      0.064700
     37 H6'2       -3.3210    2.0850   -0.4770 h1        1 IQP      0.064700
@<TRIPOS>BOND
     1    1    2 ar  
     2    1   10 ar  
     3    1   11 1   
     4    2    3 ar  
     5    2   21 1   
     6    3    4 ar  
     7    3   22 1   
     8    4    5 ar  
     9    4   23 1   
    10    5    6 ar  
    11    5   10 ar  
    12    6    7 ar  
    13    6   24 1   
    14    7    8 ar  
    15    8    9 ar  
    16    8   25 1   
    17    9   10 ar  
    18    9   26 1   
    19   11   12 2   
    20   11   13 2   
    21   11   14 1   
    22   14   15 1   
    23   14   20 1   
    24   15   16 1   
    25   15   17 1   
    26   15   27 1   
    27   16   28 1   
    28   16   29 1   
    29   16   30 1   
    30   17   18 1   
    31   17   31 1   
    32   17   32 1   
    33   18   19 1   
    34   18   33 1   
    35   19   20 1   
    36   19   34 1   
    37   19   35 1   
    38   20   36 1   
    39   20   37 1   
@<TRIPOS>SUBSTRUCTURE
     1 IQP         1 TEMP              0 ****  ****    0 ROOT
