@<TRIPOS>MOLECULE
IQP
   37    39     1     0     0
SMALL
bcc


@<TRIPOS>ATOM
      1 C1         -0.1360   -0.0320   -0.0500 ca        1 IQP     -0.360500
      2 C2          1.2480   -0.0190   -0.1100 ca        1 IQP      0.011000
      3 C3          2.0510    0.0190    1.0480 ca        1 IQP     -0.171000
      4 C4          1.4610    0.0480    2.2900 ca        1 IQP     -0.033000
      5 C5          0.0510    0.0170    2.4010 ca        1 IQP     -0.191300
      6 C6         -0.6010    0.0280    3.6810 ca        1 IQP      0.433200
      7 N7         -1.9130   -0.0300    3.8410 nb        1 IQP     -0.665000
      8 C8         -2.6810   -0.1150    2.7100 ca        1 IQP      0.407200
      9 C9         -2.1670   -0.1250    1.4260 ca        1 IQP     -0.256300
     10 C10        -0.7570   -0.0430    1.2330 ca        1 IQP      0.088000
     11 S          -0.9980   -0.0800   -1.5200 sy        1 IQP      1.503200
     12 O1         -2.0000   -1.0750   -1.4420 o         1 IQP     -0.653800
     13 O2         -0.0500   -0.2640   -2.5530 o         1 IQP     -0.653800
     14 N1'        -1.7030    1.3830   -1.6240 n3        1 IQP     -0.815500
     15 C2'        -1.0490    2.6520   -1.9030 c3        1 IQP      0.249500
     16 CM2         0.4380    2.5590   -2.2340 c3        1 IQP     -0.132100
     17 C3'        -1.7330    3.4100   -3.0790 c3        1 IQP      0.148800
     18 N4'        -3.1640    3.5410   -2.9090 n7        1 IQP     -0.819200
     19 C5'        -3.8220    2.2910   -2.5950 c3        1 IQP      0.150800
     20 C6'        -3.1300    1.5290   -1.4440 c3        1 IQP      0.209800
     21 H2          1.7510   -0.0450   -1.0970 ha        1 IQP      0.167000
     22 H3          3.1460    0.0250    0.9420 ha        1 IQP      0.146000
     23 H4          2.0700    0.0900    3.2070 ha        1 IQP      0.141000
     24 H6          0.0120    0.0850    4.5990 h4        1 IQP      0.024100
     25 H8         -3.7680   -0.1820    2.8940 h4        1 IQP      0.028100
     26 H9         -2.8400   -0.2310    0.5610 ha        1 IQP      0.162000
     27 H2'        -1.1600    3.2940   -0.9740 h1        1 IQP      0.056700
     28 HM21        1.0120    2.1360   -1.3760 hc        1 IQP      0.057033
     29 HM22        0.6230    1.9270   -3.1380 hc        1 IQP      0.057033
     30 HM23        0.8190    3.5900   -2.4350 hc        1 IQP      0.057033
     31 H3'1       -1.3000    4.4490   -3.1080 h1        1 IQP      0.039200
     32 H3'2       -1.4560    2.8900   -4.0420 h1        1 IQP      0.039200
     33 HN4        -3.5720    3.9490   -3.7300 hn        1 IQP      0.367800
     34 H5'1       -4.8720    2.5310   -2.2640 h1        1 IQP      0.039700
     35 H5'2       -3.8900    1.6030   -3.4880 h1        1 IQP      0.039700
     36 H6'1       -3.6120    0.5110   -1.3770 h1        1 IQP      0.064700
     37 H6'2       -3.3230    2.0810   -0.4790 h1        1 IQP      0.064700
@<TRIPOS>BOND
     1    1    2 ar  
     2    1   10 ar  
     3    1   11 1   
     4    2    3 ar  
     5    2   21 1   
     6    3    4 ar  
     7    3   22 1   
     8    4    5 ar  
     9    4   23 1   
    10    5    6 ar  
    11    5   10 ar  
    12    6    7 ar  
    13    6   24 1   
    14    7    8 ar  
    15    8    9 ar  
    16    8   25 1   
    17    9   10 ar  
    18    9   26 1   
    19   11   12 2   
    20   11   13 2   
    21   11   14 1   
    22   14   15 1   
    23   14   20 1   
    24   15   16 1   
    25   15   17 1   
    26   15   27 1   
    27   16   28 1   
    28   16   29 1   
    29   16   30 1   
    30   17   18 1   
    31   17   31 1   
    32   17   32 1   
    33   18   19 1   
    34   18   33 1   
    35   19   20 1   
    36   19   34 1   
    37   19   35 1   
    38   20   36 1   
    39   20   37 1   
@<TRIPOS>SUBSTRUCTURE
     1 IQP         1 TEMP              0 ****  ****    0 ROOT
