@<TRIPOS>MOLECULE
IQP
   37    39     1     0     0
SMALL
bcc


@<TRIPOS>ATOM
      1 C1         -0.1380   -0.0330   -0.0500 ca        1 IQP     -0.360500
      2 C2          1.2460   -0.0230   -0.1110 ca        1 IQP      0.011000
      3 C3          2.0500    0.0150    1.0470 ca        1 IQP     -0.171000
      4 C4          1.4610    0.0460    2.2890 ca        1 IQP     -0.033000
      5 C5          0.0510    0.0170    2.4010 ca        1 IQP     -0.191300
      6 C6         -0.6010    0.0300    3.6810 ca        1 IQP      0.433200
      7 N7         -1.9120   -0.0260    3.8430 nb        1 IQP     -0.665000
      8 C8         -2.6810   -0.1110    2.7120 ca        1 IQP      0.407200
      9 C9         -2.1680   -0.1220    1.4270 ca        1 IQP     -0.256300
     10 C10        -0.7580   -0.0420    1.2340 ca        1 IQP      0.088000
     11 S          -1.0000   -0.0810   -1.5200 sy        1 IQP      1.503200
     12 O1         -2.0040   -1.0740   -1.4400 o         1 IQP     -0.653800
     13 O2         -0.0540   -0.2670   -2.5530 o         1 IQP     -0.653800
     14 N1'        -1.7030    1.3830   -1.6240 n3        1 IQP     -0.815500
     15 C2'        -1.0470    2.6510   -1.9040 c3        1 IQP      0.249500
     16 CM2         0.4390    2.5560   -2.2360 c3        1 IQP     -0.132100
     17 C3'        -1.7310    3.4090   -3.0800 c3        1 IQP      0.148800
     18 N4'        -3.1620    3.5430   -2.9100 n3        1 IQP     -0.819200
     19 C5'        -3.8220    2.2940   -2.5940 c3        1 IQP      0.150800
     20 C6'        -3.1300    1.5320   -1.4430 c3        1 IQP      0.209800
     21 H2          1.7480   -0.0510   -1.0980 ha        1 IQP      0.167000
     22 H3          3.1450    0.0190    0.9400 ha        1 IQP      0.146000
     23 H4          2.0710    0.0870    3.2060 ha        1 IQP      0.141000
     24 H6          0.0130    0.0870    4.5990 h4        1 IQP      0.024100
     25 H8         -3.7690   -0.1760    2.8970 h4        1 IQP      0.028100
     26 H9         -2.8410   -0.2280    0.5630 ha        1 IQP      0.162000
     27 H2'        -1.1570    3.2940   -0.9760 h1        1 IQP      0.056700
     28 HM21        1.0140    2.1320   -1.3780 hc        1 IQP      0.057033
     29 HM22        0.6220    1.9220   -3.1390 hc        1 IQP      0.057033
     30 HM23        0.8210    3.5860   -2.4380 hc        1 IQP      0.057033
     31 H3'1       -1.2970    4.4480   -3.1110 h1        1 IQP      0.039200
     32 H3'2       -1.4560    2.8880   -4.0430 h1        1 IQP      0.039200
     33 HN4        -3.5690    3.9510   -3.7310 hn        1 IQP      0.367800
     34 H5'1       -4.8710    2.5360   -2.2630 h1        1 IQP      0.039700
     35 H5'2       -3.8910    1.6060   -3.4870 h1        1 IQP      0.039700
     36 H6'1       -3.3210    2.0850   -0.4780 h1        1 IQP      0.064700
     37 H6'2       -3.6140    0.5140   -1.3750 h1        1 IQP      0.064700
@<TRIPOS>BOND
     1    1    2 ar  
     2    1   10 ar  
     3    1   11 1   
     4    2    3 ar  
     5    2   21 1   
     6    3    4 ar  
     7    3   22 1   
     8    4    5 ar  
     9    4   23 1   
    10    5    6 ar  
    11    5   10 ar  
    12    6    7 ar  
    13    6   24 1   
    14    7    8 ar  
    15    8    9 ar  
    16    8   25 1   
    17    9   10 ar  
    18    9   26 1   
    19   11   12 2   
    20   11   13 2   
    21   11   14 1   
    22   14   15 1   
    23   14   20 1   
    24   15   16 1   
    25   15   17 1   
    26   15   27 1   
    27   16   28 1   
    28   16   29 1   
    29   16   30 1   
    30   17   18 1   
    31   17   31 1   
    32   17   32 1   
    33   18   19 1   
    34   18   33 1   
    35   19   20 1   
    36   19   34 1   
    37   19   35 1   
    38   20   36 1   
    39   20   37 1   
@<TRIPOS>SUBSTRUCTURE
     1 IQP         1 TEMP              0 ****  ****    0 ROOT
