@<TRIPOS>MOLECULE
IQS
   33    28     1     0     0
SMALL
bcc


@<TRIPOS>ATOM
      1 C1          0.1550   -0.4920    1.6640 c1        1 IQS     -0.817000
      2 C2          1.2600   -1.2130    2.0760 c1        1 IQS      0.017000
      3 C3          1.4850   -1.4310    3.4390 c1        1 IQS     -0.102000
      4 C4          0.6060   -0.9270    4.3700 c1        1 IQS     -0.102000
      5 C5         -0.5300   -0.1870    3.9470 c1        1 IQS     -0.021000
      6 C6         -1.3340    0.4460    4.8860 c1        1 IQS     -0.114500
      7 N7         -2.3450    1.2830    4.4700 n1        1 IQS     -0.140000
      8 C8         -2.5540    1.4880    3.1380 c1        1 IQS     -0.056000
      9 C9         -1.7520    0.8560    2.2060 c1        1 IQS     -0.114500
     10 C10        -0.7450    0.0230    2.6150 c1        1 IQS     -0.021000
     11 S           0.0270   -1.2260    0.0060 s4        1 IQS      2.069800
     12 O1         -1.2450   -1.7480   -0.2200 o         1 IQS     -0.539900
     13 O2          0.8430   -2.4180   -0.1030 o         1 IQS     -0.539900
     14 N1'         0.4380   -0.0910   -1.1690 n2        1 IQS     -0.892000
     15 C2'         0.9000   -0.5230   -2.4370 c3        1 IQS     -0.015000
     16 C3'         0.1580    0.3120   -3.6000 c3        1 IQS     -0.089000
     17 N4'         1.1250    0.7650   -4.5650 n3        1 IQS     -0.303000
     18 C5'         0.4560    1.2090   -5.7260 c3        1 IQS     -0.123000
     19 H2          1.8710   -1.5600    1.4310 ha        1 IQS      0.167000
     20 H3          2.2420   -1.9260    3.7210 ha        1 IQS      0.144000
     21 H4          0.7710   -1.0860    5.3660 ha        1 IQS      0.144000
     22 H6         -1.1800    0.2970    5.8520 ha        1 IQS      0.162500
     23 H8         -3.2530    2.0650    2.8490 ha        1 IQS      0.166000
     24 H9         -1.8960    0.9990    1.2890 ha        1 IQS      0.162500
     25 HN1         0.3440    0.7480   -1.0080 hn        1 IQS      0.242000
     26 H2'1        1.8320   -0.3840   -2.4960 h1        1 IQS      0.097500
     27 H2'2        0.7040   -1.4810   -2.5450 h1        1 IQS      0.097500
     28 H3'1       -0.3060    1.1040   -3.1990 h1        1 IQS      0.075000
     29 H3'2       -0.5300   -0.2890   -4.0660 h1        1 IQS      0.075000
     30 HN4         1.5800    1.4200   -4.2300 hn        1 IQS      0.153000
     31 H5'1       -0.2240    1.9300   -5.4710 h1        1 IQS      0.072000
     32 H5'2        1.1000    1.5770   -6.3500 h1        1 IQS      0.072000
     33 H5'3       -0.0060    0.4600   -6.1400 h1        1 IQS      0.072000
@<TRIPOS>BOND
     1    1    2 1   
     2    1   11 1   
     3    2   19 1   
     4    3    4 1   
     5    3   20 1   
     6    4   21 1   
     7    5    6 1   
     8    5   10 1   
     9    6   22 1   
    10    7    8 1   
    11    8   23 1   
    12    9   10 1   
    13    9   24 1   
    14   11   12 1   
    15   11   13 1   
    16   14   15 1   
    17   14   25 1   
    18   15   16 1   
    19   15   26 1   
    20   15   27 1   
    21   16   17 1   
    22   16   28 1   
    23   16   29 1   
    24   17   18 1   
    25   17   30 1   
    26   18   31 1   
    27   18   32 1   
    28   18   33 1   
@<TRIPOS>SUBSTRUCTURE
     1 IQS         1 TEMP              0 ****  ****    0 ROOT
