@<TRIPOS>MOLECULE
IQS
   35    35     1     0     0
SMALL
bcc


@<TRIPOS>ATOM
      1 C1          0.2310    0.0300    0.6240 ca        1 IQS     -0.665500
      2 C2          1.5640    0.3430    1.0390 ca        1 IQS      0.070000
      3 C3          2.0750   -0.0110    2.2690 ca        1 IQS     -0.187000
      4 C4          1.2790   -0.7140    3.1800 ca        1 IQS      0.123000
      5 C5         -0.0400   -1.0520    2.8410 ca        1 IQS     -0.241300
      6 C6         -0.8740   -1.7810    3.7630 ca        1 IQS      0.504200
      7 N7         -2.1200   -2.1410    3.4940 nb        1 IQS     -0.637000
      8 C8         -2.6270   -1.8020    2.2750 ca        1 IQS      0.519200
      9 C9         -1.9150   -1.0920    1.3050 ca        1 IQS     -0.341300
     10 C10        -0.5870   -0.6960    1.5690 ca        1 IQS      0.147000
     11 S          -0.1980    0.4420   -0.7860 s4        1 IQS      1.681300
     12 O1         -1.4170    0.1260   -1.2910 o         1 IQS     -0.440400
     13 O2          0.7210    1.0570   -1.5810 o         1 IQS     -0.440400
     14 N1'        -1.2200    2.8710   -0.5790 n3        1 IQS     -0.969800
     15 C2'        -1.3420    3.3520   -1.9350 c3        1 IQS      0.113800
     16 C3'        -1.9250    4.7770   -2.0710 c3        1 IQS      0.057800
     17 N4'        -2.0310    5.2160   -3.4920 n4        1 IQS     -0.751000
     18 C5'        -2.5910    6.5870   -3.6090 c3        1 IQS      0.076100
     19 H2          2.2200    0.8880    0.3280 ha        1 IQS      0.176000
     20 H3          3.1160    0.2500    2.5350 ha        1 IQS      0.195000
     21 H4          1.6900   -1.0060    4.1670 ha        1 IQS      0.189000
     22 H6         -0.4730   -2.0700    4.7580 h4        1 IQS      0.066100
     23 H8         -3.6700   -2.1360    2.0910 h4        1 IQS      0.069100
     24 H9         -2.4180   -0.8790    0.3490 ha        1 IQS      0.178000
     25 HN1        -0.6300    3.4740   -0.0310 hn        1 IQS      0.395300
     26 H2'1       -0.3110    3.3220   -2.4000 h1        1 IQS      0.098700
     27 H2'2       -2.0020    2.6240   -2.4960 h1        1 IQS      0.098700
     28 H3'1       -2.9590    4.8200   -1.6190 hx        1 IQS      0.116200
     29 H3'2       -1.2700    5.5200   -1.5290 hx        1 IQS      0.116200
     30 HN4        -1.0980    5.1920   -3.9250 hn        1 IQS      0.461800
     31 H5'1       -2.6480    6.8650   -4.6990 hx        1 IQS      0.121367
     32 H5'2       -1.9250    7.3150   -3.0710 hx        1 IQS      0.121367
     33 H5'3       -3.6210    6.6150   -3.1600 hx        1 IQS      0.121367
     34 H1'2       -2.1200    2.8010   -0.1360 hn        1 IQS      0.395300
     35 H4'2       -2.6330    4.5590   -4.0060 hn        1 IQS      0.461800
@<TRIPOS>BOND
     1    1    2 ar  
     2    1   10 ar  
     3    1   11 1   
     4    2    3 ar  
     5    2   19 1   
     6    3    4 ar  
     7    3   20 1   
     8    4    5 ar  
     9    4   21 1   
    10    5    6 ar  
    11    5   10 ar  
    12    6    7 ar  
    13    6   22 1   
    14    7    8 ar  
    15    8    9 ar  
    16    8   23 1   
    17    9   10 ar  
    18    9   24 1   
    19   11   12 1   
    20   11   13 1   
    21   14   15 1   
    22   14   25 1   
    23   14   34 1   
    24   15   16 1   
    25   15   26 1   
    26   15   27 1   
    27   16   17 1   
    28   16   28 1   
    29   16   29 1   
    30   17   18 1   
    31   17   30 1   
    32   17   35 1   
    33   18   31 1   
    34   18   32 1   
    35   18   33 1   
@<TRIPOS>SUBSTRUCTURE
     1 IQS         1 TEMP              0 ****  ****    0 ROOT
