@<TRIPOS>MOLECULE
IQS
   35    35     1     0     0
SMALL
bcc


@<TRIPOS>ATOM
      1 C1          0.2260    0.0360    0.6450 ca        1 IQS     -0.665500
      2 C2          1.5610    0.3490    1.0540 ca        1 IQS      0.070000
      3 C3          2.0720    0.0080    2.2870 ca        1 IQS     -0.187000
      4 C4          1.2750   -0.6800    3.2080 ca        1 IQS      0.123000
      5 C5         -0.0460   -1.0180    2.8750 ca        1 IQS     -0.241300
      6 C6         -0.8820   -1.7330    3.8070 ca        1 IQS      0.504200
      7 N7         -2.1290   -2.0910    3.5440 nb        1 IQS     -0.637000
      8 C8         -2.6370   -1.7650    2.3220 ca        1 IQS      0.519200
      9 C9         -1.9240   -1.0690    1.3420 ca        1 IQS     -0.341300
     10 C10        -0.5930   -0.6760    1.6000 ca        1 IQS      0.147000
     11 S          -0.2030    0.4320   -0.7700 s4        1 IQS      1.681300
     12 O1         -1.4240    0.1150   -1.2700 o         1 IQS     -0.440400
     13 O2          0.7170    1.0340   -1.5730 o         1 IQS     -0.440400
     14 N1'        -1.2150    2.8680   -0.5910 n8        1 IQS     -0.969800
     15 C2'        -1.3390    3.3310   -1.9540 c3        1 IQS      0.113800
     16 C3'        -1.9170    4.7570   -2.1060 c3        1 IQS      0.057800
     17 N4'        -2.0250    5.1780   -3.5330 ny        1 IQS     -0.751000
     18 C5'        -2.5790    6.5490   -3.6660 c3        1 IQS      0.076100
     19 H2          2.2180    0.8830    0.3360 ha        1 IQS      0.176000
     20 H3          3.1140    0.2690    2.5490 ha        1 IQS      0.195000
     21 H4          1.6850   -0.9620    4.1980 ha        1 IQS      0.189000
     22 H6         -0.4810   -2.0110    4.8040 h4        1 IQS      0.066100
     23 H8         -3.6820   -2.0970    2.1430 h4        1 IQS      0.069100
     24 H9         -2.4270   -0.8660    0.3840 ha        1 IQS      0.178000
     25 HN1        -0.6220    3.4750   -0.0530 hn        1 IQS      0.395300
     26 H2'1       -0.3090    3.2910   -2.4200 h1        1 IQS      0.098700
     27 H2'2       -2.0030    2.5990   -2.5030 h1        1 IQS      0.098700
     28 H3'1       -2.9500    4.8100   -1.6530 hx        1 IQS      0.116200
     29 H3'2       -1.2570    5.5040   -1.5760 hx        1 IQS      0.116200
     30 HN4        -1.0930    5.1450   -3.9670 hn        1 IQS      0.461800
     31 H5'1       -2.6380    6.8130   -4.7590 hx        1 IQS      0.121367
     32 H5'2       -1.9090    7.2820   -3.1390 hx        1 IQS      0.121367
     33 H5'3       -3.6080    6.5870   -3.2150 hx        1 IQS      0.121367
     34 H1'2       -2.1140    2.8080   -0.1450 hn        1 IQS      0.395300
     35 H4'2       -2.6310    4.5160   -4.0370 hn        1 IQS      0.461800
@<TRIPOS>BOND
     1    1    2 ar  
     2    1   10 ar  
     3    1   11 1   
     4    2    3 ar  
     5    2   19 1   
     6    3    4 ar  
     7    3   20 1   
     8    4    5 ar  
     9    4   21 1   
    10    5    6 ar  
    11    5   10 ar  
    12    6    7 ar  
    13    6   22 1   
    14    7    8 ar  
    15    8    9 ar  
    16    8   23 1   
    17    9   10 ar  
    18    9   24 1   
    19   11   12 1   
    20   11   13 1   
    21   14   15 1   
    22   14   25 1   
    23   14   34 1   
    24   15   16 1   
    25   15   26 1   
    26   15   27 1   
    27   16   17 1   
    28   16   28 1   
    29   16   29 1   
    30   17   18 1   
    31   17   30 1   
    32   17   35 1   
    33   18   31 1   
    34   18   32 1   
    35   18   33 1   
@<TRIPOS>SUBSTRUCTURE
     1 IQS         1 TEMP              0 ****  ****    0 ROOT
