@<TRIPOS>MOLECULE
IQS
   33    34     1     0     0
SMALL
bcc


@<TRIPOS>ATOM
      1 C1         -0.6860    0.2850   -0.8800 ca        1 IQS     -0.372500
      2 C2         -1.3120    1.4980   -1.1090 ca        1 IQS      0.017000
      3 C3         -1.0730    2.2580   -2.2730 ca        1 IQS     -0.170000
      4 C4         -0.1840    1.8000   -3.2190 ca        1 IQS     -0.033000
      5 C5          0.4730    0.5610   -3.0290 ca        1 IQS     -0.190300
      6 C6          1.4040    0.0480   -3.9940 ca        1 IQS      0.435200
      7 N7          2.0300   -1.1110   -3.8720 nb        1 IQS     -0.666000
      8 C8          1.7550   -1.8600   -2.7580 ca        1 IQS      0.410200
      9 C9          0.8820   -1.4680   -1.7590 ca        1 IQS     -0.264300
     10 C10         0.2140   -0.2130   -1.8660 ca        1 IQS      0.084000
     11 S          -1.0290   -0.5330    0.5700 sy        1 IQS      1.514200
     12 O1         -1.2330   -1.9020    0.3040 o         1 IQS     -0.654800
     13 O2         -2.0880    0.1500    1.2120 o         1 IQS     -0.654800
     14 N1'         0.3400   -0.3620    1.4080 n3        1 IQS     -0.919100
     15 C2'         0.5570    0.6180    2.4310 c3        1 IQS      0.220800
     16 C3'         0.9250   -0.0090    3.7970 c3        1 IQS      0.144800
     17 N4'         1.1650    1.0060    4.8030 n3        1 IQS     -0.825200
     18 C5'         1.4640    0.4650    6.1020 c3        1 IQS      0.152100
     19 H2         -2.0290    1.8920   -0.3620 ha        1 IQS      0.166000
     20 H3         -1.6000    3.2130   -2.4090 ha        1 IQS      0.147000
     21 H4          0.0250    2.3840   -4.1300 ha        1 IQS      0.141000
     22 H6          1.6230    0.6400   -4.9020 h4        1 IQS      0.025100
     23 H8          2.2860   -2.8280   -2.7100 h4        1 IQS      0.029100
     24 H9          0.6750   -2.1400   -0.9120 ha        1 IQS      0.164000
     25 HN1         1.1210   -0.9530    1.2520 hn        1 IQS      0.448800
     26 H2'1       -0.3840    1.2310    2.5470 h1        1 IQS      0.060200
     27 H2'2        1.3900    1.3120    2.1160 h1        1 IQS      0.060200
     28 H3'1        1.8740   -0.6070    3.6860 h1        1 IQS      0.036200
     29 H3'2        0.1090   -0.7280    4.1030 h1        1 IQS      0.036200
     30 HN4         0.3880    1.6390    4.8530 hn        1 IQS      0.359800
     31 H5'1        1.6330    1.3170    6.8120 h1        1 IQS      0.032033
     32 H5'2        0.6510   -0.1930    6.5180 h1        1 IQS      0.032033
     33 H5'3        2.4050   -0.1430    6.0390 h1        1 IQS      0.032033
@<TRIPOS>BOND
     1    1    2 ar  
     2    1   10 ar  
     3    1   11 1   
     4    2    3 ar  
     5    2   19 1   
     6    3    4 ar  
     7    3   20 1   
     8    4    5 ar  
     9    4   21 1   
    10    5    6 ar  
    11    5   10 ar  
    12    6    7 ar  
    13    6   22 1   
    14    7    8 ar  
    15    8    9 ar  
    16    8   23 1   
    17    9   10 ar  
    18    9   24 1   
    19   11   12 2   
    20   11   13 2   
    21   11   14 1   
    22   14   15 1   
    23   14   25 1   
    24   15   16 1   
    25   15   26 1   
    26   15   27 1   
    27   16   17 1   
    28   16   28 1   
    29   16   29 1   
    30   17   18 1   
    31   17   30 1   
    32   18   31 1   
    33   18   32 1   
    34   18   33 1   
@<TRIPOS>SUBSTRUCTURE
     1 IQS         1 TEMP              0 ****  ****    0 ROOT
