@<TRIPOS>MOLECULE
IQS
   35    35     1     0     0
SMALL
bcc


@<TRIPOS>ATOM
      1 C1          0.2180    0.0480    0.6880 ca        1 IQS     -0.665500
      2 C2          1.5550    0.3680    1.0850 ca        1 IQS      0.070000
      3 C3          2.0690    0.0600    2.3250 ca        1 IQS     -0.187000
      4 C4          1.2720   -0.6030    3.2660 ca        1 IQS      0.123000
      5 C5         -0.0500   -0.9470    2.9450 ca        1 IQS     -0.241300
      6 C6         -0.8840   -1.6350    3.8980 ca        1 IQS      0.504200
      7 N7         -2.1330   -1.9980    3.6480 nb        1 IQS     -0.637000
      8 C8         -2.6430   -1.7040    2.4190 ca        1 IQS      0.519200
      9 C9         -1.9310   -1.0350    1.4190 ca        1 IQS     -0.341300
     10 C10        -0.6000   -0.6370    1.6630 ca        1 IQS      0.147000
     11 S          -0.2140    0.4070   -0.7360 s4        1 IQS      1.681300
     12 O1         -1.4370    0.0800   -1.2240 o         1 IQS     -0.439900
     13 O2          0.7040    0.9870   -1.5570 o         1 IQS     -0.439900
     14 N1'        -1.2230    2.8490   -0.6180 n3        1 IQS     -0.969800
     15 C2'        -1.3360    3.2820   -1.9920 c3        1 IQS      0.113800
     16 C3'        -1.9120    4.7050   -2.1790 c3        1 IQS      0.057800
     17 N4'        -2.0090    5.0950   -3.6150 n4        1 IQS     -0.751000
     18 C5'        -2.5610    6.4630   -3.7830 c3        1 IQS      0.076100
     19 H2          2.2110    0.8820    0.3510 ha        1 IQS      0.176000
     20 H3          3.1120    0.3250    2.5780 ha        1 IQS      0.195000
     21 H4          1.6850   -0.8600    4.2620 ha        1 IQS      0.189000
     22 H6         -0.4810   -1.8880    4.9010 h4        1 IQS      0.066100
     23 H8         -3.6890   -2.0380    2.2520 h4        1 IQS      0.069100
     24 H9         -2.4370   -0.8570    0.4570 ha        1 IQS      0.178000
     25 HN1        -2.1250    2.7980   -0.1780 hn        1 IQS      0.395300
     26 H2'1       -1.9980    2.5390   -2.5290 h1        1 IQS      0.098700
     27 H2'2       -0.3030    3.2310   -2.4500 h1        1 IQS      0.098700
     28 H3'1       -1.2560    5.4630   -1.6610 hx        1 IQS      0.116200
     29 H3'2       -2.9480    4.7680   -1.7340 hx        1 IQS      0.116200
     30 HN4        -2.6120    4.4230   -4.1090 hn        1 IQS      0.461800
     31 H5'1       -2.6130    6.7040   -4.8810 hx        1 IQS      0.121367
     32 H5'2       -3.5930    6.5120   -3.3400 hx        1 IQS      0.121367
     33 H5'3       -1.8950    7.2060   -3.2670 hx        1 IQS      0.121367
     34 H1'2       -0.6330    3.4670   -0.0890 hn        1 IQS      0.395300
     35 H4'2       -1.0740    5.0510   -4.0430 hn        1 IQS      0.461800
@<TRIPOS>BOND
     1    1    2 ar  
     2    1   10 ar  
     3    1   11 1   
     4    2    3 ar  
     5    2   19 1   
     6    3    4 ar  
     7    3   20 1   
     8    4    5 ar  
     9    4   21 1   
    10    5    6 ar  
    11    5   10 ar  
    12    6    7 ar  
    13    6   22 1   
    14    7    8 ar  
    15    8    9 ar  
    16    8   23 1   
    17    9   10 ar  
    18    9   24 1   
    19   11   12 1   
    20   11   13 1   
    21   14   15 1   
    22   14   25 1   
    23   14   34 1   
    24   15   16 1   
    25   15   26 1   
    26   15   27 1   
    27   16   17 1   
    28   16   28 1   
    29   16   29 1   
    30   17   18 1   
    31   17   30 1   
    32   17   35 1   
    33   18   31 1   
    34   18   32 1   
    35   18   33 1   
@<TRIPOS>SUBSTRUCTURE
     1 IQS         1 TEMP              0 ****  ****    0 ROOT
