@<TRIPOS>MOLECULE
IQU
   32    32     1     0     0
SMALL
bcc


@<TRIPOS>ATOM
      1 C1          0.0230   -0.0230    0.5120 ca        1 IQU     -0.667500
      2 C2          1.4130    0.2590    0.7060 ca        1 IQU      0.070000
      3 C3          2.0730    0.0240    1.8910 ca        1 IQU     -0.187000
      4 C4          1.3810   -0.5190    2.9810 ca        1 IQU      0.125000
      5 C5          0.0160   -0.8180    2.8640 ca        1 IQU     -0.242300
      6 C6         -0.7130   -1.3810    3.9730 ca        1 IQU      0.506200
      7 N7         -1.9980   -1.6960    3.9190 nb        1 IQU     -0.637000
      8 C8         -2.6550   -1.4730    2.7450 ca        1 IQU      0.522200
      9 C9         -2.0550   -0.9270    1.6070 ca        1 IQU     -0.340300
     10 C10        -0.6870   -0.5830    1.6410 ca        1 IQU      0.148000
     11 S          -0.5800    0.2440   -0.8670 s4        1 IQU      1.680300
     12 O1          0.2400    0.7200   -1.8440 o         1 IQU     -0.438400
     13 O2         -1.8720   -0.0490   -1.1560 o         1 IQU     -0.438400
     14 N1'        -1.6000    2.7580   -1.0380 n3        1 IQU     -0.969800
     15 C2'        -1.1240    3.3930   -2.2420 c3        1 IQU      0.129800
     16 C3'        -1.9650    4.6060   -2.7120 c3        1 IQU      0.053800
     17 N4'        -1.4720    5.1840   -3.9910 n4        1 IQU     -0.830600
     18 H2          1.9860    0.6770   -0.1480 ha        1 IQU      0.174000
     19 H3          3.1500    0.2530    1.9840 ha        1 IQU      0.195000
     20 H4          1.9120   -0.7160    3.9340 ha        1 IQU      0.189000
     21 H6         -0.1910   -1.5740    4.9340 h4        1 IQU      0.066100
     22 H8         -3.7280   -1.7620    2.7450 h4        1 IQU      0.070100
     23 H9         -2.6780   -0.7990    0.7080 ha        1 IQU      0.179000
     24 H1'        -2.5650    2.4850   -1.1250 hn        1 IQU      0.396300
     25 H2'1       -0.0590    3.7260   -2.0670 h1        1 IQU      0.093200
     26 H2'2       -1.1110    2.6110   -3.0570 h1        1 IQU      0.093200
     27 H3'1       -3.0400    4.2950   -2.8690 hx        1 IQU      0.121700
     28 H3'2       -1.9380    5.4220   -1.9320 hx        1 IQU      0.121700
     29 H4'1       -2.0620    5.9820   -4.2610 hn        1 IQU      0.473467
     30 H4'2       -1.5040    4.4810   -4.7390 hn        1 IQU      0.473467
     31 H1'2       -1.4980    3.3590   -0.2410 hn        1 IQU      0.396300
     32 H4'3       -0.5030    5.5090   -3.8890 hn        1 IQU      0.473467
@<TRIPOS>BOND
     1    1    2 ar  
     2    1   10 ar  
     3    1   11 1   
     4    2    3 ar  
     5    2   18 1   
     6    3    4 ar  
     7    3   19 1   
     8    4    5 ar  
     9    4   20 1   
    10    5    6 ar  
    11    5   10 ar  
    12    6    7 ar  
    13    6   21 1   
    14    7    8 ar  
    15    8    9 ar  
    16    8   22 1   
    17    9   10 ar  
    18    9   23 1   
    19   11   12 1   
    20   11   13 1   
    21   14   15 1   
    22   14   24 1   
    23   14   31 1   
    24   15   16 1   
    25   15   25 1   
    26   15   26 1   
    27   16   17 1   
    28   16   27 1   
    29   16   28 1   
    30   17   29 1   
    31   17   30 1   
    32   17   32 1   
@<TRIPOS>SUBSTRUCTURE
     1 IQU         1 TEMP              0 ****  ****    0 ROOT
