@<TRIPOS>MOLECULE
IQU
   32    32     1     0     0
SMALL
bcc


@<TRIPOS>ATOM
      1 C1          0.2020    0.0770    0.5340 ca        1 IQU     -0.667500
      2 C2          1.5500    0.3850    0.9060 ca        1 IQU      0.070000
      3 C3          2.0750    0.1020    2.1470 ca        1 IQU     -0.187000
      4 C4          1.2800   -0.5220    3.1170 ca        1 IQU      0.125000
      5 C5         -0.0520   -0.8520    2.8220 ca        1 IQU     -0.241300
      6 C6         -0.8850   -1.4990    3.8040 ca        1 IQU      0.505200
      7 N7         -2.1430   -1.8470    3.5810 nb        1 IQU     -0.637000
      8 C8         -2.6650   -1.5770    2.3510 ca        1 IQU      0.521200
      9 C9         -1.9550   -0.9490    1.3240 ca        1 IQU     -0.341300
     10 C10        -0.6140   -0.5670    1.5400 ca        1 IQU      0.147000
     11 S          -0.2440    0.4060   -0.8900 s4        1 IQU      1.681300
     12 O1          0.6700    0.9520   -1.7400 o         1 IQU     -0.439900
     13 O2         -1.4800    0.0940   -1.3520 o         1 IQU     -0.439900
     14 N1'        -1.2250    2.8930   -0.8870 n3        1 IQU     -0.967800
     15 C2'        -1.3250    3.2610   -2.2790 c3        1 IQU      0.116800
     16 C3'        -1.8780    4.6830   -2.5380 c3        1 IQU      0.056800
     17 N4'        -1.9640    5.0070   -3.9880 n4        1 IQU     -0.831600
     18 H2          2.2040    0.8680    0.1500 ha        1 IQU      0.176000
     19 H3          3.1250    0.3560    2.3790 ha        1 IQU      0.196000
     20 H4          1.7020   -0.7580    4.1140 ha        1 IQU      0.189000
     21 H6         -0.4720   -1.7320    4.8090 h4        1 IQU      0.067100
     22 H8         -3.7190   -1.8980    2.2070 h4        1 IQU      0.069100
     23 H9         -2.4710   -0.7870    0.3650 ha        1 IQU      0.178000
     24 H1'        -0.6300    3.5260   -0.3830 hn        1 IQU      0.396300
     25 H2'1       -1.9950    2.5050   -2.7850 h1        1 IQU      0.099700
     26 H2'2       -0.2910    3.1740   -2.7290 h1        1 IQU      0.099700
     27 H3'1       -1.2100    5.4540   -2.0530 hx        1 IQU      0.121200
     28 H3'2       -2.9160    4.7820   -2.1020 hx        1 IQU      0.121200
     29 H4'1       -2.5900    4.3490   -4.4680 hn        1 IQU      0.473800
     30 H4'2       -2.3320    5.9600   -4.1090 hn        1 IQU      0.473800
     31 H1'2       -2.1300    2.8720   -0.4500 hn        1 IQU      0.396300
     32 H4'3       -1.0360    4.9540   -4.4250 hn        1 IQU      0.473800
@<TRIPOS>BOND
     1    1    2 ar  
     2    1   10 ar  
     3    1   11 1   
     4    2    3 ar  
     5    2   18 1   
     6    3    4 ar  
     7    3   19 1   
     8    4    5 ar  
     9    4   20 1   
    10    5    6 ar  
    11    5   10 ar  
    12    6    7 ar  
    13    6   21 1   
    14    7    8 ar  
    15    8    9 ar  
    16    8   22 1   
    17    9   10 ar  
    18    9   23 1   
    19   11   12 1   
    20   11   13 1   
    21   14   15 1   
    22   14   24 1   
    23   14   31 1   
    24   15   16 1   
    25   15   25 1   
    26   15   26 1   
    27   16   17 1   
    28   16   27 1   
    29   16   28 1   
    30   17   29 1   
    31   17   30 1   
    32   17   32 1   
@<TRIPOS>SUBSTRUCTURE
     1 IQU         1 TEMP              0 ****  ****    0 ROOT
