@<TRIPOS>MOLECULE
IQU
   30    31     1     0     0
SMALL
bcc


@<TRIPOS>ATOM
      1 C1         -0.4350   -0.7780    0.0990 ca        1 IQU     -0.372500
      2 C2         -0.5950   -1.6890    1.1280 ca        1 IQU      0.017000
      3 C3         -1.7830   -1.7660    1.8840 ca        1 IQU     -0.169000
      4 C4         -2.8250   -0.9100    1.6110 ca        1 IQU     -0.034000
      5 C5         -2.7080    0.0330    0.5620 ca        1 IQU     -0.191300
      6 C6         -3.7740    0.9410    0.2440 ca        1 IQU      0.434200
      7 N7         -3.7210    1.8270   -0.7360 nb        1 IQU     -0.666000
      8 C8         -2.5790    1.8610   -1.4920 ca        1 IQU      0.409200
      9 C9         -1.4850    1.0420   -1.2770 ca        1 IQU     -0.263300
     10 C10        -1.5180    0.0950   -0.2130 ca        1 IQU      0.084000
     11 S           1.0500   -0.7560   -0.7300 sy        1 IQU      1.514200
     12 O1          1.8020   -1.8690   -0.2890 o         1 IQU     -0.652800
     13 O2          0.8200   -0.6600   -2.1180 o         1 IQU     -0.652800
     14 N1'         1.7210    0.6230   -0.2260 n3        1 IQU     -0.919100
     15 C2'         2.6180    0.7440    0.8850 c3        1 IQU      0.222800
     16 C3'         3.9420    1.4580    0.5190 c3        1 IQU      0.146800
     17 N4'         4.7980    1.6110    1.6690 n3        1 IQU     -0.916800
     18 H2          0.2300   -2.3880    1.3710 ha        1 IQU      0.167000
     19 H3         -1.8610   -2.5120    2.6880 ha        1 IQU      0.147000
     20 H4         -3.7570   -0.9460    2.1960 ha        1 IQU      0.141000
     21 H6         -4.7050    0.9120    0.8410 h4        1 IQU      0.024100
     22 H8         -2.5890    2.6030   -2.3110 h4        1 IQU      0.029100
     23 H9         -0.6160    1.0940   -1.9510 ha        1 IQU      0.164000
     24 H1'         1.5340    1.4830   -0.6840 hn        1 IQU      0.446800
     25 H2'1        2.8610   -0.2890    1.2730 h1        1 IQU      0.058700
     26 H2'2        2.1100    1.3200    1.7130 h1        1 IQU      0.058700
     27 H3'1        3.6940    2.4460    0.0280 h1        1 IQU      0.031700
     28 H3'2        4.4950    0.8360   -0.2410 h1        1 IQU      0.031700
     29 H4'1        5.6750    2.0090    1.4010 hn        1 IQU      0.354300
     30 H4'2        4.3700    2.1840    2.3680 hn        1 IQU      0.354300
@<TRIPOS>BOND
     1    1    2 ar  
     2    1   10 ar  
     3    1   11 1   
     4    2    3 ar  
     5    2   18 1   
     6    3    4 ar  
     7    3   19 1   
     8    4    5 ar  
     9    4   20 1   
    10    5    6 ar  
    11    5   10 ar  
    12    6    7 ar  
    13    6   21 1   
    14    7    8 ar  
    15    8    9 ar  
    16    8   22 1   
    17    9   10 ar  
    18    9   23 1   
    19   11   12 2   
    20   11   13 2   
    21   11   14 1   
    22   14   15 1   
    23   14   24 1   
    24   15   16 1   
    25   15   25 1   
    26   15   26 1   
    27   16   17 1   
    28   16   27 1   
    29   16   28 1   
    30   17   29 1   
    31   17   30 1   
@<TRIPOS>SUBSTRUCTURE
     1 IQU         1 TEMP              0 ****  ****    0 ROOT
