@<TRIPOS>MOLECULE
IQU
   32    32     1     0     0
SMALL
bcc


@<TRIPOS>ATOM
      1 C1          0.0300   -0.0140    0.5210 ca        1 IQU     -0.667500
      2 C2          1.4130    0.2820    0.7410 ca        1 IQU      0.070000
      3 C3          2.0550    0.0510    1.9370 ca        1 IQU     -0.187000
      4 C4          1.3500   -0.5010    3.0130 ca        1 IQU      0.125000
      5 C5         -0.0090   -0.8140    2.8710 ca        1 IQU     -0.242300
      6 C6         -0.7510   -1.3870    3.9660 ca        1 IQU      0.506200
      7 N7         -2.0320   -1.7160    3.8890 nb        1 IQU     -0.637000
      8 C8         -2.6710   -1.4970    2.7050 ca        1 IQU      0.522200
      9 C9         -2.0560   -0.9420    1.5780 ca        1 IQU     -0.340300
     10 C10        -0.6940   -0.5830    1.6370 ca        1 IQU      0.148000
     11 S          -0.5520    0.2510   -0.8670 s4        1 IQU      1.680300
     12 O1          0.2810    0.7370   -1.8290 o         1 IQU     -0.438400
     13 O2         -1.8350   -0.0560   -1.1790 o         1 IQU     -0.438400
     14 N1'        -1.5890    2.7540   -1.0420 n8        1 IQU     -0.969800
     15 C2'        -1.1160    3.3850   -2.2490 c3        1 IQU      0.129800
     16 C3'        -1.9490    4.6040   -2.7130 c3        1 IQU      0.053800
     17 N4'        -1.4600    5.1780   -3.9950 nz        1 IQU     -0.831600
     18 H2          1.9970    0.7090   -0.1020 ha        1 IQU      0.174000
     19 H3          3.1280    0.2920    2.0490 ha        1 IQU      0.195000
     20 H4          1.8660   -0.6940    3.9740 ha        1 IQU      0.189000
     21 H6         -0.2440   -1.5770    4.9360 h4        1 IQU      0.066100
     22 H8         -3.7400   -1.7980    2.6850 h4        1 IQU      0.070100
     23 H9         -2.6650   -0.8180    0.6690 ha        1 IQU      0.179000
     24 H1'        -1.4840    3.3570   -0.2470 hn        1 IQU      0.396800
     25 H2'1       -1.1150    2.6020   -3.0650 h1        1 IQU      0.093700
     26 H2'2       -0.0470    3.7080   -2.0820 h1        1 IQU      0.093700
     27 H3'1       -1.9100    5.4210   -1.9330 hx        1 IQU      0.121700
     28 H3'2       -3.0280    4.3040   -2.8630 hx        1 IQU      0.121700
     29 H4'1       -1.5040    4.4760   -4.7440 hn        1 IQU      0.473467
     30 H4'2       -2.0440    5.9820   -4.2610 hn        1 IQU      0.473467
     31 H1'2       -2.5540    2.4810   -1.1250 hn        1 IQU      0.396800
     32 H4'3       -0.4870    5.4940   -3.9010 hn        1 IQU      0.473467
@<TRIPOS>BOND
     1    1    2 ar  
     2    1   10 ar  
     3    1   11 1   
     4    2    3 ar  
     5    2   18 1   
     6    3    4 ar  
     7    3   19 1   
     8    4    5 ar  
     9    4   20 1   
    10    5    6 ar  
    11    5   10 ar  
    12    6    7 ar  
    13    6   21 1   
    14    7    8 ar  
    15    8    9 ar  
    16    8   22 1   
    17    9   10 ar  
    18    9   23 1   
    19   11   12 1   
    20   11   13 1   
    21   14   15 1   
    22   14   24 1   
    23   14   31 1   
    24   15   16 1   
    25   15   25 1   
    26   15   26 1   
    27   16   17 1   
    28   16   27 1   
    29   16   28 1   
    30   17   29 1   
    31   17   30 1   
    32   17   32 1   
@<TRIPOS>SUBSTRUCTURE
     1 IQU         1 TEMP              0 ****  ****    0 ROOT
