@<TRIPOS>MOLECULE
IQW
   31    30     1     0     0
SMALL
bcc


@<TRIPOS>ATOM
      1 N1          0.0850    0.4730    0.2990 nb        1 IQW     -0.820000
      2 C2          1.1560   -0.3690    0.0790 ca        1 IQW      0.910900
      3 N3          1.8520   -1.1180    1.0440 nb        1 IQW     -0.730000
      4 C4          1.4240   -0.9160    2.2990 ca        1 IQW      0.655300
      5 C5          0.3520   -0.0160    2.6450 ca        1 IQW     -0.488900
      6 C6         -0.3060    0.6700    1.6050 ca        1 IQW      0.740200
      7 NAB         1.6270   -0.4630   -1.2310 nh        1 IQW     -0.934500
      8 NAC        -1.3110    1.5890    1.8940 nh        1 IQW     -0.931500
      9 CAD        -3.5300   -0.9760    5.4440 c3        1 IQW      0.082800
     10 CAE        -4.8200    1.3590    2.7900 c1        1 IQW     -0.165500
     11 CAF        -2.2030   -0.6510    4.9980 c1        1 IQW     -0.114100
     12 CAG        -4.1820    2.3660    2.6950 c1        1 IQW     -0.165500
     13 CAH         1.2680   -1.0800    4.5040 c2        1 IQW      0.434200
     14 NAK         1.9490   -1.5530    3.4980 ne        1 IQW     -0.591700
     15 CAL        -3.7210   -0.7820    6.8540 c1        1 IQW     -0.147100
     16 CAN        -1.1070   -0.3740    4.6080 c1        1 IQW     -0.123100
     17 CAP         0.1970   -0.0260    4.1370 c3        1 IQW     -0.002600
     18 HAA        -6.1600   -1.7100    3.2600 ha        1 IQW      0.000500
     19 HAAA       -4.0580   -0.4890    9.0660 ha        1 IQW      0.167500
     20 HAAB       -5.6340   -1.7100    3.6860 ha        1 IQW      0.000500
     21 HNAB        1.0350   -0.1330   -1.9560 hn        1 IQW      0.434300
     22 HNAA        2.2300   -1.2210   -1.4450 hn        1 IQW      0.434300
     23 HNAC       -1.8800    1.8970    1.1370 hn        1 IQW      0.418800
     24 HNAD       -1.8020    1.4120    2.7440 hn        1 IQW      0.418800
     25 HAD        -3.7550   -2.0540    5.1830 hc        1 IQW      0.079700
     26 HAE        -5.3860    0.4640    2.8670 ha        1 IQW      0.166000
     27 HAF        -4.2720   -0.3350    4.8750 hc        1 IQW      0.079700
     28 HAG        -3.6280    3.2700    2.6200 ha        1 IQW      0.166000
     29 HAH         0.5060    0.9690    4.5740 hc        1 IQW      0.104700
     30 HNAK        1.4360   -1.3890    5.5420 h4        1 IQW      0.052800
     31 CAA        -3.8980   -0.6260    8.0270 c1        1 IQW     -0.133500
@<TRIPOS>BOND
     1    1    2 ar  
     2    1    6 ar  
     3    2    3 ar  
     4    2    7 1   
     5    3    4 ar  
     6    4    5 ar  
     7    4   14 1   
     8    5    6 ar  
     9    5   17 1   
    10    6    8 1   
    11    7   21 1   
    12    7   22 1   
    13    8   23 1   
    14    8   24 1   
    15    9   11 1   
    16    9   15 1   
    17    9   25 1   
    18    9   27 1   
    19   10   12 3   
    20   10   26 1   
    21   11   16 3   
    22   12   28 1   
    23   13   14 2   
    24   13   17 1   
    25   13   30 1   
    26   15   31 3   
    27   16   17 1   
    28   17   29 1   
    29   18   20 1   
    30   19   31 1   
@<TRIPOS>SUBSTRUCTURE
     1 IQW         1 TEMP              0 ****  ****    0 ROOT
