@<TRIPOS>MOLECULE
IQW
   31    30     1     0     0
SMALL
bcc


@<TRIPOS>ATOM
      1 N1         -0.0520    0.6180    0.4280 nb        1 IQW     -0.819000
      2 C2          1.0500   -0.1520    0.1200 ca        1 IQW      0.909900
      3 N3          1.8820   -0.8330    1.0250 nb        1 IQW     -0.731000
      4 C4          1.4970   -0.7230    2.3050 ca        1 IQW      0.654300
      5 C5          0.3540    0.0440    2.7350 ca        1 IQW     -0.488900
      6 C6         -0.4010    0.7220    1.7570 ca        1 IQW      0.741200
      7 NAB         1.3410   -0.3240   -1.2340 nv        1 IQW     -0.932500
      8 NAC        -1.4510    1.5540    2.1300 nv        1 IQW     -0.931500
      9 CAD        -3.2070   -1.5690    5.6780 c3        1 IQW      0.081800
     10 CAE        -4.8810    1.4740    2.6070 c1        1 IQW     -0.166000
     11 CAF        -1.9810   -1.0200    5.1680 c1        1 IQW     -0.114100
     12 CAG        -4.2950    2.5130    2.5350 c1        1 IQW     -0.166000
     13 CAH         1.4740   -0.9720    4.5080 c2        1 IQW      0.433200
     14 NAK         2.1540   -1.3310    3.4540 ne        1 IQW     -0.590700
     15 CAL        -3.8150   -0.7580    6.6960 c1        1 IQW     -0.149100
     16 CAN        -0.9570   -0.5750    4.7390 c1        1 IQW     -0.123100
     17 CAP         0.2690   -0.0430    4.2300 c3        1 IQW     -0.002600
     18 HAA        -5.8530   -1.6150    3.4480 ha        1 IQW      0.001500
     19 HAAA       -4.7980    0.4890    8.2990 ha        1 IQW      0.167500
     20 HAAB       -5.3880   -1.7700    2.9800 ha        1 IQW      0.001500
     21 HNAB        0.9360    0.3190   -1.8720 hn        1 IQW      0.432800
     22 HNAA        2.2390   -0.6820   -1.4620 hn        1 IQW      0.432800
     23 HNAC       -2.0820    1.8450    1.4160 hn        1 IQW      0.420300
     24 HNAD       -1.8800    1.3190    2.9980 hn        1 IQW      0.420300
     25 HAD        -3.0010   -2.6000    6.0980 hc        1 IQW      0.081200
     26 HAE        -5.4000    0.5490    2.6720 ha        1 IQW      0.166000
     27 HAF        -3.9380   -1.6990    4.8210 hc        1 IQW      0.081200
     28 HAG        -3.7840    3.4420    2.4750 ha        1 IQW      0.166000
     29 HAH         0.4710    0.9650    4.6990 hc        1 IQW      0.103700
     30 HNAK        1.7290   -1.2910    5.5240 h4        1 IQW      0.051800
     31 CAA        -4.3350   -0.0960    7.5450 c1        1 IQW     -0.134500
@<TRIPOS>BOND
     1    1    2 ar  
     2    1    6 ar  
     3    2    3 ar  
     4    2    7 1   
     5    3    4 ar  
     6    4    5 ar  
     7    4   14 1   
     8    5    6 ar  
     9    5   17 1   
    10    6    8 1   
    11    7   21 1   
    12    7   22 1   
    13    8   23 1   
    14    8   24 1   
    15    9   11 1   
    16    9   15 1   
    17    9   25 1   
    18    9   27 1   
    19   10   12 3   
    20   10   26 1   
    21   11   16 3   
    22   12   28 1   
    23   13   14 2   
    24   13   17 1   
    25   13   30 1   
    26   15   31 3   
    27   16   17 1   
    28   17   29 1   
    29   18   20 1   
    30   19   31 1   
@<TRIPOS>SUBSTRUCTURE
     1 IQW         1 TEMP              0 ****  ****    0 ROOT
