@<TRIPOS>MOLECULE
IQX
   44    46     1     0     0
SMALL
bcc


@<TRIPOS>ATOM
      1 N1          0.3220    0.3860    0.0460 nb        1 IQX     -0.662000
      2 C2          1.6230    0.0600    0.2680 ca        1 IQX      0.565500
      3 C3         -0.4660    0.5410    1.1180 ca        1 IQX      0.407200
      4 C4          2.1890   -0.1090    1.5810 ca        1 IQX      0.038300
      5 C5         -0.0220    0.4020    2.4540 ca        1 IQX     -0.086300
      6 C6          1.3230    0.0830    2.6760 ca        1 IQX     -0.120000
      7 C7         -0.9340    0.5780    3.5530 cc        1 IQX     -0.234400
      8 C8         -1.8700    1.6120    3.7080 cd        1 IQX      0.399600
      9 N9         -2.6360    1.5340    4.8570 nd        1 IQX     -0.692000
     10 C10        -2.2720    0.4350    5.5680 cc        1 IQX      0.492300
     11 S11        -1.0090   -0.4920    4.8460 ss        1 IQX      0.045700
     12 C12        -2.0610    2.7280    2.7510 c3        1 IQX     -0.133400
     13 N13        -2.8690    0.0970    6.7820 n         1 IQX     -0.532400
     14 C14        -2.5620   -1.0630    7.4880 c         1 IQX      0.660100
     15 C15        -3.3040   -1.2870    8.7790 c3        1 IQX     -0.171100
     16 O16        -1.7090   -1.8620    7.0580 o         1 IQX     -0.584100
     17 N17         3.5390   -0.4300    1.7350 nh        1 IQX     -0.759500
     18 S18         4.2290   -1.3770    2.8840 sy        1 IQX      1.563200
     19 O19         5.6210   -1.2250    2.7390 o         1 IQX     -0.649800
     20 O20         3.6900   -1.0870    4.1520 o         1 IQX     -0.649800
     21 C21         3.7650   -2.9070    2.4580 cc        1 IQX     -0.607900
     22 C22         4.1310   -3.5330    1.2340 cd        1 IQX      0.510600
     23 S23         2.8670   -3.9770    3.3580 ss        1 IQX      0.142700
     24 C24         2.9740   -5.1760    2.1830 cc        1 IQX      0.397700
     25 N25         3.6780   -4.8220    1.0850 nd        1 IQX     -0.653000
     26 C26         4.9280   -2.8700    0.1720 c3        1 IQX     -0.177400
     27 C27         2.3420   -6.5020    2.3590 c3        1 IQX     -0.143400
     28 F28         2.4150   -0.0920   -0.8260 f         1 IQX     -0.227200
     29 H3         -1.5210    0.7930    0.8990 h4        1 IQX      0.039100
     30 H6          1.7020   -0.0130    3.7110 ha        1 IQX      0.186000
     31 H12        -2.9310    2.5080    2.0820 hc        1 IQX      0.056700
     32 H12A       -1.1450    2.8520    2.1220 hc        1 IQX      0.056700
     33 H12B       -2.2630    3.6900    3.2850 hc        1 IQX      0.056700
     34 H15        -4.4040   -1.3450    8.5960 hc        1 IQX      0.075367
     35 H15A       -2.9570   -2.2520    9.2250 hc        1 IQX      0.075367
     36 H15B       -3.0950   -0.4580    9.4990 hc        1 IQX      0.075367
     37 HN17        4.1040   -0.0950    0.9830 hn        1 IQX      0.460800
     38 H26         5.3820   -3.6180   -0.5260 hc        1 IQX      0.077700
     39 H26A        4.2610   -2.1960   -0.4250 hc        1 IQX      0.077700
     40 H26B        5.7540   -2.2670    0.6300 hc        1 IQX      0.077700
     41 H27         1.8160   -6.5530    3.3440 hc        1 IQX      0.067700
     42 H27A        1.5990   -6.6920    1.5420 hc        1 IQX      0.067700
     43 H27B        3.1150   -7.3110    2.3190 hc        1 IQX      0.067700
     44 HN13       -3.5660    0.7130    7.1390 hn        1 IQX      0.340500
@<TRIPOS>BOND
     1    1    2 ar  
     2    1    3 ar  
     3    2    4 ar  
     4    2   28 1   
     5    3    5 ar  
     6    3   29 1   
     7    4    6 ar  
     8    4   17 1   
     9    5    6 ar  
    10    5    7 1   
    11    6   30 1   
    12    7    8 2   
    13    7   11 1   
    14    8    9 1   
    15    8   12 1   
    16    9   10 2   
    17   10   11 1   
    18   10   13 1   
    19   12   31 1   
    20   12   32 1   
    21   12   33 1   
    22   13   14 1   
    23   13   44 1   
    24   14   15 1   
    25   14   16 2   
    26   15   34 1   
    27   15   35 1   
    28   15   36 1   
    29   17   18 1   
    30   17   37 1   
    31   18   19 2   
    32   18   20 2   
    33   18   21 1   
    34   21   22 2   
    35   21   23 1   
    36   22   25 1   
    37   22   26 1   
    38   23   24 1   
    39   24   25 2   
    40   24   27 1   
    41   26   38 1   
    42   26   39 1   
    43   26   40 1   
    44   27   41 1   
    45   27   42 1   
    46   27   43 1   
@<TRIPOS>SUBSTRUCTURE
     1 IQX         1 TEMP              0 ****  ****    0 ROOT
