@<TRIPOS>MOLECULE
IQX
   44    46     1     0     0
SMALL
bcc


@<TRIPOS>ATOM
      1 N1          0.3470    0.4060    0.0490 nb        1 IQX     -0.662000
      2 C2          1.6440    0.0660    0.2730 ca        1 IQX      0.565500
      3 C3         -0.4420    0.5640    1.1190 ca        1 IQX      0.407200
      4 C4          2.2050   -0.1140    1.5860 ca        1 IQX      0.038300
      5 C5         -0.0040    0.4140    2.4560 ca        1 IQX     -0.086300
      6 C6          1.3390    0.0810    2.6810 ca        1 IQX     -0.120000
      7 C7         -0.9170    0.5940    3.5540 cc        1 IQX     -0.234400
      8 C8         -1.8430    1.6350    3.7110 cd        1 IQX      0.399600
      9 N9         -2.6130    1.5590    4.8580 nd        1 IQX     -0.692000
     10 C10        -2.2620    0.4520    5.5640 cc        1 IQX      0.492300
     11 S11        -1.0060   -0.4820    4.8400 ss        1 IQX      0.045700
     12 C12        -2.0200    2.7590    2.7590 c3        1 IQX     -0.133400
     13 N13        -2.8650    0.1140    6.7740 ns        1 IQX     -0.531400
     14 C14        -2.5720   -1.0520    7.4750 c         1 IQX      0.660100
     15 C15        -3.3200   -1.2760    8.7630 c3        1 IQX     -0.171100
     16 O16        -1.7250   -1.8570    7.0430 o         1 IQX     -0.584100
     17 N17         3.5520   -0.4490    1.7430 nu        1 IQX     -0.759500
     18 S18         4.2290   -1.4060    2.8910 sy        1 IQX      1.563200
     19 O19         5.6230   -1.2680    2.7480 o         1 IQX     -0.649800
     20 O20         3.6920   -1.1120    4.1590 o         1 IQX     -0.649800
     21 C21         3.7510   -2.9300    2.4610 cc        1 IQX     -0.608900
     22 C22         4.1130   -3.5570    1.2370 cd        1 IQX      0.510600
     23 S23         2.8380   -3.9920    3.3580 ss        1 IQX      0.142700
     24 C24         2.9350   -5.1900    2.1800 cc        1 IQX      0.398700
     25 N25         3.6460   -4.8420    1.0850 nd        1 IQX     -0.653000
     26 C26         4.9190   -2.9020    0.1780 c3        1 IQX     -0.177400
     27 C27         2.2880   -6.5090    2.3530 c3        1 IQX     -0.143400
     28 F28         2.4380   -0.0880   -0.8200 f         1 IQX     -0.227200
     29 H3         -1.4940    0.8270    0.8990 h4        1 IQX      0.039100
     30 H6          1.7140   -0.0230    3.7160 ha        1 IQX      0.186000
     31 H12        -2.2150    3.7190    3.2980 hc        1 IQX      0.056700
     32 H12A       -2.8910    2.5500    2.0870 hc        1 IQX      0.056700
     33 H12B       -1.1010    2.8770    2.1340 hc        1 IQX      0.056700
     34 H15        -2.9840   -2.2470    9.2040 hc        1 IQX      0.075367
     35 H15A       -4.4200   -1.3230    8.5750 hc        1 IQX      0.075367
     36 H15B       -3.1060   -0.4540    9.4880 hc        1 IQX      0.075367
     37 HN17        4.1220   -0.1180    0.9920 hn        1 IQX      0.460800
     38 H26         4.2610   -2.2190   -0.4200 hc        1 IQX      0.077700
     39 H26A        5.7500   -2.3090    0.6390 hc        1 IQX      0.077700
     40 H26B        5.3670   -3.6530   -0.5210 hc        1 IQX      0.077700
     41 H27         1.7590   -6.5560    3.3360 hc        1 IQX      0.067700
     42 H27A        1.5460   -6.6900    1.5340 hc        1 IQX      0.067700
     43 H27B        3.0530   -7.3260    2.3140 hc        1 IQX      0.067700
     44 HN13       -3.5580    0.7350    7.1330 hn        1 IQX      0.340500
@<TRIPOS>BOND
     1    1    2 ar  
     2    1    3 ar  
     3    2    4 ar  
     4    2   28 1   
     5    3    5 ar  
     6    3   29 1   
     7    4    6 ar  
     8    4   17 1   
     9    5    6 ar  
    10    5    7 1   
    11    6   30 1   
    12    7    8 2   
    13    7   11 1   
    14    8    9 1   
    15    8   12 1   
    16    9   10 2   
    17   10   11 1   
    18   10   13 1   
    19   12   31 1   
    20   12   32 1   
    21   12   33 1   
    22   13   14 1   
    23   13   44 1   
    24   14   15 1   
    25   14   16 2   
    26   15   34 1   
    27   15   35 1   
    28   15   36 1   
    29   17   18 1   
    30   17   37 1   
    31   18   19 2   
    32   18   20 2   
    33   18   21 1   
    34   21   22 2   
    35   21   23 1   
    36   22   25 1   
    37   22   26 1   
    38   23   24 1   
    39   24   25 2   
    40   24   27 1   
    41   26   38 1   
    42   26   39 1   
    43   26   40 1   
    44   27   41 1   
    45   27   42 1   
    46   27   43 1   
@<TRIPOS>SUBSTRUCTURE
     1 IQX         1 TEMP              0 ****  ****    0 ROOT
