@<TRIPOS>MOLECULE
IQX
   46    47     1     0     0
SMALL
bcc


@<TRIPOS>ATOM
      1 N1         -1.2170   -2.9810    1.9390 nb        1 IQX     -0.634000
      2 C2          0.0500   -2.7050    1.5270 ca        1 IQX      0.638500
      3 C3         -1.7210   -2.2420    2.9350 ca        1 IQX      0.469200
      4 C4          0.8650   -1.6780    2.1140 ca        1 IQX     -0.108700
      5 C5         -1.0100   -1.1980    3.5790 ca        1 IQX     -0.157300
      6 C6          0.2930   -0.9180    3.1540 ca        1 IQX     -0.053000
      7 C7         -1.6520   -0.4350    4.6240 cc        1 IQX     -0.160400
      8 C8         -2.6750    0.5240    4.4220 cd        1 IQX      0.411600
      9 N9         -3.1490    1.0890    5.5820 nd        1 IQX     -0.596000
     10 C10        -2.4900    0.5540    6.6450 cc        1 IQX      0.344300
     11 S11        -1.3140   -0.6100    6.2430 ss        1 IQX      0.159700
     12 C12        -3.2080    0.9160    3.0950 c3        1 IQX     -0.147400
     13 N13        -2.8000    0.9760    8.0000 n4        1 IQX     -0.639500
     14 C14        -2.4630    2.4720    8.2060 c         1 IQX      0.581100
     15 C15        -3.6040    3.4050    8.0270 c3        1 IQX     -0.185100
     16 O16        -1.3030    2.6820    8.5040 o         1 IQX     -0.394100
     17 N17         2.2070   -1.4730    1.6730 nh        1 IQX     -0.863200
     18 S18         3.9320   -2.8690    2.7820 s4        1 IQX      1.737300
     19 O19         4.4840   -1.7150    3.2370 o         1 IQX     -0.441400
     20 O20         3.0200   -3.5460    3.5240 o         1 IQX     -0.441400
     21 C21         4.5130   -3.5420    1.5550 cc        1 IQX     -0.872900
     22 C22         5.5930   -2.9680    0.7350 cd        1 IQX      0.585600
     23 S23         4.1510   -5.0550    0.8870 ss        1 IQX      0.238700
     24 C24         5.2910   -4.9130   -0.3120 cc        1 IQX      0.495700
     25 N25         6.0020   -3.7390   -0.2890 nd        1 IQX     -0.626000
     26 C26         6.1970   -1.6460    1.0240 c3        1 IQX     -0.191400
     27 C27         5.5270   -5.9650   -1.3190 c3        1 IQX     -0.182400
     28 F28         0.5460   -3.4440    0.5070 f         1 IQX     -0.205200
     29 H3         -2.7580   -2.4990    3.2310 h4        1 IQX      0.063100
     30 H6          0.8640   -0.1010    3.6250 ha        1 IQX      0.163000
     31 H12        -2.9030    0.1620    2.3270 hc        1 IQX      0.081367
     32 H12A       -4.3260    0.9810    3.1120 hc        1 IQX      0.081367
     33 H12B       -2.8040    1.9190    2.8010 hc        1 IQX      0.081367
     34 H15        -3.2230    4.4550    8.1520 hc        1 IQX      0.126033
     35 H15A       -4.0560    3.3020    7.0060 hc        1 IQX      0.126033
     36 H15B       -4.3940    3.2170    8.7990 hc        1 IQX      0.126033
     37 HN17        2.5050   -0.5320    1.8860 hn        1 IQX      0.410300
     38 H26         5.4020   -0.8600    1.0820 hc        1 IQX      0.101367
     39 H26A        6.9380   -1.3470    0.2350 hc        1 IQX      0.101367
     40 H26B        6.7330   -1.6810    2.0100 hc        1 IQX      0.101367
     41 H27         6.5890   -6.3300   -1.2600 hc        1 IQX      0.108033
     42 H27A        4.8360   -6.8310   -1.1650 hc        1 IQX      0.108033
     43 H27B        5.3760   -5.5560   -2.3560 hc        1 IQX      0.108033
     44 HN13       -3.8030    0.8300    8.1810 hn        1 IQX      0.470300
     45 H132       -2.2500    0.4060    8.6550 hn        1 IQX      0.470300
     46 H172        2.2600   -1.6160    0.6750 hn        1 IQX      0.410300
@<TRIPOS>BOND
     1    1    2 ar  
     2    1    3 ar  
     3    2    4 ar  
     4    2   28 1   
     5    3    5 ar  
     6    3   29 1   
     7    4    6 ar  
     8    4   17 1   
     9    5    6 ar  
    10    5    7 1   
    11    6   30 1   
    12    7    8 2   
    13    7   11 1   
    14    8    9 1   
    15    8   12 1   
    16    9   10 2   
    17   10   11 1   
    18   10   13 1   
    19   12   31 1   
    20   12   32 1   
    21   12   33 1   
    22   13   14 1   
    23   13   44 1   
    24   13   45 1   
    25   14   15 1   
    26   14   16 2   
    27   15   34 1   
    28   15   35 1   
    29   15   36 1   
    30   17   37 1   
    31   17   46 1   
    32   18   19 1   
    33   18   20 1   
    34   18   21 1   
    35   21   22 2   
    36   21   23 1   
    37   22   25 1   
    38   22   26 1   
    39   23   24 1   
    40   24   25 2   
    41   24   27 1   
    42   26   38 1   
    43   26   39 1   
    44   26   40 1   
    45   27   41 1   
    46   27   42 1   
    47   27   43 1   
@<TRIPOS>SUBSTRUCTURE
     1 IQX         1 TEMP              0 ****  ****    0 ROOT
