@<TRIPOS>MOLECULE
IQX
   44    46     1     0     0
SMALL
bcc


@<TRIPOS>ATOM
      1 N1         -0.6620   -3.1440   -1.2730 nb        1 IQX     -0.662000
      2 C2         -1.6410   -2.5410   -0.5480 ca        1 IQX      0.565500
      3 C3          0.5950   -2.7250   -1.0800 ca        1 IQX      0.407200
      4 C4         -1.3930   -1.5000    0.4150 ca        1 IQX      0.038300
      5 C5          0.9610   -1.7120   -0.1620 ca        1 IQX     -0.086300
      6 C6         -0.0510   -1.1070    0.5960 ca        1 IQX     -0.120000
      7 C7          2.3350   -1.3130   -0.0170 cc        1 IQX     -0.234400
      8 C8          3.4470   -2.1610    0.0940 cd        1 IQX      0.399600
      9 N9          4.6630   -1.5110    0.2080 nd        1 IQX     -0.692000
     10 C10         4.4610   -0.1680    0.1830 cc        1 IQX      0.492300
     11 S11         2.8080    0.2980    0.0250 ss        1 IQX      0.045700
     12 C12         3.3820   -3.6420    0.0990 c3        1 IQX     -0.133400
     13 N13         5.5060    0.7480    0.2860 n         1 IQX     -0.531400
     14 C14         5.3290    2.1260    0.1890 c         1 IQX      0.660100
     15 C15         6.5640    2.9790    0.3110 c3        1 IQX     -0.171100
     16 O16         4.1940    2.6090    0.0140 o         1 IQX     -0.584100
     17 N17        -2.4460   -0.9350    1.1360 nh        1 IQX     -0.759500
     18 S18        -2.6100    0.6180    1.6380 sy        1 IQX      1.563200
     19 O19        -3.7280    0.6420    2.4930 o         1 IQX     -0.649800
     20 O20        -1.3960    1.0960    2.1710 o         1 IQX     -0.649800
     21 C21        -2.9290    1.4480    0.2430 cc        1 IQX     -0.607900
     22 C22        -4.0800    1.2270   -0.5630 cd        1 IQX      0.510600
     23 S23        -2.0330    2.6780   -0.4270 ss        1 IQX      0.142700
     24 C24        -3.1200    2.8830   -1.6950 cc        1 IQX      0.398700
     25 N25        -4.1820    2.0460   -1.6630 nd        1 IQX     -0.653000
     26 C26        -5.1040    0.1930   -0.2770 c3        1 IQX     -0.177400
     27 C27        -2.9120    3.9020   -2.7460 c3        1 IQX     -0.143400
     28 F28        -2.9130   -2.9760   -0.7490 f         1 IQX     -0.227200
     29 H3          1.3640   -3.2280   -1.6960 h4        1 IQX      0.039100
     30 H6          0.2080   -0.3260    1.3350 ha        1 IQX      0.186000
     31 H12         3.6180   -4.0350   -0.9220 hc        1 IQX      0.056700
     32 H12A        4.1170   -4.0770    0.8210 hc        1 IQX      0.056700
     33 H12B        2.3540   -3.9770    0.3860 hc        1 IQX      0.056700
     34 H15         7.0460    2.8290    1.3080 hc        1 IQX      0.075367
     35 H15A        7.2970    2.7270   -0.4930 hc        1 IQX      0.075367
     36 H15B        6.2650    4.0520    0.2090 hc        1 IQX      0.075367
     37 HN17       -3.2100   -1.5660    1.2620 hn        1 IQX      0.460800
     38 H26        -5.3150    0.1530    0.8220 hc        1 IQX      0.077700
     39 H26A       -6.0630    0.4060   -0.8130 hc        1 IQX      0.077700
     40 H26B       -4.7280   -0.8060   -0.6210 hc        1 IQX      0.077700
     41 H27        -2.8490    3.4170   -3.7540 hc        1 IQX      0.067700
     42 H27A       -3.7670    4.6260   -2.7630 hc        1 IQX      0.067700
     43 H27B       -1.9650    4.4660   -2.5580 hc        1 IQX      0.067700
     44 HN13        6.4260    0.3850    0.4100 hn        1 IQX      0.340500
@<TRIPOS>BOND
     1    1    2 ar  
     2    1    3 ar  
     3    2    4 ar  
     4    2   28 1   
     5    3    5 ar  
     6    3   29 1   
     7    4    6 ar  
     8    4   17 1   
     9    5    6 ar  
    10    5    7 1   
    11    6   30 1   
    12    7    8 2   
    13    7   11 1   
    14    8    9 1   
    15    8   12 1   
    16    9   10 2   
    17   10   11 1   
    18   10   13 1   
    19   12   31 1   
    20   12   32 1   
    21   12   33 1   
    22   13   14 1   
    23   13   44 1   
    24   14   15 1   
    25   14   16 2   
    26   15   34 1   
    27   15   35 1   
    28   15   36 1   
    29   17   18 1   
    30   17   37 1   
    31   18   19 2   
    32   18   20 2   
    33   18   21 1   
    34   21   22 2   
    35   21   23 1   
    36   22   25 1   
    37   22   26 1   
    38   23   24 1   
    39   24   25 2   
    40   24   27 1   
    41   26   38 1   
    42   26   39 1   
    43   26   40 1   
    44   27   41 1   
    45   27   42 1   
    46   27   43 1   
@<TRIPOS>SUBSTRUCTURE
     1 IQX         1 TEMP              0 ****  ****    0 ROOT
