@<TRIPOS>MOLECULE
IQZ
   34    37     1     0     0
SMALL
bcc


@<TRIPOS>ATOM
      1 C1         -0.0440   -0.0170    0.0130 ca        1 IQZ     -0.140000
      2 C2          1.3570   -0.0360    0.0140 ca        1 IQZ     -0.060200
      3 C3          2.1050    0.0130    1.2520 ca        1 IQZ     -0.040800
      4 C4          1.4210    0.0800    2.4660 ca        1 IQZ     -0.080000
      5 C5          0.0330    0.0970    2.4490 ca        1 IQZ     -0.148000
      6 C6         -0.6860    0.0490    1.2420 ca        1 IQZ     -0.117000
      7 N7          2.2700   -0.0870   -1.0540 na        1 IQZ     -0.171400
      8 C8          3.5530   -0.0930   -0.5250 cc        1 IQZ      0.005700
      9 C9          3.4990   -0.0230    0.8800 cd        1 IQZ     -0.229400
     10 C10         4.8430   -0.1120   -1.2900 c3        1 IQZ      0.235700
     11 N11         5.9090   -0.6570   -0.4330 n3        1 IQZ     -0.720600
     12 C12         6.0000   -0.0150    0.8690 c3        1 IQZ      0.068800
     13 C13         4.7040   -0.0180    1.6760 c         1 IQZ      0.617300
     14 C16         4.7150   -0.8990   -2.6030 c3        1 IQZ     -0.076400
     15 C17         6.0410   -0.9350   -3.3340 c3        1 IQZ     -0.078400
     16 C18         7.1370   -1.4650   -2.4360 c3        1 IQZ     -0.079400
     17 C19         7.1940   -0.6920   -1.1200 c3        1 IQZ      0.173800
     18 O29         4.7470    0.0190    2.9110 o         1 IQZ     -0.546100
     19 H1         -0.6140   -0.0540   -0.9240 ha        1 IQZ      0.132000
     20 H4          1.9890    0.1160    3.4090 ha        1 IQZ      0.157000
     21 H5         -0.5220    0.1480    3.3980 ha        1 IQZ      0.133000
     22 H6         -1.7860    0.0640    1.2740 ha        1 IQZ      0.131000
     23 HN7         2.0350   -0.1980   -2.0040 hn        1 IQZ      0.302700
     24 H10         5.0730    0.9700   -1.5650 h1        1 IQZ      0.040700
     25 H121        6.7800   -0.5710    1.4640 h1        1 IQZ      0.061700
     26 H122        6.3290    1.0650    0.7930 h1        1 IQZ      0.061700
     27 H161        4.3690   -1.9430   -2.3880 hc        1 IQZ      0.050700
     28 H162        3.9480   -0.4010   -3.2500 hc        1 IQZ      0.050700
     29 H171        6.3060    0.0990   -3.6810 hc        1 IQZ      0.043700
     30 H172        5.9500   -1.5820   -4.2450 hc        1 IQZ      0.043700
     31 H181        8.1310   -1.3700   -2.9440 hc        1 IQZ      0.052700
     32 H182        6.9610   -2.5530   -2.2270 hc        1 IQZ      0.052700
     33 H191        7.5800    0.3500   -1.3280 h1        1 IQZ      0.036700
     34 H192        7.9280   -1.1980   -0.4330 h1        1 IQZ      0.036700
@<TRIPOS>BOND
     1    1    2 ar  
     2    1    6 ar  
     3    1   19 1   
     4    2    3 ar  
     5    2    7 1   
     6    3    4 ar  
     7    3    9 1   
     8    4    5 ar  
     9    4   20 1   
    10    5    6 ar  
    11    5   21 1   
    12    6   22 1   
    13    7    8 1   
    14    7   23 1   
    15    8    9 2   
    16    8   10 1   
    17    9   13 1   
    18   10   11 1   
    19   10   14 1   
    20   10   24 1   
    21   11   12 1   
    22   11   17 1   
    23   12   13 1   
    24   12   25 1   
    25   12   26 1   
    26   13   18 2   
    27   14   15 1   
    28   14   27 1   
    29   14   28 1   
    30   15   16 1   
    31   15   29 1   
    32   15   30 1   
    33   16   17 1   
    34   16   31 1   
    35   16   32 1   
    36   17   33 1   
    37   17   34 1   
@<TRIPOS>SUBSTRUCTURE
     1 IQZ         1 TEMP              0 ****  ****    0 ROOT
