@<TRIPOS>MOLECULE
IQZ
   34    37     1     0     0
SMALL
bcc


@<TRIPOS>ATOM
      1 C1         -0.0410   -0.0200    0.0160 ca        1 IQZ     -0.140000
      2 C2          1.3610   -0.0370    0.0160 ca        1 IQZ     -0.060200
      3 C3          2.1080    0.0160    1.2540 ca        1 IQZ     -0.040800
      4 C4          1.4250    0.0860    2.4680 ca        1 IQZ     -0.080000
      5 C5          0.0380    0.1010    2.4520 ca        1 IQZ     -0.148000
      6 C6         -0.6820    0.0490    1.2450 ca        1 IQZ     -0.117000
      7 N7          2.2730   -0.0910   -1.0520 na        1 IQZ     -0.171400
      8 C8          3.5560   -0.0930   -0.5240 cc        1 IQZ      0.005700
      9 C9          3.5020   -0.0180    0.8810 cd        1 IQZ     -0.229400
     10 C10         4.8460   -0.1130   -1.2900 c3        1 IQZ      0.235700
     11 N11         5.9130   -0.6530   -0.4320 n3        1 IQZ     -0.720600
     12 C12         6.0040   -0.0070    0.8680 c3        1 IQZ      0.068800
     13 C13         4.7080   -0.0090    1.6760 c         1 IQZ      0.617300
     14 C16         4.7180   -0.9030   -2.6010 c3        1 IQZ     -0.076400
     15 C17         6.0430   -0.9400   -3.3320 c3        1 IQZ     -0.078400
     16 C18         7.1410   -1.4650   -2.4330 c3        1 IQZ     -0.079400
     17 C19         7.1970   -0.6880   -1.1190 c3        1 IQZ      0.173800
     18 O29         4.7510    0.0310    2.9110 o         1 IQZ     -0.546100
     19 H1         -0.6110   -0.0610   -0.9210 ha        1 IQZ      0.132000
     20 H4          1.9940    0.1250    3.4100 ha        1 IQZ      0.157000
     21 H5         -0.5170    0.1540    3.4000 ha        1 IQZ      0.133000
     22 H6         -1.7820    0.0620    1.2780 ha        1 IQZ      0.131000
     23 HN7         2.0370   -0.2040   -2.0020 hn        1 IQZ      0.302700
     24 H10         5.0730    0.9690   -1.5680 h1        1 IQZ      0.040700
     25 H121        6.3300    1.0730    0.7890 h1        1 IQZ      0.061700
     26 H122        6.7850   -0.5610    1.4640 h1        1 IQZ      0.061700
     27 H161        3.9490   -0.4080   -3.2480 hc        1 IQZ      0.050700
     28 H162        4.3730   -1.9470   -2.3820 hc        1 IQZ      0.050700
     29 H171        5.9520   -1.5890   -4.2410 hc        1 IQZ      0.043700
     30 H172        6.3070    0.0940   -3.6820 hc        1 IQZ      0.043700
     31 H181        6.9660   -2.5530   -2.2210 hc        1 IQZ      0.052700
     32 H182        8.1340   -1.3700   -2.9420 hc        1 IQZ      0.052700
     33 H191        7.9330   -1.1920   -0.4310 h1        1 IQZ      0.036700
     34 H192        7.5820    0.3530   -1.3310 h1        1 IQZ      0.036700
@<TRIPOS>BOND
     1    1    2 ar  
     2    1    6 ar  
     3    1   19 1   
     4    2    3 ar  
     5    2    7 1   
     6    3    4 ar  
     7    3    9 1   
     8    4    5 ar  
     9    4   20 1   
    10    5    6 ar  
    11    5   21 1   
    12    6   22 1   
    13    7    8 1   
    14    7   23 1   
    15    8    9 2   
    16    8   10 1   
    17    9   13 1   
    18   10   11 1   
    19   10   14 1   
    20   10   24 1   
    21   11   12 1   
    22   11   17 1   
    23   12   13 1   
    24   12   25 1   
    25   12   26 1   
    26   13   18 2   
    27   14   15 1   
    28   14   27 1   
    29   14   28 1   
    30   15   16 1   
    31   15   29 1   
    32   15   30 1   
    33   16   17 1   
    34   16   31 1   
    35   16   32 1   
    36   17   33 1   
    37   17   34 1   
@<TRIPOS>SUBSTRUCTURE
     1 IQZ         1 TEMP              0 ****  ****    0 ROOT
