@<TRIPOS>MOLECULE
IR1
   35    39     1     0     0
SMALL
bcc


@<TRIPOS>ATOM
      1 O28        -0.0130    0.4930    0.1560 o         1 IR1     -0.416100
      2 C27         1.1890    0.3050    0.0730 c         1 IR1      0.643100
      3 N26         2.1490    0.1790    1.2470 nc        1 IR1     -0.196400
      4 N25         3.3010   -0.0030    0.8920 nd        1 IR1     -0.125000
      5 C15         3.3950   -0.0420   -0.5900 ca        1 IR1      0.396300
      6 N14         4.4840   -0.2270   -1.3780 nb        1 IR1     -0.215000
      7 C16         2.0670    0.1510   -1.1310 ca        1 IR1     -0.277900
      8 C17         1.9110    0.1490   -2.4920 ca        1 IR1     -0.127300
      9 C18         3.1120   -0.0430   -3.2580 ca        1 IR1      0.485100
     10 N13         4.3330   -0.2230   -2.6480 nb        1 IR1     -0.297000
     11 C24         3.0330   -0.0480   -4.6940 cc        1 IR1     -0.389400
     12 C12         2.2060    0.7760   -5.5060 cd        1 IR1     -0.009300
     13 C11         1.2480    1.7960   -5.2590 cd        1 IR1     -0.133000
     14 C10         0.6290    2.4090   -6.3190 cc        1 IR1     -0.088000
     15 C9          0.9440    2.0310   -7.6520 cc        1 IR1     -0.179000
     16 C8          1.8810    1.0530   -7.9080 cd        1 IR1     -0.031300
     17 C23         3.8030   -0.8480   -5.6280 cc        1 IR1      0.491200
     18 N22         3.4630   -0.5400   -6.9200 nd        1 IR1     -0.561100
     19 N7          2.5230    0.4210   -6.8530 na        1 IR1      0.207000
     20 C6          4.7900   -1.8690   -5.3000 ca        1 IR1     -0.107900
     21 C1          4.4740   -2.8890   -4.3940 ca        1 IR1     -0.094000
     22 C5          6.0560   -1.8400   -5.9010 ca        1 IR1     -0.094000
     23 C4          6.9970   -2.8180   -5.5860 ca        1 IR1     -0.132500
     24 C3          6.6810   -3.8300   -4.6800 ca        1 IR1     -0.113000
     25 C2          5.4190   -3.8660   -4.0880 ca        1 IR1     -0.132500
     26 H1          0.9380    0.2670   -2.9900 ha        1 IR1      0.170000
     27 H2          1.0390    2.0770   -4.2170 ha        1 IR1      0.156000
     28 H3         -0.1160    3.2030   -6.1540 ha        1 IR1      0.150000
     29 H4          0.4390    2.5260   -8.4940 ha        1 IR1      0.160000
     30 H5          2.1640    0.7310   -8.9260 h4        1 IR1      0.186000
     31 H6          3.4790   -2.9180   -3.9260 ha        1 IR1      0.136500
     32 H7          6.3060   -1.0430   -6.6180 ha        1 IR1      0.136500
     33 H8          7.9920   -2.7880   -6.0530 ha        1 IR1      0.135000
     34 H9          7.4270   -4.6000   -4.4320 ha        1 IR1      0.134000
     35 H10         5.1680   -4.6640   -3.3740 ha        1 IR1      0.135000
@<TRIPOS>BOND
     1    1    2 2   
     2    2    3 1   
     3    2    7 1   
     4    3    4 2   
     5    4    5 1   
     6    5    6 ar  
     7    5    7 ar  
     8    6   10 ar  
     9    7    8 ar  
    10    8    9 ar  
    11    8   26 1   
    12    9   10 ar  
    13    9   11 1   
    14   11   12 2   
    15   11   17 1   
    16   12   13 1   
    17   12   19 1   
    18   13   14 2   
    19   13   27 1   
    20   14   15 1   
    21   14   28 1   
    22   15   16 2   
    23   15   29 1   
    24   16   19 1   
    25   16   30 1   
    26   17   18 2   
    27   17   20 1   
    28   18   19 1   
    29   20   21 ar  
    30   20   22 ar  
    31   21   25 ar  
    32   21   31 1   
    33   22   23 ar  
    34   22   32 1   
    35   23   24 ar  
    36   23   33 1   
    37   24   25 ar  
    38   24   34 1   
    39   25   35 1   
@<TRIPOS>SUBSTRUCTURE
     1 IR1         1 TEMP              0 ****  ****    0 ROOT
