@<TRIPOS>MOLECULE
IR1
   35    39     1     0     0
SMALL
bcc


@<TRIPOS>ATOM
      1 O28        -0.0080    0.4940    0.1600 o         1 IR1     -0.416100
      2 C27         1.1950    0.3090    0.0760 c         1 IR1      0.643100
      3 N26         2.1570    0.1870    1.2480 nc        1 IR1     -0.196400
      4 N25         3.3090    0.0080    0.8910 nd        1 IR1     -0.125000
      5 C15         3.4000   -0.0340   -0.5910 ca        1 IR1      0.396300
      6 N14         4.4890   -0.2180   -1.3810 nb        1 IR1     -0.215000
      7 C16         2.0710    0.1550   -1.1300 ca        1 IR1     -0.277900
      8 C17         1.9120    0.1490   -2.4910 ca        1 IR1     -0.127300
      9 C18         3.1130   -0.0410   -3.2580 ca        1 IR1      0.485100
     10 N13         4.3350   -0.2170   -2.6500 nb        1 IR1     -0.297000
     11 C24         3.0310   -0.0490   -4.6940 cc        1 IR1     -0.389400
     12 C12         2.2010    0.7710   -5.5060 cd        1 IR1     -0.009300
     13 C11         1.2410    1.7900   -5.2600 cd        1 IR1     -0.133000
     14 C10         0.6190    2.3990   -6.3190 cc        1 IR1     -0.088000
     15 C9          0.9330    2.0190   -7.6530 cc        1 IR1     -0.179000
     16 C8          1.8710    1.0430   -7.9080 cd        1 IR1     -0.031300
     17 C23         3.8010   -0.8490   -5.6280 cc        1 IR1      0.491200
     18 N22         3.4590   -0.5450   -6.9200 nd        1 IR1     -0.561100
     19 N7          2.5160    0.4140   -6.8530 na        1 IR1      0.207000
     20 C6          4.7920   -1.8670   -5.3000 ca        1 IR1     -0.107900
     21 C1          4.4790   -2.8860   -4.3910 ca        1 IR1     -0.094000
     22 C5          6.0560   -1.8360   -5.9040 ca        1 IR1     -0.094000
     23 C4          7.0000   -2.8120   -5.5890 ca        1 IR1     -0.132500
     24 C3          6.6890   -3.8230   -4.6810 ca        1 IR1     -0.113000
     25 C2          5.4280   -3.8600   -4.0850 ca        1 IR1     -0.132500
     26 H1          0.9390    0.2640   -2.9870 ha        1 IR1      0.170000
     27 H2          1.0330    2.0710   -4.2180 ha        1 IR1      0.156000
     28 H3         -0.1280    3.1910   -6.1550 ha        1 IR1      0.150000
     29 H4          0.4240    2.5110   -8.4940 ha        1 IR1      0.160000
     30 H5          2.1540    0.7190   -8.9260 h4        1 IR1      0.186000
     31 H6          3.4860   -2.9170   -3.9210 ha        1 IR1      0.136500
     32 H7          6.3030   -1.0410   -6.6230 ha        1 IR1      0.136500
     33 H8          7.9940   -2.7810   -6.0590 ha        1 IR1      0.135000
     34 H9          7.4370   -4.5910   -4.4330 ha        1 IR1      0.134000
     35 H10         5.1800   -4.6580   -3.3690 ha        1 IR1      0.135000
@<TRIPOS>BOND
     1    1    2 2   
     2    2    3 1   
     3    2    7 1   
     4    3    4 2   
     5    4    5 1   
     6    5    6 ar  
     7    5    7 ar  
     8    6   10 ar  
     9    7    8 ar  
    10    8    9 ar  
    11    8   26 1   
    12    9   10 ar  
    13    9   11 1   
    14   11   12 2   
    15   11   17 1   
    16   12   13 1   
    17   12   19 1   
    18   13   14 2   
    19   13   27 1   
    20   14   15 1   
    21   14   28 1   
    22   15   16 2   
    23   15   29 1   
    24   16   19 1   
    25   16   30 1   
    26   17   18 2   
    27   17   20 1   
    28   18   19 1   
    29   20   21 ar  
    30   20   22 ar  
    31   21   25 ar  
    32   21   31 1   
    33   22   23 ar  
    34   22   32 1   
    35   23   24 ar  
    36   23   33 1   
    37   24   25 ar  
    38   24   34 1   
    39   25   35 1   
@<TRIPOS>SUBSTRUCTURE
     1 IR1         1 TEMP              0 ****  ****    0 ROOT
