@<TRIPOS>MOLECULE
IR1
   35    39     1     0     0
SMALL
bcc


@<TRIPOS>ATOM
      1 O28         4.6630    1.9730    1.0400 o         1 IR1     -0.416100
      2 C27         4.2870    1.0030    0.4040 c         1 IR1      0.643100
      3 N26         5.1910   -0.0350   -0.2460 nc        1 IR1     -0.196400
      4 N25         4.5630   -0.9030   -0.8270 nd        1 IR1     -0.125000
      5 C15         3.1020   -0.6640   -0.7110 ca        1 IR1      0.396300
      6 N14         2.0680   -1.3920   -1.2050 nb        1 IR1     -0.215000
      7 C16         2.9030    0.5400    0.0660 ca        1 IR1     -0.277900
      8 C17         1.6200    0.9570    0.3060 ca        1 IR1     -0.127300
      9 C18         0.5820    0.1380   -0.2590 ca        1 IR1      0.485100
     10 N13         0.8740   -0.9960   -0.9820 nb        1 IR1     -0.297000
     11 C24        -0.7920    0.5150   -0.0590 cc        1 IR1     -0.389400
     12 C12        -1.3240    1.8340   -0.0560 cd        1 IR1     -0.009300
     13 C11        -0.7840    3.1380   -0.2200 cd        1 IR1     -0.133000
     14 C10        -1.6200    4.2240   -0.1690 cc        1 IR1     -0.088000
     15 C9         -3.0140    4.0480    0.0430 cc        1 IR1     -0.179000
     16 C8         -3.5550    2.7900    0.1900 cd        1 IR1     -0.031300
     17 C23        -1.9380   -0.3550    0.1310 cc        1 IR1      0.491200
     18 N22        -3.0870    0.3820    0.2520 nd        1 IR1     -0.561100
     19 N7         -2.7300    1.6750    0.1390 na        1 IR1      0.207000
     20 C6         -1.9280   -1.8100    0.2180 ca        1 IR1     -0.107900
     21 C1         -1.0520   -2.4560    1.1010 ca        1 IR1     -0.094000
     22 C5         -2.8050   -2.5660   -0.5700 ca        1 IR1     -0.094000
     23 C4         -2.7930   -3.9580   -0.4830 ca        1 IR1     -0.132500
     24 C3         -1.9170   -4.5990    0.3920 ca        1 IR1     -0.113000
     25 C2         -1.0490   -3.8470    1.1850 ca        1 IR1     -0.132500
     26 H1          1.3740    1.8460    0.9030 ha        1 IR1      0.170000
     27 H2          0.2960    3.2390   -0.3980 ha        1 IR1      0.156000
     28 H3         -1.2260    5.2450   -0.2940 ha        1 IR1      0.150000
     29 H4         -3.6750    4.9260    0.0860 ha        1 IR1      0.160000
     30 H5         -4.6320    2.6020    0.3480 h4        1 IR1      0.186000
     31 H6         -0.3670   -1.8640    1.7260 ha        1 IR1      0.136500
     32 H7         -3.4980   -2.0620   -1.2600 ha        1 IR1      0.136500
     33 H8         -3.4770   -4.5490   -1.1090 ha        1 IR1      0.135000
     34 H9         -1.9090   -5.6970    0.4570 ha        1 IR1      0.134000
     35 H10        -0.3580   -4.3510    1.8760 ha        1 IR1      0.135000
@<TRIPOS>BOND
     1    1    2 2   
     2    2    3 1   
     3    2    7 1   
     4    3    4 2   
     5    4    5 1   
     6    5    6 ar  
     7    5    7 ar  
     8    6   10 ar  
     9    7    8 ar  
    10    8    9 ar  
    11    8   26 1   
    12    9   10 ar  
    13    9   11 1   
    14   11   12 2   
    15   11   17 1   
    16   12   13 1   
    17   12   19 1   
    18   13   14 2   
    19   13   27 1   
    20   14   15 1   
    21   14   28 1   
    22   15   16 2   
    23   15   29 1   
    24   16   19 1   
    25   16   30 1   
    26   17   18 2   
    27   17   20 1   
    28   18   19 1   
    29   20   21 ar  
    30   20   22 ar  
    31   21   25 ar  
    32   21   31 1   
    33   22   23 ar  
    34   22   32 1   
    35   23   24 ar  
    36   23   33 1   
    37   24   25 ar  
    38   24   34 1   
    39   25   35 1   
@<TRIPOS>SUBSTRUCTURE
     1 IR1         1 TEMP              0 ****  ****    0 ROOT
