@<TRIPOS>MOLECULE
IR4
   43    46     1     0     0
SMALL
bcc


@<TRIPOS>ATOM
      1 O           1.8200   -4.1560    0.5950 o         1 IR4     -0.575100
      2 C1          2.5510   -3.1530    0.5560 c         1 IR4      0.611300
      3 C           4.0300   -3.2500    0.7690 c3        1 IR4     -0.189100
      4 C2          2.0470   -1.8120    0.3030 cc        1 IR4     -0.277300
      5 N1          0.6940   -1.4940    0.0760 na        1 IR4      0.072700
      6 C10         0.5740   -0.0970   -0.1240 cc        1 IR4      0.038700
      7 C4          1.8870    0.4670   -0.0210 cd        1 IR4     -0.265800
      8 C5          2.2640    1.8610   -0.1430 ca        1 IR4      0.518100
      9 N           1.3390    2.8350    0.0850 nb        1 IR4     -0.684000
     10 C9          1.7350    4.1130   -0.0240 ca        1 IR4      0.404200
     11 C8          3.0430    4.5090   -0.3550 ca        1 IR4     -0.260300
     12 C7          3.9880    3.5100   -0.5930 ca        1 IR4     -0.086000
     13 C6          3.6040    2.1750   -0.4900 ca        1 IR4     -0.251300
     14 C3          2.7810   -0.6040    0.2430 cd        1 IR4     -0.062000
     15 C14        -0.4140   -2.3010    0.0320 cc        1 IR4     -0.048300
     16 C13        -1.6600   -1.7650   -0.2090 cd        1 IR4     -0.208000
     17 C12        -1.8300   -0.3560   -0.4380 cd        1 IR4      0.141600
     18 C11        -0.6990    0.4600   -0.3910 cc        1 IR4     -0.148000
     19 N2         -3.0800    0.2110   -0.7860 nh        1 IR4     -0.619000
     20 C18        -3.5400    1.3040    0.0630 c3        1 IR4      0.142800
     21 C17        -4.4370    0.8630    1.2270 c3        1 IR4      0.092400
     22 O1         -5.5050    0.0300    0.7870 os        1 IR4     -0.410600
     23 C16        -5.0540   -1.1030    0.0540 c3        1 IR4      0.092400
     24 C15        -4.1710   -0.6850   -1.1290 c3        1 IR4      0.142800
     25 H1          4.5690   -2.8730   -0.1340 hc        1 IR4      0.065033
     26 H2          4.3270   -2.6320    1.6510 hc        1 IR4      0.065033
     27 H3          4.3240   -4.3120    0.9530 hc        1 IR4      0.065033
     28 H4          0.9510    4.8670    0.1700 h4        1 IR4      0.018100
     29 H5          3.3050    5.5720   -0.4250 ha        1 IR4      0.142000
     30 H6          5.0220    3.7720   -0.8600 ha        1 IR4      0.136000
     31 H7          4.3240    1.3700   -0.6830 ha        1 IR4      0.140000
     32 H8          3.8570   -0.5260    0.3900 ha        1 IR4      0.155000
     33 H9         -0.2400   -3.3820    0.2060 h4        1 IR4      0.202000
     34 H10        -2.5240   -2.4460   -0.2130 ha        1 IR4      0.153000
     35 H11        -0.7580    1.5450   -0.5650 ha        1 IR4      0.182000
     36 H12        -2.6620    1.8710    0.4770 h1        1 IR4      0.069950
     37 H13        -4.1290    1.9950   -0.6060 h1        1 IR4      0.069950
     38 H14        -3.8410    0.3240    2.0100 h1        1 IR4      0.055950
     39 H15        -4.9500    1.7520    1.6810 h1        1 IR4      0.055950
     40 H16        -4.5050   -1.7990    0.7420 h1        1 IR4      0.055950
     41 H17        -5.9950   -1.5890   -0.3120 h1        1 IR4      0.055950
     42 H18        -4.8120   -0.1160   -1.8630 h1        1 IR4      0.069950
     43 H19        -3.7790   -1.5990   -1.6510 h1        1 IR4      0.069950
@<TRIPOS>BOND
     1    1    2 2   
     2    2    3 1   
     3    2    4 1   
     4    3   25 1   
     5    3   26 1   
     6    3   27 1   
     7    4    5 1   
     8    4   14 2   
     9    5    6 1   
    10    5   15 1   
    11    6    7 2   
    12    6   18 1   
    13    7    8 1   
    14    7   14 1   
    15    8    9 ar  
    16    8   13 ar  
    17    9   10 ar  
    18   10   11 ar  
    19   10   28 1   
    20   11   12 ar  
    21   11   29 1   
    22   12   13 ar  
    23   12   30 1   
    24   13   31 1   
    25   14   32 1   
    26   15   16 2   
    27   15   33 1   
    28   16   17 1   
    29   16   34 1   
    30   17   18 2   
    31   17   19 1   
    32   18   35 1   
    33   19   20 1   
    34   19   24 1   
    35   20   21 1   
    36   20   36 1   
    37   20   37 1   
    38   21   22 1   
    39   21   38 1   
    40   21   39 1   
    41   22   23 1   
    42   23   24 1   
    43   23   40 1   
    44   23   41 1   
    45   24   42 1   
    46   24   43 1   
@<TRIPOS>SUBSTRUCTURE
     1 IR4         1 TEMP              0 ****  ****    0 ROOT
