@<TRIPOS>MOLECULE
IR4
   43    37     1     0     0
SMALL
bcc


@<TRIPOS>ATOM
      1 O          -2.2440   -0.1780    3.9770 o         1 IR4     -0.333000
      2 C1         -1.1790    0.4310    3.8790 c1        1 IR4      0.303000
      3 C          -0.6500    1.2250    5.0610 c2        1 IR4     -0.258000
      4 C2         -0.3280    0.2910    2.6040 c2        1 IR4     -0.226000
      5 N1         -0.5160    0.6920    1.2910 n2        1 IR4      0.005000
      6 C10         0.0560   -0.2530    0.4720 c1        1 IR4      0.017000
      7 C4          0.6020   -1.2470    1.2780 c1        1 IR4     -0.143000
      8 C5          0.9730   -2.6550    1.6230 c1        1 IR4      0.068000
      9 N           0.0090   -3.5360    2.0210 n2        1 IR4     -0.143000
     10 C9          0.3650   -4.7790    2.4710 c1        1 IR4     -0.065000
     11 C8          1.7030   -5.1410    2.5210 c1        1 IR4     -0.140000
     12 C7          2.6660   -4.2550    2.1210 c1        1 IR4     -0.140000
     13 C6          2.3140   -3.0220    1.6750 c1        1 IR4     -0.185000
     14 C3          0.3660   -0.9130    2.5880 c1        1 IR4     -0.044000
     15 C14        -1.0500    1.8480    0.7450 c1        1 IR4     -0.033000
     16 C13        -1.0070    2.0540   -0.6440 c1        1 IR4     -0.198000
     17 C12        -0.4380    1.1130   -1.4580 c1        1 IR4      0.021000
     18 C11         0.0990   -0.0480   -0.9110 c1        1 IR4     -0.113000
     19 N2         -0.2660    1.1380   -2.9070 n3        1 IR4     -0.204000
     20 C18         0.5100    2.4120   -3.3060 c3        1 IR4     -0.104000
     21 C17         0.6310    2.5790   -4.8020 c3        1 IR4     -0.054500
     22 O1         -0.2360    1.9020   -5.4110 os        1 IR4     -0.272000
     23 C16        -1.4510    1.7300   -5.0810 c3        1 IR4     -0.054500
     24 C15        -1.5930    1.5490   -3.5830 c3        1 IR4     -0.104000
     25 H1         -0.1810    0.6080    5.6940 ha        1 IR4      0.106333
     26 H2         -1.4000    1.6590    5.5200 ha        1 IR4      0.106333
     27 H3         -0.0260    1.9040    4.7450 ha        1 IR4      0.106333
     28 H4         -0.3400   -5.4250    2.7640 ha        1 IR4      0.157000
     29 H5          1.9690   -6.0660    2.8560 ha        1 IR4      0.139500
     30 H6          3.6080   -4.5090    2.1550 ha        1 IR4      0.139500
     31 H7          2.9990   -2.3980    1.3920 ha        1 IR4      0.146000
     32 H8          0.7320   -1.3770    3.3740 DU        1 IR4      0.169000
     33 H9         -1.4290    2.4710    1.2860 ha        1 IR4      0.204000
     34 H10        -1.3900    2.8820   -1.0360 ha        1 IR4      0.172000
     35 H11         0.5180   -0.7340   -1.5070 ha        1 IR4      0.166000
     36 H12         0.0390    3.1990   -2.9340 h1        1 IR4      0.103250
     37 H13         1.3930    2.3700   -2.9260 h1        1 IR4      0.103250
     38 H14         1.5480    2.2740   -5.0930 h1        1 IR4      0.093500
     39 H15         0.5250    3.4870   -5.0200 h1        1 IR4      0.093500
     40 H16        -1.9680    2.5060   -5.3570 h1        1 IR4      0.093500
     41 H17        -1.7940    0.9410   -5.5330 h1        1 IR4      0.093500
     42 H18        -1.9020    2.3910   -3.1880 h1        1 IR4      0.103250
     43 H19        -2.2350    0.8840   -3.4200 h1        1 IR4      0.103250
@<TRIPOS>BOND
     1    1    2 1   
     2    2    4 1   
     3    3   25 1   
     4    3   26 1   
     5    3   27 1   
     6    4    5 1   
     7    4   14 1   
     8    5   15 1   
     9    6   18 1   
    10    7   14 1   
    11    8    9 1   
    12    8   13 1   
    13    9   10 1   
    14   10   28 1   
    15   11   12 1   
    16   11   29 1   
    17   12   30 1   
    18   13   31 1   
    19   15   33 1   
    20   16   17 1   
    21   16   34 1   
    22   17   19 1   
    23   18   35 1   
    24   19   20 1   
    25   19   24 1   
    26   20   21 1   
    27   20   36 1   
    28   20   37 1   
    29   21   22 1   
    30   21   38 1   
    31   21   39 1   
    32   22   23 1   
    33   23   24 1   
    34   23   40 1   
    35   23   41 1   
    36   24   42 1   
    37   24   43 1   
@<TRIPOS>SUBSTRUCTURE
     1 IR4         1 TEMP              0 ****  ****    0 ROOT
