@<TRIPOS>MOLECULE
IR4
   43    46     1     0     0
SMALL
bcc


@<TRIPOS>ATOM
      1 O          -0.1110    0.4470   -0.1620 o         1 IR4     -0.575100
      2 C1          1.1290    0.3870   -0.1430 c         1 IR4      0.611300
      3 C           1.9010    0.4860    1.1350 c3        1 IR4     -0.189100
      4 C2          1.9330    0.2160   -1.3440 cc        1 IR4     -0.277300
      5 N1          1.4140    0.1010   -2.6480 na        1 IR4      0.072700
      6 C10         2.4850   -0.0430   -3.5620 cc        1 IR4      0.038700
      7 C4          3.7030   -0.0200   -2.8070 cd        1 IR4     -0.265800
      8 C5          5.0590   -0.1240   -3.3080 ca        1 IR4      0.518100
      9 N           5.3280    0.2030   -4.6020 nb        1 IR4     -0.684000
     10 C9          6.6000    0.1070   -5.0210 ca        1 IR4      0.404200
     11 C8          7.6700   -0.3070   -4.2070 ca        1 IR4     -0.260300
     12 C7          7.3910   -0.6470   -2.8840 ca        1 IR4     -0.086000
     13 C6          6.0790   -0.5590   -2.4230 ca        1 IR4     -0.251300
     14 C3          3.3430    0.1410   -1.4420 cd        1 IR4     -0.062000
     15 C14         0.1160    0.1140   -3.0920 cc        1 IR4     -0.048300
     16 C13        -0.1640   -0.0160   -4.4340 cd        1 IR4     -0.208000
     17 C12         0.8880   -0.1850   -5.3990 cd        1 IR4      0.141600
     18 C11         2.2070   -0.1960   -4.9410 cc        1 IR4     -0.148000
     19 N2          0.6290   -0.4200   -6.7720 nh        1 IR4     -0.619000
     20 C18         1.2740    0.4960   -7.7060 c3        1 IR4      0.142800
     21 C17         0.4170    1.7090   -8.0910 c3        1 IR4      0.092400
     22 O1         -0.8850    1.3230   -8.5200 os        1 IR4     -0.410600
     23 C16        -1.5660    0.5220   -7.5600 c3        1 IR4      0.092400
     24 C15        -0.7360   -0.7100   -7.1740 c3        1 IR4      0.142800
     25 H1          2.5050   -0.4420    1.2870 hc        1 IR4      0.065033
     26 H2          1.2040    0.6120    1.9980 hc        1 IR4      0.065033
     27 H3          2.5920    1.3630    1.0930 hc        1 IR4      0.065033
     28 H4          6.7710    0.3840   -6.0770 h4        1 IR4      0.018100
     29 H5          8.6890   -0.3610   -4.6090 ha        1 IR4      0.142000
     30 H6          8.1940   -0.9820   -2.2110 ha        1 IR4      0.136000
     31 H7          5.8290   -0.8320   -1.3900 ha        1 IR4      0.140000
     32 H8          4.0270    0.2100   -0.5980 ha        1 IR4      0.155000
     33 H9         -0.6660    0.2390   -2.3160 h4        1 IR4      0.202000
     34 H10        -1.2170    0.0220   -4.7490 ha        1 IR4      0.153000
     35 H11         3.0580   -0.3300   -5.6250 ha        1 IR4      0.182000
     36 H12         1.4910   -0.1040   -8.6350 h1        1 IR4      0.069950
     37 H13         2.2490    0.8620   -7.2820 h1        1 IR4      0.069950
     38 H14         0.3300    2.4260   -7.2330 h1        1 IR4      0.055950
     39 H15         0.8570    2.2280   -8.9820 h1        1 IR4      0.055950
     40 H16        -1.8090    1.1440   -6.6590 h1        1 IR4      0.055950
     41 H17        -2.5100    0.2110   -8.0790 h1        1 IR4      0.055950
     42 H18        -0.6500   -1.3750   -8.0820 h1        1 IR4      0.069950
     43 H19        -1.2680   -1.2900   -6.3730 h1        1 IR4      0.069950
@<TRIPOS>BOND
     1    1    2 2   
     2    2    3 1   
     3    2    4 1   
     4    3   25 1   
     5    3   26 1   
     6    3   27 1   
     7    4    5 1   
     8    4   14 2   
     9    5    6 1   
    10    5   15 1   
    11    6    7 2   
    12    6   18 1   
    13    7    8 1   
    14    7   14 1   
    15    8    9 ar  
    16    8   13 ar  
    17    9   10 ar  
    18   10   11 ar  
    19   10   28 1   
    20   11   12 ar  
    21   11   29 1   
    22   12   13 ar  
    23   12   30 1   
    24   13   31 1   
    25   14   32 1   
    26   15   16 2   
    27   15   33 1   
    28   16   17 1   
    29   16   34 1   
    30   17   18 2   
    31   17   19 1   
    32   18   35 1   
    33   19   20 1   
    34   19   24 1   
    35   20   21 1   
    36   20   36 1   
    37   20   37 1   
    38   21   22 1   
    39   21   38 1   
    40   21   39 1   
    41   22   23 1   
    42   23   24 1   
    43   23   40 1   
    44   23   41 1   
    45   24   42 1   
    46   24   43 1   
@<TRIPOS>SUBSTRUCTURE
     1 IR4         1 TEMP              0 ****  ****    0 ROOT
