@<TRIPOS>MOLECULE
IR4
   43    46     1     0     0
SMALL
bcc


@<TRIPOS>ATOM
      1 O          -0.1100    0.4830   -0.1640 o         1 IR4     -0.575100
      2 C1          1.1300    0.4200   -0.1450 c         1 IR4      0.611300
      3 C           1.9030    0.5270    1.1320 c3        1 IR4     -0.189100
      4 C2          1.9340    0.2390   -1.3440 cc        1 IR4     -0.277300
      5 N1          1.4140    0.1150   -2.6470 na        1 IR4      0.072700
      6 C10         2.4850   -0.0390   -3.5610 cc        1 IR4      0.038700
      7 C4          3.7020   -0.0120   -2.8050 cd        1 IR4     -0.265800
      8 C5          5.0580   -0.1230   -3.3060 ca        1 IR4      0.518100
      9 N           5.3280    0.1940   -4.6030 nb        1 IR4     -0.684000
     10 C9          6.6000    0.0910   -5.0210 ca        1 IR4      0.404200
     11 C8          7.6690   -0.3200   -4.2050 ca        1 IR4     -0.260300
     12 C7          7.3890   -0.6480   -2.8780 ca        1 IR4     -0.086000
     13 C6          6.0770   -0.5540   -2.4180 ca        1 IR4     -0.251300
     14 C3          3.3440    0.1590   -1.4430 cd        1 IR4     -0.062000
     15 C14         0.1160    0.1270   -3.0910 cc        1 IR4     -0.048300
     16 C13        -0.1650   -0.0120   -4.4320 cd        1 IR4     -0.208000
     17 C12         0.8870   -0.1910   -5.3960 cd        1 IR4      0.141600
     18 C11         2.2060   -0.2010   -4.9380 cc        1 IR4     -0.148000
     19 N2          0.6280   -0.4360   -6.7670 nh        1 IR4     -0.619000
     20 C18         1.2740    0.4720   -7.7080 c3        1 IR4      0.142800
     21 C17         0.4190    1.6840   -8.1030 c3        1 IR4      0.092400
     22 O1         -0.8830    1.2980   -8.5280 os        1 IR4     -0.410600
     23 C16        -1.5650    0.5050   -7.5620 c3        1 IR4      0.092400
     24 C15        -0.7390   -0.7250   -7.1670 c3        1 IR4      0.142800
     25 H1          2.5960    1.4020    1.0840 hc        1 IR4      0.065033
     26 H2          2.5050   -0.4010    1.2910 hc        1 IR4      0.065033
     27 H3          1.2060    0.6610    1.9950 hc        1 IR4      0.065033
     28 H4          6.7710    0.3590   -6.0790 h4        1 IR4      0.018100
     29 H5          8.6880   -0.3790   -4.6060 ha        1 IR4      0.142000
     30 H6          8.1910   -0.9810   -2.2040 ha        1 IR4      0.136000
     31 H7          5.8270   -0.8190   -1.3830 ha        1 IR4      0.140000
     32 H8          4.0270    0.2330   -0.5990 ha        1 IR4      0.155000
     33 H9         -0.6660    0.2600   -2.3160 h4        1 IR4      0.202000
     34 H10        -1.2170    0.0260   -4.7470 ha        1 IR4      0.153000
     35 H11         3.0570   -0.3420   -5.6220 ha        1 IR4      0.182000
     36 H12         2.2500    0.8390   -7.2870 h1        1 IR4      0.069950
     37 H13         1.4900   -0.1350   -8.6330 h1        1 IR4      0.069950
     38 H14         0.3340    2.4080   -7.2500 h1        1 IR4      0.055950
     39 H15         0.8610    2.1960   -8.9980 h1        1 IR4      0.055950
     40 H16        -1.8080    1.1340   -6.6660 h1        1 IR4      0.055950
     41 H17        -2.5110    0.1920   -8.0780 h1        1 IR4      0.055950
     42 H18        -1.2710   -1.2980   -6.3620 h1        1 IR4      0.069950
     43 H19        -0.6540   -1.3970   -8.0700 h1        1 IR4      0.069950
@<TRIPOS>BOND
     1    1    2 2   
     2    2    3 1   
     3    2    4 1   
     4    3   25 1   
     5    3   26 1   
     6    3   27 1   
     7    4    5 1   
     8    4   14 2   
     9    5    6 1   
    10    5   15 1   
    11    6    7 2   
    12    6   18 1   
    13    7    8 1   
    14    7   14 1   
    15    8    9 ar  
    16    8   13 ar  
    17    9   10 ar  
    18   10   11 ar  
    19   10   28 1   
    20   11   12 ar  
    21   11   29 1   
    22   12   13 ar  
    23   12   30 1   
    24   13   31 1   
    25   14   32 1   
    26   15   16 2   
    27   15   33 1   
    28   16   17 1   
    29   16   34 1   
    30   17   18 2   
    31   17   19 1   
    32   18   35 1   
    33   19   20 1   
    34   19   24 1   
    35   20   21 1   
    36   20   36 1   
    37   20   37 1   
    38   21   22 1   
    39   21   38 1   
    40   21   39 1   
    41   22   23 1   
    42   23   24 1   
    43   23   40 1   
    44   23   41 1   
    45   24   42 1   
    46   24   43 1   
@<TRIPOS>SUBSTRUCTURE
     1 IR4         1 TEMP              0 ****  ****    0 ROOT
