@<TRIPOS>MOLECULE
IR4
   43    46     1     0     0
SMALL
bcc


@<TRIPOS>ATOM
      1 O          -0.1160    0.4750   -0.1670 o         1 IR4     -0.575100
      2 C1          1.1240    0.4130   -0.1460 c         1 IR4      0.611300
      3 C           1.8950    0.5200    1.1330 c3        1 IR4     -0.189100
      4 C2          1.9300    0.2350   -1.3440 cc        1 IR4     -0.277300
      5 N1          1.4120    0.1120   -2.6480 na        1 IR4      0.072700
      6 C10         2.4840   -0.0390   -3.5610 cc        1 IR4      0.038700
      7 C4          3.7010   -0.0110   -2.8040 cd        1 IR4     -0.265800
      8 C5          5.0570   -0.1180   -3.3030 ca        1 IR4      0.518100
      9 N           5.3280    0.2020   -4.5990 nb        1 IR4     -0.684000
     10 C9          6.6010    0.1030   -5.0150 ca        1 IR4      0.404200
     11 C8          7.6700   -0.3080   -4.1980 ca        1 IR4     -0.260300
     12 C7          7.3880   -0.6400   -2.8730 ca        1 IR4     -0.086000
     13 C6          6.0760   -0.5490   -2.4140 ca        1 IR4     -0.251300
     14 C3          3.3400    0.1590   -1.4410 cd        1 IR4     -0.062000
     15 C14         0.1140    0.1220   -3.0940 cc        1 IR4     -0.048300
     16 C13        -0.1640   -0.0170   -4.4360 cd        1 IR4     -0.208000
     17 C12         0.8890   -0.1930   -5.3980 cd        1 IR4      0.141600
     18 C11         2.2070   -0.2000   -4.9380 cc        1 IR4     -0.148000
     19 N2          0.6320   -0.4370   -6.7700 nh        1 IR4     -0.619000
     20 C18         1.2780    0.4730   -7.7090 c3        1 IR4      0.142800
     21 C17         0.4230    1.6840   -8.1040 c3        1 IR4      0.092400
     22 O1         -0.8790    1.2960   -8.5310 os        1 IR4     -0.410600
     23 C16        -1.5610    0.5010   -7.5670 c3        1 IR4      0.092400
     24 C15        -0.7330   -0.7280   -7.1720 c3        1 IR4      0.142800
     25 H1          1.1960    0.6520    1.9940 hc        1 IR4      0.065033
     26 H2          2.4980   -0.4070    1.2900 hc        1 IR4      0.065033
     27 H3          2.5860    1.3960    1.0860 hc        1 IR4      0.065033
     28 H4          6.7730    0.3730   -6.0720 h4        1 IR4      0.018100
     29 H5          8.6890   -0.3650   -4.5980 ha        1 IR4      0.142000
     30 H6          8.1910   -0.9720   -2.1970 ha        1 IR4      0.136000
     31 H7          5.8250   -0.8160   -1.3790 ha        1 IR4      0.140000
     32 H8          4.0220    0.2330   -0.5960 ha        1 IR4      0.155000
     33 H9         -0.6690    0.2520   -2.3200 h4        1 IR4      0.202000
     34 H10        -1.2160    0.0200   -4.7520 ha        1 IR4      0.153000
     35 H11         3.0590   -0.3390   -5.6210 ha        1 IR4      0.182000
     36 H12         2.2530    0.8400   -7.2870 h1        1 IR4      0.069950
     37 H13         1.4960   -0.1340   -8.6340 h1        1 IR4      0.069950
     38 H14         0.3350    2.4070   -7.2510 h1        1 IR4      0.055950
     39 H15         0.8650    2.1970   -8.9980 h1        1 IR4      0.055950
     40 H16        -2.5060    0.1880   -8.0850 h1        1 IR4      0.055950
     41 H17        -1.8060    1.1300   -6.6700 h1        1 IR4      0.055950
     42 H18        -0.6460   -1.3990   -8.0760 h1        1 IR4      0.069950
     43 H19        -1.2660   -1.3020   -6.3680 h1        1 IR4      0.069950
@<TRIPOS>BOND
     1    1    2 2   
     2    2    3 1   
     3    2    4 1   
     4    3   25 1   
     5    3   26 1   
     6    3   27 1   
     7    4    5 1   
     8    4   14 2   
     9    5    6 1   
    10    5   15 1   
    11    6    7 2   
    12    6   18 1   
    13    7    8 1   
    14    7   14 1   
    15    8    9 ar  
    16    8   13 ar  
    17    9   10 ar  
    18   10   11 ar  
    19   10   28 1   
    20   11   12 ar  
    21   11   29 1   
    22   12   13 ar  
    23   12   30 1   
    24   13   31 1   
    25   14   32 1   
    26   15   16 2   
    27   15   33 1   
    28   16   17 1   
    29   16   34 1   
    30   17   18 2   
    31   17   19 1   
    32   18   35 1   
    33   19   20 1   
    34   19   24 1   
    35   20   21 1   
    36   20   36 1   
    37   20   37 1   
    38   21   22 1   
    39   21   38 1   
    40   21   39 1   
    41   22   23 1   
    42   23   24 1   
    43   23   40 1   
    44   23   41 1   
    45   24   42 1   
    46   24   43 1   
@<TRIPOS>SUBSTRUCTURE
     1 IR4         1 TEMP              0 ****  ****    0 ROOT
