@<TRIPOS>MOLECULE
IR5
   46    49     1     0     0
SMALL
bcc


@<TRIPOS>ATOM
      1 C01         0.0850   -0.2630    0.0450 c3        1 IR5     -0.189100
      2 C02         1.5660   -0.0500    0.0570 c         1 IR5      0.610300
      3 O01         2.2000    0.0850    1.1160 o         1 IR5     -0.573100
      4 C03         2.1990   -0.0140   -1.2550 cc        1 IR5     -0.270300
      5 C04         1.5800   -0.1550   -2.5220 cd        1 IR5     -0.070000
      6 C05         2.5720   -0.0610   -3.5310 cd        1 IR5     -0.131200
      7 C06         2.3500   -0.1260   -4.9600 ca        1 IR5     -0.021800
      8 C07         1.6560    0.9190   -5.5880 ca        1 IR5     -0.119000
      9 C08         1.4170    0.8870   -6.9600 ca        1 IR5     -0.133000
     10 C09         1.8680   -0.1900   -7.7210 ca        1 IR5     -0.130000
     11 C10         2.5530   -1.2370   -7.1080 ca        1 IR5     -0.107000
     12 C11         2.7970   -1.2160   -5.7310 ca        1 IR5     -0.073300
     13 C12         3.5120   -2.3410   -5.0590 c3        1 IR5      0.173700
     14 O02         3.9480   -3.2810   -6.0320 oh        1 IR5     -0.602800
     15 C13         3.8200    0.1500   -2.8720 cc        1 IR5     -0.004300
     16 C14         5.1420    0.3360   -3.3560 cc        1 IR5     -0.143000
     17 C15         6.1580    0.5200   -2.4380 cd        1 IR5      0.120100
     18 O1          7.4490    0.5840   -2.9450 os        1 IR5     -0.242200
     19 C16         8.3470    1.4080   -2.2660 ca        1 IR5      0.097100
     20 C17         7.9810    2.6450   -1.7230 ca        1 IR5     -0.153000
     21 C18         8.9690    3.4480   -1.1550 ca        1 IR5     -0.108500
     22 C19        10.2970    3.0240   -1.1340 ca        1 IR5     -0.145000
     23 C20        10.6490    1.7900   -1.6820 ca        1 IR5     -0.108500
     24 C21         9.6780    0.9660   -2.2490 ca        1 IR5     -0.153000
     25 C22         5.8930    0.5410   -1.0360 cd        1 IR5     -0.208000
     26 C1          4.6040    0.3680   -0.5820 cc        1 IR5     -0.043300
     27 N1          3.5750    0.1740   -1.4750 na        1 IR5      0.070700
     28 H1         -0.4120    0.5610   -0.5230 hc        1 IR5      0.066367
     29 H2         -0.3110   -0.2770    1.0900 hc        1 IR5      0.066367
     30 H3         -0.1540   -1.2360   -0.4490 hc        1 IR5      0.066367
     31 H4          0.5150   -0.3140   -2.6820 ha        1 IR5      0.161000
     32 H5          1.3040    1.7700   -4.9870 ha        1 IR5      0.135000
     33 H6          0.8740    1.7140   -7.4410 ha        1 IR5      0.131000
     34 H7          1.6820   -0.2170   -8.8050 ha        1 IR5      0.132000
     35 H8          2.9080   -2.0930   -7.7050 ha        1 IR5      0.155000
     36 H9          2.8180   -2.8480   -4.3320 h1        1 IR5      0.038200
     37 H10         4.4010   -1.9410   -4.4930 h1        1 IR5      0.038200
     38 H11         4.4250   -3.9650   -5.5470 ho        1 IR5      0.403000
     39 H12         5.3240    0.3190   -4.4390 ha        1 IR5      0.178000
     40 H13         6.9320    2.9710   -1.7470 ha        1 IR5      0.150000
     41 H14         8.6950    4.4230   -0.7250 ha        1 IR5      0.137500
     42 H15        11.0710    3.6650   -0.6860 ha        1 IR5      0.136000
     43 H16        11.6980    1.4590   -1.6660 ha        1 IR5      0.137500
     44 H17         9.9390   -0.0060   -2.6890 ha        1 IR5      0.150000
     45 H18         6.7180    0.6930   -0.3250 ha        1 IR5      0.170000
     46 H19         4.3270    0.3710    0.4910 h4        1 IR5      0.206000
@<TRIPOS>BOND
     1    1    2 1   
     2    1   28 1   
     3    1   29 1   
     4    1   30 1   
     5    2    3 2   
     6    2    4 1   
     7    4    5 2   
     8    4   27 1   
     9    5    6 1   
    10    5   31 1   
    11    6    7 1   
    12    6   15 2   
    13    7    8 ar  
    14    7   12 ar  
    15    8    9 ar  
    16    8   32 1   
    17    9   10 ar  
    18    9   33 1   
    19   10   11 ar  
    20   10   34 1   
    21   11   12 ar  
    22   11   35 1   
    23   12   13 1   
    24   13   14 1   
    25   13   36 1   
    26   13   37 1   
    27   14   38 1   
    28   15   16 1   
    29   15   27 1   
    30   16   17 2   
    31   16   39 1   
    32   17   18 1   
    33   17   25 1   
    34   18   19 1   
    35   19   20 ar  
    36   19   24 ar  
    37   20   21 ar  
    38   20   40 1   
    39   21   22 ar  
    40   21   41 1   
    41   22   23 ar  
    42   22   42 1   
    43   23   24 ar  
    44   23   43 1   
    45   24   44 1   
    46   25   26 2   
    47   25   45 1   
    48   26   27 1   
    49   26   46 1   
@<TRIPOS>SUBSTRUCTURE
     1 IR5         1 TEMP              0 ****  ****    0 ROOT
