@<TRIPOS>MOLECULE
IR5
   46    49     1     0     0
SMALL
bcc


@<TRIPOS>ATOM
      1 C01         0.0910   -0.2800    0.0510 c3        1 IR5     -0.189100
      2 C02         1.5720   -0.0630    0.0610 c         1 IR5      0.610300
      3 O01         2.2060    0.0720    1.1190 o         1 IR5     -0.573100
      4 C03         2.2030   -0.0230   -1.2520 cc        1 IR5     -0.270300
      5 C04         1.5820   -0.1640   -2.5190 cd        1 IR5     -0.070000
      6 C05         2.5720   -0.0650   -3.5290 cd        1 IR5     -0.131200
      7 C06         2.3480   -0.1280   -4.9580 ca        1 IR5     -0.021800
      8 C07         1.6510    0.9160   -5.5830 ca        1 IR5     -0.119000
      9 C08         1.4100    0.8870   -6.9550 ca        1 IR5     -0.133000
     10 C09         1.8620   -0.1880   -7.7180 ca        1 IR5     -0.130000
     11 C10         2.5510   -1.2340   -7.1080 ca        1 IR5     -0.107000
     12 C11         2.7970   -1.2150   -5.7320 ca        1 IR5     -0.073300
     13 C12         3.5160   -2.3400   -5.0620 c3        1 IR5      0.173700
     14 O02         3.9520   -3.2770   -6.0380 oh        1 IR5     -0.602800
     15 C13         3.8210    0.1480   -2.8710 cc        1 IR5     -0.004300
     16 C14         5.1420    0.3380   -3.3570 cc        1 IR5     -0.143000
     17 C15         6.1590    0.5240   -2.4410 cd        1 IR5      0.120100
     18 O1          7.4490    0.5910   -2.9490 os        1 IR5     -0.242200
     19 C16         8.3450    1.4160   -2.2700 ca        1 IR5      0.097100
     20 C17         7.9780    2.6510   -1.7240 ca        1 IR5     -0.153000
     21 C18         8.9640    3.4560   -1.1550 ca        1 IR5     -0.108500
     22 C19        10.2930    3.0350   -1.1370 ca        1 IR5     -0.145000
     23 C20        10.6470    1.8020   -1.6880 ca        1 IR5     -0.108500
     24 C21         9.6780    0.9780   -2.2550 ca        1 IR5     -0.153000
     25 C22         5.8960    0.5410   -1.0380 cd        1 IR5     -0.208000
     26 C1          4.6080    0.3640   -0.5830 cc        1 IR5     -0.043300
     27 N1          3.5770    0.1690   -1.4740 na        1 IR5      0.070700
     28 H1         -0.4090    0.5440   -0.5150 hc        1 IR5      0.066367
     29 H2         -0.3030   -0.2970    1.0960 hc        1 IR5      0.066367
     30 H3         -0.1470   -1.2520   -0.4450 hc        1 IR5      0.066367
     31 H4          0.5170   -0.3250   -2.6770 ha        1 IR5      0.161000
     32 H5          1.2970    1.7660   -4.9800 ha        1 IR5      0.135000
     33 H6          0.8640    1.7140   -7.4330 ha        1 IR5      0.131000
     34 H7          1.6750   -0.2130   -8.8020 ha        1 IR5      0.132000
     35 H8          2.9070   -2.0880   -7.7070 ha        1 IR5      0.155000
     36 H9          2.8250   -2.8490   -4.3350 h1        1 IR5      0.038200
     37 H10         4.4040   -1.9380   -4.4980 h1        1 IR5      0.038200
     38 H11         4.4310   -3.9600   -5.5550 ho        1 IR5      0.403000
     39 H12         5.3220    0.3240   -4.4410 ha        1 IR5      0.178000
     40 H13         6.9270    2.9750   -1.7470 ha        1 IR5      0.150000
     41 H14         8.6880    4.4300   -0.7240 ha        1 IR5      0.137500
     42 H15        11.0660    3.6770   -0.6890 ha        1 IR5      0.136000
     43 H16        11.6970    1.4740   -1.6740 ha        1 IR5      0.137500
     44 H17         9.9400    0.0060   -2.6970 ha        1 IR5      0.150000
     45 H18         6.7210    0.6940   -0.3280 ha        1 IR5      0.170000
     46 H19         4.3320    0.3640    0.4910 h4        1 IR5      0.206000
@<TRIPOS>BOND
     1    1    2 1   
     2    1   28 1   
     3    1   29 1   
     4    1   30 1   
     5    2    3 2   
     6    2    4 1   
     7    4    5 2   
     8    4   27 1   
     9    5    6 1   
    10    5   31 1   
    11    6    7 1   
    12    6   15 2   
    13    7    8 ar  
    14    7   12 ar  
    15    8    9 ar  
    16    8   32 1   
    17    9   10 ar  
    18    9   33 1   
    19   10   11 ar  
    20   10   34 1   
    21   11   12 ar  
    22   11   35 1   
    23   12   13 1   
    24   13   14 1   
    25   13   36 1   
    26   13   37 1   
    27   14   38 1   
    28   15   16 1   
    29   15   27 1   
    30   16   17 2   
    31   16   39 1   
    32   17   18 1   
    33   17   25 1   
    34   18   19 1   
    35   19   20 ar  
    36   19   24 ar  
    37   20   21 ar  
    38   20   40 1   
    39   21   22 ar  
    40   21   41 1   
    41   22   23 ar  
    42   22   42 1   
    43   23   24 ar  
    44   23   43 1   
    45   24   44 1   
    46   25   26 2   
    47   25   45 1   
    48   26   27 1   
    49   26   46 1   
@<TRIPOS>SUBSTRUCTURE
     1 IR5         1 TEMP              0 ****  ****    0 ROOT
