@<TRIPOS>MOLECULE
IR6
   48    51     1     0     0
SMALL
bcc


@<TRIPOS>ATOM
      1 C01         0.2690   -0.4950    0.1390 c3        1 IR6     -0.192100
      2 C02         1.7210   -0.1410    0.1150 c         1 IR6      0.613300
      3 O01         2.3640    0.0850    1.1520 o         1 IR6     -0.575100
      4 C03         2.3230   -0.0810   -1.2130 cc        1 IR6     -0.270300
      5 C04         1.6920   -0.3080   -2.4580 cd        1 IR6     -0.037000
      6 C05         2.6560   -0.1610   -3.4940 cd        1 IR6     -0.210200
      7 C06         2.4420   -0.2220   -4.9230 ca        1 IR6      0.128200
      8 C07         2.8800    0.8770   -5.6870 ca        1 IR6     -0.162000
      9 C08         2.6990    0.9090   -7.0640 ca        1 IR6     -0.065000
     10 C09         2.0780   -0.1650   -7.7060 ca        1 IR6     -0.159000
     11 C10         1.6570   -1.2560   -6.9580 ca        1 IR6     -0.035000
     12 C11         1.8300   -1.3170   -5.5630 ca        1 IR6     -0.374500
     13 S           1.2760   -2.7180   -4.8130 sy        1 IR6      1.396300
     14 C12         2.7140   -3.3400   -4.1820 c3        1 IR6     -0.360300
     15 O02         0.3860   -2.4280   -3.7660 o         1 IR6     -0.667800
     16 O03         0.7900   -3.6110   -5.7860 o         1 IR6     -0.667800
     17 C13         3.8950    0.1810   -2.8660 cc        1 IR6      0.015700
     18 C14         5.1880    0.4510   -3.3820 cc        1 IR6     -0.165000
     19 C15         6.2070    0.7350   -2.4910 cd        1 IR6      0.140100
     20 O1          7.4690    0.9030   -3.0390 os        1 IR6     -0.241200
     21 C16         8.3710    1.6850   -2.3160 ca        1 IR6      0.089100
     22 C17         8.0160    2.9200   -1.7610 ca        1 IR6     -0.147500
     23 C18         9.0050    3.6960   -1.1580 ca        1 IR6     -0.110500
     24 C19        10.3250    3.2450   -1.1150 ca        1 IR6     -0.139000
     25 C20        10.6650    2.0120   -1.6730 ca        1 IR6     -0.110500
     26 C21         9.6920    1.2160   -2.2750 ca        1 IR6     -0.147500
     27 C22         5.9690    0.7680   -1.0850 cd        1 IR6     -0.218000
     28 C1          4.7050    0.5060   -0.6010 cc        1 IR6     -0.032300
     29 N1          3.6760    0.2180   -1.4670 na        1 IR6      0.066700
     30 H1          0.1060   -1.4770   -0.3710 hc        1 IR6      0.072367
     31 H2         -0.3200    0.2870   -0.4010 hc        1 IR6      0.072367
     32 H3         -0.0950   -0.5640    1.1930 hc        1 IR6      0.072367
     33 H4          0.6380   -0.5700   -2.5880 ha        1 IR6      0.201000
     34 H5          3.3620    1.7240   -5.1750 ha        1 IR6      0.144000
     35 H6          3.0400    1.7790   -7.6460 ha        1 IR6      0.138000
     36 H7          1.9250   -0.1470   -8.7950 ha        1 IR6      0.143000
     37 H8          1.1700   -2.1070   -7.4730 ha        1 IR6      0.168000
     38 H9          3.3010   -2.5900   -3.5940 h1        1 IR6      0.118367
     39 H10         3.4000   -3.7320   -4.9730 h1        1 IR6      0.118367
     40 H11         2.5140   -4.1950   -3.4880 h1        1 IR6      0.118367
     41 H12         5.3510    0.4160   -4.4680 ha        1 IR6      0.175000
     42 H13         6.9730    3.2660   -1.8050 ha        1 IR6      0.150500
     43 H14         8.7400    4.6690   -0.7200 ha        1 IR6      0.139000
     44 H15        11.1000    3.8640   -0.6390 ha        1 IR6      0.138000
     45 H16        11.7070    1.6610   -1.6380 ha        1 IR6      0.139000
     46 H17         9.9440    0.2450   -2.7240 ha        1 IR6      0.150500
     47 H18         6.7910    0.9950   -0.3920 ha        1 IR6      0.172000
     48 H19         4.4490    0.5090    0.4780 h4        1 IR6      0.209000
@<TRIPOS>BOND
     1    1    2 1   
     2    1   30 1   
     3    1   31 1   
     4    1   32 1   
     5    2    3 2   
     6    2    4 1   
     7    4    5 2   
     8    4   29 1   
     9    5    6 1   
    10    5   33 1   
    11    6    7 1   
    12    6   17 2   
    13    7    8 ar  
    14    7   12 ar  
    15    8    9 ar  
    16    8   34 1   
    17    9   10 ar  
    18    9   35 1   
    19   10   11 ar  
    20   10   36 1   
    21   11   12 ar  
    22   11   37 1   
    23   12   13 1   
    24   13   14 1   
    25   13   15 2   
    26   13   16 2   
    27   14   38 1   
    28   14   39 1   
    29   14   40 1   
    30   17   18 1   
    31   17   29 1   
    32   18   19 2   
    33   18   41 1   
    34   19   20 1   
    35   19   27 1   
    36   20   21 1   
    37   21   22 ar  
    38   21   26 ar  
    39   22   23 ar  
    40   22   42 1   
    41   23   24 ar  
    42   23   43 1   
    43   24   25 ar  
    44   24   44 1   
    45   25   26 ar  
    46   25   45 1   
    47   26   46 1   
    48   27   28 2   
    49   27   47 1   
    50   28   29 1   
    51   28   48 1   
@<TRIPOS>SUBSTRUCTURE
     1 IR6         1 TEMP              0 ****  ****    0 ROOT
