@<TRIPOS>MOLECULE
IR6
   48    51     1     0     0
SMALL
bcc


@<TRIPOS>ATOM
      1 C01         2.3390    4.3750    0.5240 c3        1 IR6     -0.192100
      2 C02         0.9700    3.8150    0.3100 c         1 IR6      0.613300
      3 O01        -0.0150    4.5390    0.0970 o         1 IR6     -0.575100
      4 C03         0.8790    2.3600    0.3680 cc        1 IR6     -0.270300
      5 C04         1.9230    1.4380    0.6100 cd        1 IR6     -0.037000
      6 C05         1.3910    0.1190    0.5630 cd        1 IR6     -0.210200
      7 C06         2.0750   -1.1260    0.8330 ca        1 IR6      0.128200
      8 C07         1.5090   -1.9750    1.8030 ca        1 IR6     -0.162000
      9 C08         2.1100   -3.1820    2.1360 ca        1 IR6     -0.065000
     10 C09         3.2910   -3.5670    1.4990 ca        1 IR6     -0.159000
     11 C10         3.8460   -2.7390    0.5330 ca        1 IR6     -0.035000
     12 C11         3.2570   -1.5120    0.1730 ca        1 IR6     -0.374500
     13 S           4.0520   -0.6390   -1.0270 sy        1 IR6      1.396300
     14 C12         2.8750   -0.6080   -2.2390 c3        1 IR6     -0.360300
     15 O02         4.3380    0.6710   -0.6110 o         1 IR6     -0.667800
     16 O03         5.1560   -1.3770   -1.4920 o         1 IR6     -0.667800
     17 C13        -0.0100    0.2430    0.3050 cc        1 IR6      0.015700
     18 C14        -1.0460   -0.7140    0.1570 cc        1 IR6     -0.165000
     19 C15        -2.3250   -0.2650   -0.1170 cd        1 IR6      0.140100
     20 O1         -3.2810   -1.2430   -0.3410 os        1 IR6     -0.241200
     21 C16        -4.6090   -0.8950   -0.0890 ca        1 IR6      0.089100
     22 C17        -5.0000   -0.2220    1.0740 ca        1 IR6     -0.147500
     23 C18        -6.3590   -0.0180    1.3080 ca        1 IR6     -0.110500
     24 C19        -7.3080   -0.4820    0.3970 ca        1 IR6     -0.139000
     25 C20        -6.9040   -1.1530   -0.7580 ca        1 IR6     -0.110500
     26 C21        -5.5510   -1.3620   -1.0160 ca        1 IR6     -0.147500
     27 C22        -2.6060    1.1280   -0.2400 cd        1 IR6     -0.218000
     28 C1         -1.5880    2.0450   -0.0910 cc        1 IR6     -0.032300
     29 N1         -0.3080    1.6230    0.1790 na        1 IR6      0.066700
     30 H1          2.3240    5.4860    0.4150 hc        1 IR6      0.072367
     31 H2          2.6990    4.1120    1.5490 hc        1 IR6      0.072367
     32 H3          3.0500    3.9420   -0.2230 hc        1 IR6      0.072367
     33 H4          2.9690    1.7080    0.7870 ha        1 IR6      0.201000
     34 H5          0.5810   -1.6630    2.3080 ha        1 IR6      0.144000
     35 H6          1.6580   -3.8310    2.9020 ha        1 IR6      0.138000
     36 H7          3.7780   -4.5180    1.7590 ha        1 IR6      0.143000
     37 H8          4.7800   -3.0510    0.0270 ha        1 IR6      0.168000
     38 H9          1.8730   -0.2670   -1.8750 h1        1 IR6      0.118367
     39 H10         3.1630    0.0930   -3.0630 h1        1 IR6      0.118367
     40 H11         2.7190   -1.6060   -2.7160 h1        1 IR6      0.118367
     41 H12        -0.8070   -1.7820    0.2510 ha        1 IR6      0.175000
     42 H13        -4.2430    0.1370    1.7860 ha        1 IR6      0.150500
     43 H14        -6.6810    0.5090    2.2190 ha        1 IR6      0.139000
     44 H15        -8.3790   -0.3190    0.5900 ha        1 IR6      0.138000
     45 H16        -7.6560   -1.5190   -1.4730 ha        1 IR6      0.139000
     46 H17        -5.2160   -1.8930   -1.9190 ha        1 IR6      0.150500
     47 H18        -3.6290    1.4670   -0.4590 ha        1 IR6      0.172000
     48 H19        -1.7330    3.1420   -0.1780 h4        1 IR6      0.209000
@<TRIPOS>BOND
     1    1    2 1   
     2    1   30 1   
     3    1   31 1   
     4    1   32 1   
     5    2    3 2   
     6    2    4 1   
     7    4    5 2   
     8    4   29 1   
     9    5    6 1   
    10    5   33 1   
    11    6    7 1   
    12    6   17 2   
    13    7    8 ar  
    14    7   12 ar  
    15    8    9 ar  
    16    8   34 1   
    17    9   10 ar  
    18    9   35 1   
    19   10   11 ar  
    20   10   36 1   
    21   11   12 ar  
    22   11   37 1   
    23   12   13 1   
    24   13   14 1   
    25   13   15 2   
    26   13   16 2   
    27   14   38 1   
    28   14   39 1   
    29   14   40 1   
    30   17   18 1   
    31   17   29 1   
    32   18   19 2   
    33   18   41 1   
    34   19   20 1   
    35   19   27 1   
    36   20   21 1   
    37   21   22 ar  
    38   21   26 ar  
    39   22   23 ar  
    40   22   42 1   
    41   23   24 ar  
    42   23   43 1   
    43   24   25 ar  
    44   24   44 1   
    45   25   26 ar  
    46   25   45 1   
    47   26   46 1   
    48   27   28 2   
    49   27   47 1   
    50   28   29 1   
    51   28   48 1   
@<TRIPOS>SUBSTRUCTURE
     1 IR6         1 TEMP              0 ****  ****    0 ROOT
