@<TRIPOS>MOLECULE
IR6
   48    51     1     0     0
SMALL
bcc


@<TRIPOS>ATOM
      1 C01         0.2660   -0.4740    0.1400 c3        1 IR6     -0.192100
      2 C02         1.7200   -0.1260    0.1150 c         1 IR6      0.613300
      3 O01         2.3640    0.0980    1.1520 o         1 IR6     -0.575100
      4 C03         2.3220   -0.0700   -1.2130 cc        1 IR6     -0.270300
      5 C04         1.6900   -0.2960   -2.4570 cd        1 IR6     -0.037000
      6 C05         2.6550   -0.1540   -3.4930 cd        1 IR6     -0.210200
      7 C06         2.4400   -0.2160   -4.9230 ca        1 IR6      0.128200
      8 C07         2.8820    0.8800   -5.6880 ca        1 IR6     -0.162000
      9 C08         2.7010    0.9110   -7.0640 ca        1 IR6     -0.065000
     10 C09         2.0760   -0.1610   -7.7050 ca        1 IR6     -0.159000
     11 C10         1.6500   -1.2490   -6.9570 ca        1 IR6     -0.035000
     12 C11         1.8240   -1.3090   -5.5610 ca        1 IR6     -0.374500
     13 S           1.2640   -2.7070   -4.8090 sy        1 IR6      1.396300
     14 C12         2.7000   -3.3340   -4.1780 c3        1 IR6     -0.360300
     15 O02         0.3750   -2.4120   -3.7620 o         1 IR6     -0.667800
     16 O03         0.7740   -3.5990   -5.7820 o         1 IR6     -0.667800
     17 C13         3.8950    0.1830   -2.8660 cc        1 IR6      0.015700
     18 C14         5.1890    0.4470   -3.3820 cc        1 IR6     -0.165000
     19 C15         6.2100    0.7280   -2.4920 cd        1 IR6      0.140100
     20 O1          7.4720    0.8890   -3.0410 os        1 IR6     -0.241200
     21 C16         8.3770    1.6680   -2.3180 ca        1 IR6      0.089100
     22 C17         8.0280    2.9060   -1.7650 ca        1 IR6     -0.147500
     23 C18         9.0210    3.6770   -1.1630 ca        1 IR6     -0.110500
     24 C19        10.3380    3.2200   -1.1180 ca        1 IR6     -0.139000
     25 C20        10.6730    1.9850   -1.6760 ca        1 IR6     -0.110500
     26 C21         9.6960    1.1940   -2.2760 ca        1 IR6     -0.147500
     27 C22         5.9710    0.7630   -1.0860 cd        1 IR6     -0.218000
     28 C1          4.7060    0.5080   -0.6020 cc        1 IR6     -0.032300
     29 N1          3.6760    0.2230   -1.4670 na        1 IR6      0.066700
     30 H1          0.1000   -1.4560   -0.3690 hc        1 IR6      0.072367
     31 H2         -0.3190    0.3090   -0.4010 hc        1 IR6      0.072367
     32 H3         -0.0980   -0.5400    1.1940 hc        1 IR6      0.072367
     33 H4          0.6340   -0.5540   -2.5870 ha        1 IR6      0.201000
     34 H5          3.3680    1.7260   -5.1770 ha        1 IR6      0.144000
     35 H6          3.0450    1.7790   -7.6480 ha        1 IR6      0.138000
     36 H7          1.9230   -0.1440   -8.7940 ha        1 IR6      0.143000
     37 H8          1.1600   -2.0990   -7.4700 ha        1 IR6      0.168000
     38 H9          3.2890   -2.5860   -3.5910 h1        1 IR6      0.118367
     39 H10         3.3830   -3.7300   -4.9680 h1        1 IR6      0.118367
     40 H11         2.4960   -4.1870   -3.4820 h1        1 IR6      0.118367
     41 H12         5.3520    0.4110   -4.4680 ha        1 IR6      0.175000
     42 H13         6.9870    3.2560   -1.8080 ha        1 IR6      0.150500
     43 H14         8.7610    4.6520   -0.7250 ha        1 IR6      0.139000
     44 H15        11.1160    3.8360   -0.6430 ha        1 IR6      0.138000
     45 H16        11.7130    1.6290   -1.6400 ha        1 IR6      0.139000
     46 H17         9.9430    0.2210   -2.7240 ha        1 IR6      0.150500
     47 H18         6.7950    0.9880   -0.3930 ha        1 IR6      0.172000
     48 H19         4.4510    0.5130    0.4780 h4        1 IR6      0.209000
@<TRIPOS>BOND
     1    1    2 1   
     2    1   30 1   
     3    1   31 1   
     4    1   32 1   
     5    2    3 2   
     6    2    4 1   
     7    4    5 2   
     8    4   29 1   
     9    5    6 1   
    10    5   33 1   
    11    6    7 1   
    12    6   17 2   
    13    7    8 ar  
    14    7   12 ar  
    15    8    9 ar  
    16    8   34 1   
    17    9   10 ar  
    18    9   35 1   
    19   10   11 ar  
    20   10   36 1   
    21   11   12 ar  
    22   11   37 1   
    23   12   13 1   
    24   13   14 1   
    25   13   15 2   
    26   13   16 2   
    27   14   38 1   
    28   14   39 1   
    29   14   40 1   
    30   17   18 1   
    31   17   29 1   
    32   18   19 2   
    33   18   41 1   
    34   19   20 1   
    35   19   27 1   
    36   20   21 1   
    37   21   22 ar  
    38   21   26 ar  
    39   22   23 ar  
    40   22   42 1   
    41   23   24 ar  
    42   23   43 1   
    43   24   25 ar  
    44   24   44 1   
    45   25   26 ar  
    46   25   45 1   
    47   26   46 1   
    48   27   28 2   
    49   27   47 1   
    50   28   29 1   
    51   28   48 1   
@<TRIPOS>SUBSTRUCTURE
     1 IR6         1 TEMP              0 ****  ****    0 ROOT
