@<TRIPOS>MOLECULE
IRA
   21    21     1     0     0
SMALL
bcc


@<TRIPOS>ATOM
      1 C1          0.3750    0.4360   -0.0480 ca        1 IRA      0.098100
      2 C2          1.7350    0.6170    0.2490 ca        1 IRA     -0.153000
      3 C3          2.1870    0.4610    1.5550 ca        1 IRA     -0.132000
      4 C4          1.2830    0.1020    2.5600 ca        1 IRA     -0.032900
      5 C5         -0.0660   -0.0860    2.2660 ca        1 IRA     -0.092000
      6 O1         -0.0220    0.7000   -1.3530 os        1 IRA     -0.364900
      7 C6         -0.4010   -0.4690   -2.0870 c3        1 IRA      0.091700
      8 BR1         1.9060   -0.1260    4.3200 br        1 IRA     -0.141100
      9 C7         -0.5480    0.1000    0.9600 ca        1 IRA     -0.028300
     10 C8         -2.4320   -1.5470    0.7810 c         1 IRA      0.919600
     11 O2         -2.4680   -2.2070   -0.2960 o         1 IRA     -0.833300
     12 C9         -1.9950   -0.0600    0.6960 c3        1 IRA     -0.185100
     13 O3         -2.7440   -1.9990    1.9160 o         1 IRA     -0.833300
     14 H1          2.4310    0.8890   -0.5560 ha        1 IRA      0.129000
     15 H2          3.2510    0.6130    1.7850 ha        1 IRA      0.125000
     16 H3         -0.7880   -0.4100    3.0360 ha        1 IRA      0.174000
     17 H4         -1.0730   -1.1400   -1.4870 h1        1 IRA      0.054033
     18 H5         -0.9370   -0.0590   -2.9780 h1        1 IRA      0.054033
     19 H6          0.5230   -1.0130   -2.4030 h1        1 IRA      0.054033
     20 H7         -2.5790    0.5100    1.4640 hc        1 IRA      0.047700
     21 H8         -2.2560    0.3380   -0.3170 hc        1 IRA      0.047700
@<TRIPOS>BOND
     1    1    2 ar  
     2    1    6 1   
     3    1    9 ar  
     4    2    3 ar  
     5    2   14 1   
     6    3    4 ar  
     7    3   15 1   
     8    4    5 ar  
     9    4    8 1   
    10    5    9 ar  
    11    5   16 1   
    12    6    7 1   
    13    7   17 1   
    14    7   18 1   
    15    7   19 1   
    16    9   12 1   
    17   10   11 1   
    18   10   12 1   
    19   10   13 1   
    20   12   20 1   
    21   12   21 1   
@<TRIPOS>SUBSTRUCTURE
     1 IRA         1 TEMP              0 ****  ****    0 ROOT
