@<TRIPOS>MOLECULE
IRA
   21    21     1     0     0
SMALL
bcc


@<TRIPOS>ATOM
      1 C1          0.9530    1.5940   -0.4930 ca        1 IRA      0.098100
      2 C2         -0.2650    2.2490   -0.2530 ca        1 IRA     -0.153000
      3 C3         -1.4270    1.5090   -0.0730 ca        1 IRA     -0.132000
      4 C4         -1.3680    0.1120   -0.1090 ca        1 IRA     -0.032900
      5 C5         -0.1590   -0.5400   -0.3390 ca        1 IRA     -0.092000
      6 O1          2.0560    2.3980   -0.7580 os        1 IRA     -0.364900
      7 C6          3.0350    2.3940    0.2870 c3        1 IRA      0.091700
      8 BR1        -2.9420   -0.8830    0.1550 br        1 IRA     -0.141100
      9 C7          1.0210    0.1900   -0.5570 ca        1 IRA     -0.028300
     10 C8          2.8150   -1.2740    0.4090 c         1 IRA      0.919600
     11 O2          3.6770   -0.6740    1.1110 o         1 IRA     -0.833300
     12 C9          2.2760   -0.5370   -0.8470 c3        1 IRA     -0.185100
     13 O3          2.3750   -2.4320    0.6380 o         1 IRA     -0.833300
     14 H1         -0.2890    3.3470   -0.2180 ha        1 IRA      0.129000
     15 H2         -2.3800    2.0260    0.1050 ha        1 IRA      0.125000
     16 H3         -0.0830   -1.6420   -0.3300 ha        1 IRA      0.174000
     17 H4          2.6740    3.0420    1.1230 h1        1 IRA      0.054033
     18 H5          3.2520    1.3550    0.6540 h1        1 IRA      0.054033
     19 H6          3.9370    2.8440   -0.1960 h1        1 IRA      0.054033
     20 H7          2.0860   -1.3080   -1.6380 hc        1 IRA      0.047700
     21 H8          3.0620    0.1680   -1.2190 hc        1 IRA      0.047700
@<TRIPOS>BOND
     1    1    2 ar  
     2    1    6 1   
     3    1    9 ar  
     4    2    3 ar  
     5    2   14 1   
     6    3    4 ar  
     7    3   15 1   
     8    4    5 ar  
     9    4    8 1   
    10    5    9 ar  
    11    5   16 1   
    12    6    7 1   
    13    7   17 1   
    14    7   18 1   
    15    7   19 1   
    16    9   12 1   
    17   10   11 1   
    18   10   12 1   
    19   10   13 1   
    20   12   20 1   
    21   12   21 1   
@<TRIPOS>SUBSTRUCTURE
     1 IRA         1 TEMP              0 ****  ****    0 ROOT
