@<TRIPOS>MOLECULE
IRA
   21    17     1     0     0
SMALL
bcc


@<TRIPOS>ATOM
      1 C1          0.3730   -0.0900   -0.6300 c1        1 IRA      0.053000
      2 C2          1.7400   -0.1640   -0.6250 c1        1 IRA     -0.142500
      3 C3          2.4300   -0.1380    0.5930 c1        1 IRA     -0.142500
      4 C4          1.7320   -0.0390    1.7790 c1        1 IRA     -0.173000
      5 C5          0.3550    0.0350    1.7600 c1        1 IRA     -0.092000
      6 O1         -0.3390   -0.0500   -1.8810 os        1 IRA     -0.248000
      7 C6         -0.2730   -1.2680   -2.6330 c3        1 IRA     -0.098000
      8 BR1         2.6490   -0.1290    3.4470 br        1 IRA     -0.001000
      9 C7         -0.3240    0.0100    0.5620 c1        1 IRA     -0.021000
     10 C8         -2.1110    1.7820    0.7000 c1        1 IRA      0.339000
     11 O2         -2.6020    2.3540   -0.4010 o         1 IRA     -0.568000
     12 C9         -1.8450    0.2720    0.7230 c2        1 IRA     -0.221000
     13 O3         -1.9880    2.4550    1.7570 o         1 IRA     -0.568000
     14 H1          2.2310   -0.0960   -1.4650 ha        1 IRA      0.127000
     15 H2          3.3470   -0.1700    0.6000 ha        1 IRA      0.127000
     16 H3         -0.1330    0.0950    2.5880 ha        1 IRA      0.174000
     17 H4          0.5520   -1.2430   -3.2630 h1        1 IRA      0.093333
     18 H5         -1.1070   -1.3640   -3.1780 h1        1 IRA      0.093333
     19 H6         -0.1980   -1.9790   -2.0590 h1        1 IRA      0.093333
     20 H7         -2.1740   -0.1240    1.6240 ha        1 IRA      0.087000
     21 H8         -2.3170   -0.1480    0.0030 ha        1 IRA      0.087000
@<TRIPOS>BOND
     1    1    6 1   
     2    1    9 1   
     3    2    3 1   
     4    2   14 1   
     5    3   15 1   
     6    4    5 1   
     7    4    8 1   
     8    5   16 1   
     9    6    7 1   
    10    7   17 1   
    11    7   18 1   
    12    7   19 1   
    13    9   12 1   
    14   10   11 1   
    15   10   13 1   
    16   12   20 1   
    17   12   21 1   
@<TRIPOS>SUBSTRUCTURE
     1 IRA         1 TEMP              0 ****  ****    0 ROOT
