@<TRIPOS>MOLECULE
IRA
   21    21     1     0     0
SMALL
bcc


@<TRIPOS>ATOM
      1 C1          0.3590    0.4460   -0.0540 ca        1 IRA      0.098100
      2 C2          1.7120    0.6690    0.2470 ca        1 IRA     -0.153000
      3 C3          2.1620    0.5440    1.5560 ca        1 IRA     -0.132000
      4 C4          1.2640    0.1720    2.5620 ca        1 IRA     -0.032900
      5 C5         -0.0780   -0.0580    2.2640 ca        1 IRA     -0.092000
      6 O1         -0.0390    0.6810   -1.3640 os        1 IRA     -0.364900
      7 C6         -0.3810   -0.5080   -2.0840 c3        1 IRA      0.091700
      8 Br1         1.8840   -0.0140    4.3280 br        1 IRA     -0.141100
      9 C7         -0.5590    0.0970    0.9540 ca        1 IRA     -0.028300
     10 C8         -2.3940   -1.6050    0.7900 c         1 IRA      0.919600
     11 O2         -2.4060   -2.2800   -0.2780 o         1 IRA     -0.833300
     12 C9         -2.0000   -0.1080    0.6860 c3        1 IRA     -0.185100
     13 O3         -2.7000   -2.0500    1.9290 o         1 IRA     -0.833300
     14 H1          2.4040    0.9490   -0.5590 ha        1 IRA      0.129000
     15 H2          3.2200    0.7290    1.7890 ha        1 IRA      0.125000
     16 H3         -0.7940   -0.3920    3.0360 ha        1 IRA      0.174000
     17 H4         -1.0360   -1.1910   -1.4780 h1        1 IRA      0.054033
     18 H5         -0.9240   -0.1260   -2.9820 h1        1 IRA      0.054033
     19 H6          0.5600   -1.0300   -2.3880 h1        1 IRA      0.054033
     20 H7         -2.6030    0.4560    1.4440 hc        1 IRA      0.047700
     21 H8         -2.2670    0.2690   -0.3340 hc        1 IRA      0.047700
@<TRIPOS>BOND
     1    1    2 ar  
     2    1    6 1   
     3    1    9 ar  
     4    2    3 ar  
     5    2   14 1   
     6    3    4 ar  
     7    3   15 1   
     8    4    5 ar  
     9    4    8 1   
    10    5    9 ar  
    11    5   16 1   
    12    6    7 1   
    13    7   17 1   
    14    7   18 1   
    15    7   19 1   
    16    9   12 1   
    17   10   11 1   
    18   10   12 1   
    19   10   13 1   
    20   12   20 1   
    21   12   21 1   
@<TRIPOS>SUBSTRUCTURE
     1 IRA         1 TEMP              0 ****  ****    0 ROOT
