@<TRIPOS>MOLECULE
IRB
   34    37     1     0     0
SMALL
bcc


@<TRIPOS>ATOM
      1 OAA        -6.9750    1.6370    0.2120 o         1 IRB     -0.822300
      2 OAC        -2.2660    2.7650    0.4930 oh        1 IRB     -0.318500
      3 OAD        -7.8640   -0.4050   -0.0060 o         1 IRB     -0.822300
      4 BRAE        5.7250   -0.2850    0.3250 br        1 IRB     -0.112100
      5 CAF         2.7910    2.5500   -0.4300 ca        1 IRB     -0.166000
      6 CAG         4.0080    1.9330   -0.1890 ca        1 IRB     -0.094000
      7 CAH        -5.3250   -1.5910   -0.1690 ca        1 IRB     -0.071000
      8 CAI         1.5850    1.8290   -0.4230 ca        1 IRB     -0.078000
      9 CAJ        -4.0580   -2.1900   -0.2500 ca        1 IRB     -0.170000
     10 CAK        -4.3590    0.6250    0.0800 ca        1 IRB     -0.016000
     11 NAL        -1.3390    1.8570    0.3140 n2        1 IRB     -0.431200
     12 NAM         2.6950   -1.5510    0.2090 n         1 IRB     -0.470100
     13 NAN        -1.5730   -1.6730   -0.2500 na        1 IRB     -0.218400
     14 CAO        -6.8830    0.3860    0.0720 c         1 IRB      0.911200
     15 CAP        -5.4840   -0.2160   -0.0090 ca        1 IRB     -0.150600
     16 CAQ         4.0740    0.5490    0.0450 ca        1 IRB     -0.074900
     17 CAR         1.3190   -1.8530    0.0800 c         1 IRB      0.716700
     18 CAS        -0.7950   -0.5350   -0.0940 cc        1 IRB      0.109300
     19 CAT        -1.7460    0.6400    0.0750 cc        1 IRB      0.454200
     20 CAU         0.5770   -0.5630   -0.0780 cd        1 IRB     -0.266400
     21 CAV        -2.9510   -1.3560   -0.1650 ca        1 IRB     -0.027200
     22 CAW         1.5980    0.4760   -0.1480 ca        1 IRB     -0.024800
     23 CAX        -3.1000    0.0600    0.0040 ca        1 IRB     -0.245900
     24 CAY         2.8840   -0.1750    0.0530 ca        1 IRB      0.068600
     25 HOAC       -1.7680    3.5860    0.6860 ho        1 IRB      0.432000
     26 HAF         2.7620    3.6300   -0.6340 ha        1 IRB      0.129000
     27 HAG         4.9340    2.5270   -0.1910 ha        1 IRB      0.135000
     28 HAH        -6.2350   -2.2120   -0.2310 ha        1 IRB      0.163000
     29 HAI         0.6560    2.3640   -0.6600 ha        1 IRB      0.157000
     30 HAJ        -3.9550   -3.2750   -0.3770 ha        1 IRB      0.125000
     31 HAK        -4.5110    1.7100    0.2110 ha        1 IRB      0.176000
     32 HNAM        3.4180   -2.2140    0.3010 hn        1 IRB      0.340500
     33 HNAN       -1.2090   -2.5960   -0.1960 hn        1 IRB      0.325700
     34 OAB         0.8920   -3.0200    0.1300 o         1 IRB     -0.661500
@<TRIPOS>BOND
     1    1   14 1   
     2    2   11 1   
     3    2   25 1   
     4    3   14 1   
     5    4   16 1   
     6    5    6 ar  
     7    5    8 ar  
     8    5   26 1   
     9    6   16 ar  
    10    6   27 1   
    11    7    9 ar  
    12    7   15 ar  
    13    7   28 1   
    14    8   22 ar  
    15    8   29 1   
    16    9   21 ar  
    17    9   30 1   
    18   10   15 ar  
    19   10   23 ar  
    20   10   31 1   
    21   11   19 2   
    22   12   17 1   
    23   12   24 1   
    24   12   32 1   
    25   13   18 1   
    26   13   21 1   
    27   13   33 1   
    28   14   15 1   
    29   16   24 ar  
    30   17   20 1   
    31   17   34 2   
    32   18   19 1   
    33   18   20 2   
    34   19   23 1   
    35   20   22 1   
    36   21   23 ar  
    37   22   24 ar  
@<TRIPOS>SUBSTRUCTURE
     1 IRB         1 TEMP              0 ****  ****    0 ROOT
