@<TRIPOS>MOLECULE
IRB
   34    36     1     0     0
SMALL
bcc


@<TRIPOS>ATOM
      1 OAA         1.0000    1.7230    2.5030 o         1 IRB     -0.543500
      2 OAC        -0.0290   -0.2350    4.0230 oh        1 IRB     -0.210000
      3 OAD         2.1110    2.2120    0.6210 o         1 IRB     -0.543500
      4 BRAE        1.4770    0.9640   12.3190 br        1 IRB      0.019000
      5 CAF        -0.6750   -0.2680    8.9930 ca        1 IRB     -0.163000
      6 CAG        -0.3220    0.1060   10.2790 ca        1 IRB     -0.098000
      7 CAH         1.8990   -0.5870    0.0310 c2        1 IRB     -0.417000
      8 CAI         0.2580   -0.2780    7.9420 ca        1 IRB     -0.075000
      9 CAJ         1.7320   -1.8160   -0.3860 c1        1 IRB      0.112000
     10 CAK         2.6180   -0.8130    2.3550 c2        1 IRB     -0.169000
     11 NAL         0.7900   -0.1580    4.9920 n2        1 IRB      0.087000
     12 NAM         3.2990    0.7680    9.5940 n         1 IRB     -0.325000
     13 NAN         4.3160    0.0070    5.5040 na        1 IRB     -0.262000
     14 CAO         1.7240    1.4140    1.5120 c2        1 IRB      0.359000
     15 CAP         2.1110   -0.0570    1.3670 c2        1 IRB     -0.038000
     16 CAQ         1.0000    0.4780   10.5750 ca        1 IRB     -0.215000
     17 CAR         3.8630    0.6110    8.3080 c2        1 IRB      0.354000
     18 CAS         3.0230    0.0110    6.0340 c2        1 IRB      0.224000
     19 CAT         2.0920   -0.2160    4.8670 c2        1 IRB     -0.125000
     20 CAU         2.7720    0.2000    7.3690 c2        1 IRB     -0.249000
     21 CAV         4.2730   -0.1960    4.1110 c2        1 IRB     -0.060000
     22 CAW         1.5640    0.1020    8.1840 ca        1 IRB     -0.013000
     23 CAX         2.9830   -0.3810    3.6820 c2        1 IRB     -0.073000
     24 CAY         1.9330    0.4720    9.5410 ca        1 IRB      0.072000
     25 HOAC        0.3520    0.0600    3.1450 ho        1 IRB      0.277000
     26 HAF        -1.7140   -0.5610    8.7790 ha        1 IRB      0.130000
     27 HAG        -1.0790    0.1110   11.0780 ha        1 IRB      0.132000
     28 HAH         1.8760    0.2370   -0.7310 ha        1 IRB      0.230000
     29 HAI        -0.0830   -0.5930    6.9450 ha        1 IRB      0.176000
     30 HAJ         5.2050   -0.2150    3.5400 h4        1 IRB      0.169000
     31 HAK         2.8630   -1.8770    2.1660 ha        1 IRB      0.110000
     32 HNAM        3.7810    1.0780   10.3950 hn        1 IRB      0.252000
     33 HNAN        5.1020    0.3630    5.9950 hn        1 IRB      0.274000
     34 OAB         5.0730    0.8100    8.0950 o         1 IRB     -0.398000
@<TRIPOS>BOND
     1    1   14 1   
     2    2   11 1   
     3    2   25 1   
     4    3   14 1   
     5    4   16 1   
     6    5    6 1   
     7    5    8 1   
     8    5   26 1   
     9    6   16 1   
    10    6   27 1   
    11    7    9 1   
    12    7   15 1   
    13    7   28 1   
    14    8   22 1   
    15    8   29 1   
    16   10   15 1   
    17   10   23 1   
    18   10   31 1   
    19   11   19 1   
    20   12   17 1   
    21   12   24 1   
    22   12   32 1   
    23   13   18 1   
    24   13   21 1   
    25   13   33 1   
    26   14   15 1   
    27   16   24 1   
    28   17   20 1   
    29   17   34 1   
    30   18   19 1   
    31   18   20 1   
    32   19   23 1   
    33   20   22 1   
    34   21   23 1   
    35   21   30 1   
    36   22   24 1   
@<TRIPOS>SUBSTRUCTURE
     1 IRB         1 TEMP              0 ****  ****    0 ROOT
