@<TRIPOS>MOLECULE
IRB
   34    36     1     0     0
SMALL
bcc


@<TRIPOS>ATOM
      1 OAA         1.0150    1.6860    2.4810 o         1 IRB     -0.543500
      2 OAC        -0.0360   -0.2350    4.0310 oh        1 IRB     -0.210000
      3 OAD         2.1300    2.1340    0.5900 o         1 IRB     -0.543500
      4 BRAE        1.4980    1.0690   12.3060 br        1 IRB      0.019000
      5 CAF        -0.6750   -0.1830    9.0010 ca        1 IRB     -0.163000
      6 CAG        -0.3150    0.2050   10.2810 ca        1 IRB     -0.098000
      7 CAH         1.8820   -0.6710    0.0420 c2        1 IRB     -0.417000
      8 CAI         0.2560   -0.2210    7.9500 ca        1 IRB     -0.075000
      9 CAJ         1.6980   -1.9030   -0.3570 c1        1 IRB      0.112000
     10 CAK         2.6020   -0.8720    2.3690 c2        1 IRB     -0.169000
     11 NAL         0.7850   -0.1540    4.9980 n2        1 IRB      0.087000
     12 NAM         3.3130    0.8090    9.5820 n         1 IRB     -0.325000
     13 NAN         4.3140   -0.0250    5.5030 na        1 IRB     -0.262000
     14 CAO         1.7340    1.3540    1.4930 c2        1 IRB      0.359000
     15 CAP         2.1030   -0.1240    1.3700 c2        1 IRB     -0.038000
     16 CAQ         1.0120    0.5640   10.5700 ca        1 IRB     -0.215000
     17 CAR         3.8730    0.6250    8.2980 c2        1 IRB      0.354000
     18 CAS         3.0230    0.0030    6.0340 c2        1 IRB      0.224000
     19 CAT         2.0870   -0.2300    4.8720 c2        1 IRB     -0.125000
     20 CAU         2.7760    0.2150    7.3670 c2        1 IRB     -0.249000
     21 CAV         4.2670   -0.2490    4.1120 c2        1 IRB     -0.060000
     22 CAW         1.5670    0.1450    8.1840 ca        1 IRB     -0.013000
     23 CAX         2.9740   -0.4240    3.6880 c2        1 IRB     -0.073000
     24 CAY         1.9440    0.5300    9.5360 ca        1 IRB      0.072000
     25 HOAC        0.3470    0.0420    3.1480 ho        1 IRB      0.277000
     26 HAF        -1.7180   -0.4660    8.7930 ha        1 IRB      0.130000
     27 HAG        -1.0710    0.2310   11.0810 ha        1 IRB      0.132000
     28 HAH         1.8680    0.1420   -0.7320 ha        1 IRB      0.230000
     29 HAI        -0.0900   -0.5460    6.9580 ha        1 IRB      0.176000
     30 HAJ         5.1970   -0.2880    3.5410 h4        1 IRB      0.169000
     31 HAK         2.8330   -1.9400    2.1950 ha        1 IRB      0.110000
     32 HNAM        3.8000    1.1240   10.3780 hn        1 IRB      0.252000
     33 HNAN        5.1060    0.3270    5.9880 hn        1 IRB      0.274000
     34 OAB         5.0860    0.8060    8.0810 o         1 IRB     -0.398000
@<TRIPOS>BOND
     1    1   14 1   
     2    2   11 1   
     3    2   25 1   
     4    3   14 1   
     5    4   16 1   
     6    5    6 1   
     7    5    8 1   
     8    5   26 1   
     9    6   16 1   
    10    6   27 1   
    11    7    9 1   
    12    7   15 1   
    13    7   28 1   
    14    8   22 1   
    15    8   29 1   
    16   10   15 1   
    17   10   23 1   
    18   10   31 1   
    19   11   19 1   
    20   12   17 1   
    21   12   24 1   
    22   12   32 1   
    23   13   18 1   
    24   13   21 1   
    25   13   33 1   
    26   14   15 1   
    27   16   24 1   
    28   17   20 1   
    29   17   34 1   
    30   18   19 1   
    31   18   20 1   
    32   19   23 1   
    33   20   22 1   
    34   21   23 1   
    35   21   30 1   
    36   22   24 1   
@<TRIPOS>SUBSTRUCTURE
     1 IRB         1 TEMP              0 ****  ****    0 ROOT
