@<TRIPOS>MOLECULE
IRB
   34    36     1     0     0
SMALL
bcc


@<TRIPOS>ATOM
      1 OAA         0.9940    1.7370    2.5130 o         1 IRB     -0.543500
      2 OAC        -0.0390   -0.2190    4.0310 oh        1 IRB     -0.210000
      3 OAD         2.0990    2.2260    0.6260 o         1 IRB     -0.543500
      4 BrAE        1.5140    0.9480   12.3240 br        1 IRB      0.019000
      5 CAF        -0.6620   -0.2610    9.0040 ca        1 IRB     -0.163000
      6 CAG        -0.3000    0.1070   10.2900 ca        1 IRB     -0.098000
      7 CAH         1.8690   -0.5700    0.0290 c2        1 IRB     -0.417000
      8 CAI         0.2660   -0.2740    7.9490 ca        1 IRB     -0.075000
      9 CAJ         1.6930   -1.7970   -0.3910 c1        1 IRB      0.112000
     10 CAK         2.5970   -0.8080    2.3500 c2        1 IRB     -0.169000
     11 NAL         0.7850   -0.1490    4.9970 n2        1 IRB      0.087000
     12 NAM         3.3210    0.7500    9.5890 ns        1 IRB     -0.325000
     13 NAN         4.3140   -0.0060    5.4930 na        1 IRB     -0.262000
     14 CAO         1.7120    1.4270    1.5170 c2        1 IRB      0.359000
     15 CAP         2.0900   -0.0450    1.3660 c2        1 IRB     -0.038000
     16 CAQ         1.0250    0.4700   10.5800 ca        1 IRB     -0.215000
     17 CAR         3.8780    0.5920    8.3010 c2        1 IRB      0.354000
     18 CAS         3.0240    0.0040    6.0290 c2        1 IRB      0.224000
     19 CAT         2.0860   -0.2140    4.8650 c2        1 IRB     -0.125000
     20 CAU         2.7800    0.1910    7.3660 c2        1 IRB     -0.249000
     21 CAV         4.2640   -0.2050    4.0990 c2        1 IRB     -0.060000
     22 CAW         1.5750    0.0970    8.1860 ca        1 IRB     -0.013000
     23 CAX         2.9700   -0.3810    3.6760 c2        1 IRB     -0.073000
     24 CAY         1.9530    0.4620    9.5430 ca        1 IRB      0.072000
     25 HOAC        0.3400    0.0760    3.1530 ho        1 IRB      0.277000
     26 HAF        -1.7030   -0.5480    8.7940 ha        1 IRB      0.130000
     27 HAG        -1.0530    0.1140   11.0920 ha        1 IRB      0.132000
     28 HAH         1.8470    0.2560   -0.7300 ha        1 IRB      0.230000
     29 HAI        -0.0820   -0.5850    6.9530 ha        1 IRB      0.176000
     30 HAJ         5.1930   -0.2270    3.5240 h4        1 IRB      0.169000
     31 HAK         2.8360   -1.8710    2.1560 ha        1 IRB      0.110000
     32 HNAM        3.8080    1.0540   10.3900 hn        1 IRB      0.252000
     33 HNAN        5.1050    0.3440    5.9810 hn        1 IRB      0.274000
     34 OAB         5.0890    0.7850    8.0830 o         1 IRB     -0.398000
@<TRIPOS>BOND
     1    1   14 1   
     2    2   11 1   
     3    2   25 1   
     4    3   14 1   
     5    4   16 1   
     6    5    6 1   
     7    5    8 1   
     8    5   26 1   
     9    6   16 1   
    10    6   27 1   
    11    7    9 1   
    12    7   15 1   
    13    7   28 1   
    14    8   22 1   
    15    8   29 1   
    16   10   15 1   
    17   10   23 1   
    18   10   31 1   
    19   11   19 1   
    20   12   17 1   
    21   12   24 1   
    22   12   32 1   
    23   13   18 1   
    24   13   21 1   
    25   13   33 1   
    26   14   15 1   
    27   16   24 1   
    28   17   20 1   
    29   17   34 1   
    30   18   19 1   
    31   18   20 1   
    32   19   23 1   
    33   20   22 1   
    34   21   23 1   
    35   21   30 1   
    36   22   24 1   
@<TRIPOS>SUBSTRUCTURE
     1 IRB         1 TEMP              0 ****  ****    0 ROOT
