@<TRIPOS>MOLECULE
IRB
   34    33     1     0     0
SMALL
bcc


@<TRIPOS>ATOM
      1 OAA        -1.2970    4.8200   -4.5250 o         1 IRB     -0.557000
      2 OAB         3.0920   -1.5040   -0.7110 o         1 IRB     -0.321000
      3 OAC        -1.2070   -0.7630   -3.0700 oh        1 IRB     -0.219000
      4 OAD        -3.1670    4.5470   -3.4370 o         1 IRB     -0.557000
      5 BRAE        1.9580   -5.4970    3.5010 br        1 IRB      0.032000
      6 CAF        -0.9270   -2.5860    3.5270 c1        1 IRB     -0.131000
      7 CAG        -0.1730   -3.7540    3.7060 c1        1 IRB     -0.086000
      8 CAH        -0.6610    4.2550   -1.4810 c1        1 IRB     -0.078000
      9 CAI        -0.5710   -1.6700    2.5390 c1        1 IRB     -0.131000
     10 CAJ         0.0150    3.6260   -0.4370 c1        1 IRB     -0.167000
     11 CAK        -1.0790    2.1060   -2.5140 c1        1 IRB     -0.023000
     12 NAL        -0.5090   -0.9740   -1.9110 n2        1 IRB      0.005000
     13 NAM         2.4280   -3.0600    0.9280 n         1 IRB     -0.340000
     14 NAN         0.8030    1.3000    0.5390 na        1 IRB     -0.233000
     15 CAO        -1.9320    4.3310   -3.5540 c2        1 IRB      0.360000
     16 CAP        -1.2090    3.4940   -2.5210 c1        1 IRB     -0.124000
     17 CAQ         0.9350   -4.0000    2.8950 c2        1 IRB     -0.222000
     18 CAR         2.3150   -1.8720    0.1490 c2        1 IRB      0.374000
     19 CAS         0.6360   -0.0280    0.0510 c2        1 IRB      0.208000
     20 CAT        -0.1100    0.0430   -1.1950 c2        1 IRB     -0.031000
     21 CAU         1.1420   -1.1460    0.6070 c2        1 IRB     -0.237000
     22 CAV         0.1460    2.2380   -0.4280 c2        1 IRB     -0.008000
     23 CAW         0.5380   -1.9150    1.7270 c1        1 IRB     -0.050000
     24 CAX        -0.4030    1.4750   -1.4700 c2        1 IRB     -0.144000
     25 CAY         1.2930   -3.0840    1.9060 c2        1 IRB      0.096000
     26 HOAC       -1.3680   -1.5440   -3.4640 ho        1 IRB      0.238000
     27 HAF        -1.6890   -2.4030    4.1100 ha        1 IRB      0.135500
     28 HAG        -0.4150   -4.3890    4.4060 ha        1 IRB      0.136000
     29 HAH        -0.7530    5.2270   -1.4870 ha        1 IRB      0.162000
     30 HAI        -1.0970   -0.8560    2.4150 ha        1 IRB      0.135500
     31 HAJ         0.4070    4.1570    0.2810 ha        1 IRB      0.120000
     32 HAK        -1.4610    1.5770   -3.2390 ha        1 IRB      0.177000
     33 HNAM        3.0830   -3.6910    0.8510 hn        1 IRB      0.253000
     34 HNAN        1.2370    1.5390    1.3060 hn        1 IRB      0.227000
@<TRIPOS>BOND
     1    1   15 1   
     2    2   18 1   
     3    3   12 1   
     4    3   26 1   
     5    4   15 1   
     6    5   17 1   
     7    6    9 1   
     8    6   27 1   
     9    7   17 1   
    10    7   28 1   
    11    8   16 1   
    12    8   29 1   
    13    9   30 1   
    14   10   22 1   
    15   10   31 1   
    16   11   24 1   
    17   11   32 1   
    18   12   20 1   
    19   13   18 1   
    20   13   25 1   
    21   13   33 1   
    22   14   19 1   
    23   14   22 1   
    24   14   34 1   
    25   15   16 1   
    26   17   25 1   
    27   18   21 1   
    28   19   20 1   
    29   19   21 1   
    30   20   24 1   
    31   21   23 1   
    32   22   24 1   
    33   23   25 1   
@<TRIPOS>SUBSTRUCTURE
     1 IRB         1 TEMP              0 ****  ****    0 ROOT
