@<TRIPOS>MOLECULE
IRE
   55    58     1     0     0
SMALL
bcc


@<TRIPOS>ATOM
      1 CAO         6.6300   -1.1770    0.8100 c3        1 IRE      0.130300
      2 CAL         8.0840   -1.6310    0.6440 c3        1 IRE      0.126400
      3 OAU         8.1910   -3.0480    0.5730 os        1 IRE     -0.415600
      4 CAM         7.3910   -3.5920   -0.4700 c3        1 IRE      0.126400
      5 CAP         5.9200   -3.1910   -0.3230 c3        1 IRE      0.130300
      6 NBE         5.7440   -1.7480   -0.1960 n3        1 IRE     -0.723600
      7 CAN         4.3450   -1.4020    0.0150 c3        1 IRE      0.171800
      8 CAJ         4.0700    0.1000   -0.0270 c3        1 IRE     -0.087400
      9 CAK         2.5680    0.3250   -0.0650 c3        1 IRE      0.124400
     10 OAV         2.3940    1.7460    0.0350 os        1 IRE     -0.306900
     11 CBA         1.0900    2.1920   -0.0350 ca        1 IRE      0.074100
     12 CAZ         0.9400    3.6090   -0.0060 ca        1 IRE      0.158100
     13 CAH        -0.3260    4.1780   -0.0560 ca        1 IRE     -0.244000
     14 OAT         2.1150    4.3200    0.0750 os        1 IRE     -0.294900
     15 CAA         1.9950    5.7390    0.1050 c3        1 IRE      0.107700
     16 CAI        -0.0340    1.3790   -0.1180 ca        1 IRE     -0.105000
     17 C5         -1.3200    1.9370   -0.1750 ca        1 IRE     -0.193900
     18 C4         -1.4670    3.3460   -0.1400 ca        1 IRE      0.166600
     19 N3         -2.7500    3.9050   -0.1850 na        1 IRE     -0.734600
     20 C2         -3.8410    3.0490   -0.2380 cc        1 IRE      0.665100
     21 N1         -3.8040    1.7470   -0.2730 nd        1 IRE     -0.752000
     22 C6         -2.5390    1.0810   -0.2740 cd        1 IRE      0.718900
     23 NAS        -2.3890   -0.2140   -0.3760 ne        1 IRE     -0.618100
     24 CAY        -3.4560   -1.1270   -0.4530 ca        1 IRE      0.163400
     25 CAG        -4.5320   -1.1420    0.4580 ca        1 IRE     -0.113000
     26 CAX        -5.5000   -2.1450    0.4070 ca        1 IRE     -0.012600
     27 CL         -6.7680   -2.1130    1.5400 cl        1 IRE     -0.079400
     28 CAW        -5.4210   -3.1570   -0.5700 ca        1 IRE      0.115900
     29 FAB        -6.3460   -4.1420   -0.6510 f         1 IRE     -0.130900
     30 CAD        -4.3510   -3.1430   -1.4850 ca        1 IRE     -0.156000
     31 CAE        -3.3850   -2.1520   -1.4280 ca        1 IRE     -0.102000
     32 HAO1        6.5960   -0.0570    0.7000 h1        1 IRE      0.041950
     33 HAO2        6.2920   -1.4350    1.8560 h1        1 IRE      0.041950
     34 HAL1        8.6810   -1.3510    1.5510 h1        1 IRE      0.054200
     35 HAL2        8.5390   -1.1750   -0.2740 h1        1 IRE      0.054200
     36 HAM1        7.5010   -4.7020   -0.3570 h1        1 IRE      0.054200
     37 HAM2        7.7950   -3.2630   -1.4630 h1        1 IRE      0.054200
     38 HAP1        5.4870   -3.7420    0.5630 h1        1 IRE      0.041950
     39 HAP2        5.3660   -3.5240   -1.2440 h1        1 IRE      0.041950
     40 HAN1        3.9580   -1.8080    0.9970 h1        1 IRE      0.033700
     41 HAN2        3.7560   -1.8970   -0.8100 h1        1 IRE      0.033700
     42 HAJ1        4.5420    0.5680   -0.9290 hc        1 IRE      0.066200
     43 HAJ2        4.4970    0.6050    0.8780 hc        1 IRE      0.066200
     44 HAK1        2.0600   -0.1750    0.8010 h1        1 IRE      0.043200
     45 HAK2        2.1260   -0.0440   -1.0280 h1        1 IRE      0.043200
     46 HAH        -0.4460    5.2710   -0.0320 ha        1 IRE      0.144000
     47 HAA1        3.0590    6.0830    0.1680 h1        1 IRE      0.047367
     48 HAA2        1.5140    6.1140   -0.8310 h1        1 IRE      0.047367
     49 HAA3        1.4200    6.0680    1.0040 h1        1 IRE      0.047367
     50 HAI         0.0780    0.2820   -0.1390 ha        1 IRE      0.173000
     51 H3         -2.8610    4.8890   -0.1610 hn        1 IRE      0.454800
     52 H2         -4.8380    3.5440   -0.2500 h5        1 IRE      0.053800
     53 HAG        -4.6140   -0.3590    1.2290 ha        1 IRE      0.159000
     54 HAD        -4.2930   -3.9340   -2.2480 ha        1 IRE      0.150000
     55 HAE        -2.5570   -2.1650   -2.1540 ha        1 IRE      0.147000
@<TRIPOS>BOND
     1    1    2 1   
     2    1    6 1   
     3    1   32 1   
     4    1   33 1   
     5    2    3 1   
     6    2   34 1   
     7    2   35 1   
     8    3    4 1   
     9    4    5 1   
    10    4   36 1   
    11    4   37 1   
    12    5    6 1   
    13    5   38 1   
    14    5   39 1   
    15    6    7 1   
    16    7    8 1   
    17    7   40 1   
    18    7   41 1   
    19    8    9 1   
    20    8   42 1   
    21    8   43 1   
    22    9   10 1   
    23    9   44 1   
    24    9   45 1   
    25   10   11 1   
    26   11   12 ar  
    27   11   16 ar  
    28   12   13 ar  
    29   12   14 1   
    30   13   18 ar  
    31   13   46 1   
    32   14   15 1   
    33   15   47 1   
    34   15   48 1   
    35   15   49 1   
    36   16   17 ar  
    37   16   50 1   
    38   17   18 ar  
    39   17   22 1   
    40   18   19 1   
    41   19   20 1   
    42   19   51 1   
    43   20   21 2   
    44   20   52 1   
    45   21   22 1   
    46   22   23 2   
    47   23   24 1   
    48   24   25 ar  
    49   24   31 ar  
    50   25   26 ar  
    51   25   53 1   
    52   26   27 1   
    53   26   28 ar  
    54   28   29 1   
    55   28   30 ar  
    56   30   31 ar  
    57   30   54 1   
    58   31   55 1   
@<TRIPOS>SUBSTRUCTURE
     1 IRE         1 TEMP              0 ****  ****    0 ROOT
