@<TRIPOS>MOLECULE
IRE
   55    58     1     0     0
SMALL
bcc


@<TRIPOS>ATOM
      1 CAO         0.3540    0.0760   -0.2890 c3        1 IRE      0.130300
      2 CAL         1.8540   -0.1840   -0.4650 c3        1 IRE      0.126400
      3 OAU         2.5020   -0.4090    0.7820 os        1 IRE     -0.415600
      4 CAM         1.9070   -1.4780    1.5080 c3        1 IRE      0.126400
      5 CAP         0.4110   -1.2420    1.7370 c3        1 IRE      0.130300
      6 NBE        -0.3070   -0.9570    0.4990 n3        1 IRE     -0.723600
      7 CAN        -1.7110   -0.6660    0.7560 c3        1 IRE      0.171800
      8 CAJ        -2.5540   -0.5390   -0.5100 c3        1 IRE     -0.087400
      9 CAK        -4.0230   -0.5040   -0.1230 c3        1 IRE      0.124400
     10 OAV        -4.7320   -0.2490   -1.3440 os        1 IRE     -0.306900
     11 CBA        -6.1080   -0.2280   -1.2400 ca        1 IRE      0.074100
     12 CAZ        -6.7980   -0.0430   -2.4730 ca        1 IRE      0.158100
     13 CAH        -8.1870    0.0080   -2.4950 ca        1 IRE     -0.244000
     14 OAT        -5.9930    0.0750   -3.5830 os        1 IRE     -0.294900
     15 CAA        -6.6570    0.2600   -4.8290 c3        1 IRE      0.107700
     16 CAI        -6.8260   -0.3610   -0.0580 ca        1 IRE     -0.105000
     17 C5         -8.2280   -0.3170   -0.0620 ca        1 IRE     -0.193900
     18 C4         -8.9130   -0.1270   -1.2890 ca        1 IRE      0.166600
     19 N3        -10.3120   -0.0710   -1.2940 na        1 IRE     -0.734600
     20 C2        -10.9810   -0.1790   -0.0840 cc        1 IRE      0.665100
     21 N1        -10.4390   -0.3540    1.0890 nd        1 IRE     -0.752000
     22 C6         -9.0190   -0.4660    1.1950 cd        1 IRE      0.718900
     23 NAS        -8.3810   -0.7120    2.3110 ne        1 IRE     -0.618100
     24 CAY        -9.0070   -0.8510    3.5620 ca        1 IRE      0.163400
     25 CAG        -9.9220    0.0880    4.0800 ca        1 IRE     -0.113000
     26 CAX       -10.4220   -0.0380    5.3770 ca        1 IRE     -0.012600
     27 CL        -11.5150    1.1320    5.9480 cl        1 IRE     -0.079400
     28 CAW       -10.0230   -1.1200    6.1870 ca        1 IRE      0.115900
     29 FAB       -10.4920   -1.2750    7.4470 f         1 IRE     -0.130900
     30 CAD        -9.1130   -2.0630    5.6720 ca        1 IRE     -0.156000
     31 CAE        -8.6120   -1.9310    4.3870 ca        1 IRE     -0.102000
     32 HAO1        0.2200    1.0980    0.1710 h1        1 IRE      0.041950
     33 HAO2       -0.1240    0.0860   -1.3080 h1        1 IRE      0.041950
     34 HAL1        2.0270   -1.0630   -1.1410 h1        1 IRE      0.054200
     35 HAL2        2.3570    0.7280   -0.8810 h1        1 IRE      0.054200
     36 HAM1        2.4510   -1.4880    2.4880 h1        1 IRE      0.054200
     37 HAM2        2.0780   -2.4430    0.9620 h1        1 IRE      0.054200
     38 HAP1        0.2930   -0.4070    2.4880 h1        1 IRE      0.041950
     39 HAP2       -0.0330   -2.1750    2.1840 h1        1 IRE      0.041950
     40 HAN1       -2.1160   -1.5190    1.3730 h1        1 IRE      0.033700
     41 HAN2       -1.8370    0.2800    1.3640 h1        1 IRE      0.033700
     42 HAJ1       -2.2960    0.4000   -1.0650 hc        1 IRE      0.066200
     43 HAJ2       -2.3690   -1.4010   -1.2020 hc        1 IRE      0.066200
     44 HAK1       -4.2310    0.3200    0.6090 h1        1 IRE      0.043200
     45 HAK2       -4.3530   -1.4860    0.3080 h1        1 IRE      0.043200
     46 HAH        -8.7220    0.1530   -3.4440 ha        1 IRE      0.144000
     47 HAA1       -7.3120   -0.6150   -5.0610 h1        1 IRE      0.047367
     48 HAA2       -5.8120    0.3250   -5.5610 h1        1 IRE      0.047367
     49 HAA3       -7.2490    1.2060   -4.8250 h1        1 IRE      0.047367
     50 HAI        -6.2950   -0.5030    0.8970 ha        1 IRE      0.173000
     51 H3        -10.7970    0.0620   -2.1470 hn        1 IRE      0.454800
     52 H2        -12.0900   -0.1060   -0.1410 h5        1 IRE      0.053800
     53 HAG       -10.2490    0.9410    3.4630 ha        1 IRE      0.159000
     54 HAD        -8.8050   -2.9070    6.3070 ha        1 IRE      0.150000
     55 HAE        -7.8990   -2.6810    4.0080 ha        1 IRE      0.147000
@<TRIPOS>BOND
     1    1    2 1   
     2    1    6 1   
     3    1   32 1   
     4    1   33 1   
     5    2    3 1   
     6    2   34 1   
     7    2   35 1   
     8    3    4 1   
     9    4    5 1   
    10    4   36 1   
    11    4   37 1   
    12    5    6 1   
    13    5   38 1   
    14    5   39 1   
    15    6    7 1   
    16    7    8 1   
    17    7   40 1   
    18    7   41 1   
    19    8    9 1   
    20    8   42 1   
    21    8   43 1   
    22    9   10 1   
    23    9   44 1   
    24    9   45 1   
    25   10   11 1   
    26   11   12 ar  
    27   11   16 ar  
    28   12   13 ar  
    29   12   14 1   
    30   13   18 ar  
    31   13   46 1   
    32   14   15 1   
    33   15   47 1   
    34   15   48 1   
    35   15   49 1   
    36   16   17 ar  
    37   16   50 1   
    38   17   18 ar  
    39   17   22 1   
    40   18   19 1   
    41   19   20 1   
    42   19   51 1   
    43   20   21 2   
    44   20   52 1   
    45   21   22 1   
    46   22   23 2   
    47   23   24 1   
    48   24   25 ar  
    49   24   31 ar  
    50   25   26 ar  
    51   25   53 1   
    52   26   27 1   
    53   26   28 ar  
    54   28   29 1   
    55   28   30 ar  
    56   30   31 ar  
    57   30   54 1   
    58   31   55 1   
@<TRIPOS>SUBSTRUCTURE
     1 IRE         1 TEMP              0 ****  ****    0 ROOT
