@<TRIPOS>MOLECULE
IRE
   55    58     1     0     0
SMALL
bcc


@<TRIPOS>ATOM
      1 CAO         0.3510    0.0730   -0.2950 c3        1 IRE      0.130300
      2 CAL         1.8530   -0.1830   -0.4660 c3        1 IRE      0.126400
      3 OAU         2.5010   -0.3860    0.7840 os        1 IRE     -0.415600
      4 CAM         1.9100   -1.4470    1.5260 c3        1 IRE      0.126400
      5 CAP         0.4120   -1.2140    1.7500 c3        1 IRE      0.130300
      6 NBE        -0.3060   -0.9510    0.5080 n3        1 IRE     -0.723600
      7 CAN        -1.7120   -0.6620    0.7590 c3        1 IRE      0.171800
      8 CAJ        -2.5530   -0.5560   -0.5100 c3        1 IRE     -0.087400
      9 CAK        -4.0230   -0.5230   -0.1250 c3        1 IRE      0.124400
     10 OAV        -4.7320   -0.2880   -1.3500 os        1 IRE     -0.306900
     11 CBA        -6.1070   -0.2480   -1.2440 ca        1 IRE      0.074100
     12 CAZ        -6.7960   -0.0490   -2.4750 ca        1 IRE      0.158100
     13 CAH        -8.1840    0.0180   -2.4960 ca        1 IRE     -0.244000
     14 OAT        -5.9910    0.0680   -3.5850 os        1 IRE     -0.294900
     15 CAA        -6.6540    0.2610   -4.8300 c3        1 IRE      0.107700
     16 CAI        -6.8260   -0.3800   -0.0620 ca        1 IRE     -0.105000
     17 C5         -8.2270   -0.3200   -0.0650 ca        1 IRE     -0.193900
     18 C4         -8.9110   -0.1150   -1.2900 ca        1 IRE      0.166600
     19 N3        -10.3090   -0.0430   -1.2930 na        1 IRE     -0.734600
     20 C2        -10.9790   -0.1500   -0.0830 cc        1 IRE      0.665100
     21 N1        -10.4380   -0.3390    1.0880 nd        1 IRE     -0.752000
     22 C6         -9.0190   -0.4670    1.1930 cd        1 IRE      0.718900
     23 NAS        -8.3830   -0.7260    2.3060 ne        1 IRE     -0.618100
     24 CAY        -9.0090   -0.8650    3.5570 ca        1 IRE      0.163400
     25 CAG        -9.9140    0.0810    4.0820 ca        1 IRE     -0.113000
     26 CAX       -10.4140   -0.0470    5.3780 ca        1 IRE     -0.012600
     27 Cl        -11.4940    1.1320    5.9570 cl        1 IRE     -0.080400
     28 CAW       -10.0260   -1.1380    6.1820 ca        1 IRE      0.115900
     29 FAB       -10.4960   -1.2950    7.4410 f         1 IRE     -0.130900
     30 CAD        -9.1270   -2.0880    5.6600 ca        1 IRE     -0.156000
     31 CAE        -8.6260   -1.9540    4.3760 ca        1 IRE     -0.102000
     32 HAO1        0.2120    1.1020    0.1480 h1        1 IRE      0.041950
     33 HAO2       -0.1260    0.0660   -1.3150 h1        1 IRE      0.041950
     34 HAL1        2.0300   -1.0710   -1.1280 h1        1 IRE      0.054200
     35 HAL2        2.3520    0.7250   -0.8950 h1        1 IRE      0.054200
     36 HAM1        2.0850   -2.4190    0.9950 h1        1 IRE      0.054200
     37 HAM2        2.4520   -1.4390    2.5070 h1        1 IRE      0.054200
     38 HAP1        0.2900   -0.3680    2.4880 h1        1 IRE      0.041950
     39 HAP2       -0.0280   -2.1420    2.2100 h1        1 IRE      0.041950
     40 HAN1       -1.8420    0.2910    1.3540 h1        1 IRE      0.033700
     41 HAN2       -2.1140   -1.5090    1.3870 h1        1 IRE      0.033700
     42 HAJ1       -2.2990    0.3760   -1.0770 hc        1 IRE      0.066200
     43 HAJ2       -2.3650   -1.4270   -1.1900 hc        1 IRE      0.066200
     44 HAK1       -4.2360    0.3090    0.5960 h1        1 IRE      0.043200
     45 HAK2       -4.3490   -1.5010    0.3180 h1        1 IRE      0.043200
     46 HAH        -8.7190    0.1740   -3.4440 ha        1 IRE      0.144000
     47 HAA1       -7.2370    1.2140   -4.8240 h1        1 IRE      0.047367
     48 HAA2       -5.8090    0.3200   -5.5620 h1        1 IRE      0.047367
     49 HAA3       -7.3180   -0.6060   -5.0640 h1        1 IRE      0.047367
     50 HAI        -6.2960   -0.5340    0.8920 ha        1 IRE      0.173000
     51 H3        -10.7940    0.1000   -2.1450 hn        1 IRE      0.454800
     52 H2        -12.0870   -0.0650   -0.1390 h5        1 IRE      0.053800
     53 HAG       -10.2320    0.9410    3.4690 ha        1 IRE      0.159000
     54 HAD        -8.8290   -2.9390    6.2900 ha        1 IRE      0.150000
     55 HAE        -7.9210   -2.7100    3.9920 ha        1 IRE      0.148000
@<TRIPOS>BOND
     1    1    2 1   
     2    1    6 1   
     3    1   32 1   
     4    1   33 1   
     5    2    3 1   
     6    2   34 1   
     7    2   35 1   
     8    3    4 1   
     9    4    5 1   
    10    4   36 1   
    11    4   37 1   
    12    5    6 1   
    13    5   38 1   
    14    5   39 1   
    15    6    7 1   
    16    7    8 1   
    17    7   40 1   
    18    7   41 1   
    19    8    9 1   
    20    8   42 1   
    21    8   43 1   
    22    9   10 1   
    23    9   44 1   
    24    9   45 1   
    25   10   11 1   
    26   11   12 ar  
    27   11   16 ar  
    28   12   13 ar  
    29   12   14 1   
    30   13   18 ar  
    31   13   46 1   
    32   14   15 1   
    33   15   47 1   
    34   15   48 1   
    35   15   49 1   
    36   16   17 ar  
    37   16   50 1   
    38   17   18 ar  
    39   17   22 1   
    40   18   19 1   
    41   19   20 1   
    42   19   51 1   
    43   20   21 2   
    44   20   52 1   
    45   21   22 1   
    46   22   23 2   
    47   23   24 1   
    48   24   25 ar  
    49   24   31 ar  
    50   25   26 ar  
    51   25   53 1   
    52   26   27 1   
    53   26   28 ar  
    54   28   29 1   
    55   28   30 ar  
    56   30   31 ar  
    57   30   54 1   
    58   31   55 1   
@<TRIPOS>SUBSTRUCTURE
     1 IRE         1 TEMP              0 ****  ****    0 ROOT
