@<TRIPOS>MOLECULE
IRF
   44    46     1     0     0
SMALL
bcc


@<TRIPOS>ATOM
      1 N1          0.3030    0.2410    0.0620 nc        1 IRF     -0.398400
      2 C2          1.7100    0.3520    0.1790 c         1 IRF      0.851900
      3 O2          2.4340    0.5270   -0.8160 o         1 IRF     -0.575500
      4 N3          2.3400    0.2600    1.4480 n         1 IRF     -0.615500
      5 C4          1.6450    0.0920    2.6380 c         1 IRF      0.608000
      6 O4          2.2570   -0.0160    3.7110 o         1 IRF     -0.568500
      7 C4A         0.1380    0.0570    2.5400 cd        1 IRF      0.315800
      8 N5         -0.5760   -0.0020    3.6280 nc        1 IRF     -0.525000
      9 C5A        -1.9660   -0.0430    3.5030 ca        1 IRF      0.307600
     10 C6         -2.7550   -0.0680    4.6770 ca        1 IRF     -0.111300
     11 C7         -4.1410   -0.1240    4.6130 ca        1 IRF     -0.076300
     12 C7M        -4.9240   -0.1430    5.8720 c3        1 IRF     -0.063800
     13 C8         -4.7650   -0.1600    3.3520 ca        1 IRF      0.077900
     14 C9         -4.0230   -0.1370    2.1830 ca        1 IRF     -0.150000
     15 C9A        -2.6070   -0.0700    2.2220 ca        1 IRF     -0.019600
     16 N10        -1.8330   -0.0140    1.0530 na        1 IRF     -0.105100
     17 C10        -0.4350    0.0920    1.1480 cd        1 IRF      0.088400
     18 C1'        -2.4820   -0.1350   -0.2400 c3        1 IRF      0.024300
     19 C2'        -3.0180   -1.5520   -0.5470 c3        1 IRF      0.121100
     20 O2'        -1.9140   -2.3050   -1.0090 oh        1 IRF     -0.576800
     21 C3'        -4.1030   -1.4370   -1.6340 c3        1 IRF      0.112100
     22 O3'        -5.1790   -0.7230   -1.0440 oh        1 IRF     -0.616800
     23 C4'        -4.5730   -2.8090   -2.1470 c3        1 IRF      0.106100
     24 O4'        -5.5980   -2.5200   -3.0870 oh        1 IRF     -0.610800
     25 C5'        -5.1160   -3.6900   -1.0170 c3        1 IRF      0.090400
     26 I8         -6.7830   -0.2470    3.1790 i         1 IRF     -0.120900
     27 O5'        -5.6930   -4.8230   -1.6440 oh        1 IRF     -0.610800
     28 H3          3.3360    0.3060    1.4810 hn        1 IRF      0.349500
     29 H6         -2.2490   -0.0430    5.6580 ha        1 IRF      0.167000
     30 H7M1       -5.6090    0.7410    5.9210 hc        1 IRF      0.058033
     31 H7M2       -5.5410   -1.0740    5.9370 hc        1 IRF      0.058033
     32 H7M3       -4.2510   -0.1100    6.7650 hc        1 IRF      0.058033
     33 H9         -4.5500   -0.1720    1.2100 ha        1 IRF      0.180000
     34 H1'1       -1.7640    0.1450   -1.0650 h1        1 IRF      0.106700
     35 H1'2       -3.3490    0.5870   -0.2720 h1        1 IRF      0.106700
     36 H2'        -3.4660   -2.0270    0.3710 h1        1 IRF      0.052700
     37 HA         -2.2000   -3.2260   -1.0700 ho        1 IRF      0.405000
     38 H3'        -3.7020   -0.8570   -2.5130 h1        1 IRF      0.072700
     39 HB         -5.8980   -0.7190   -1.6920 ho        1 IRF      0.435000
     40 H4'        -3.7250   -3.3340   -2.6690 h1        1 IRF      0.061700
     41 HC         -5.9860   -3.3670   -3.3490 ho        1 IRF      0.434000
     42 H5'1       -5.8850   -3.1240   -0.4270 h1        1 IRF      0.041200
     43 H5'2       -4.2820   -4.0150   -0.3390 h1        1 IRF      0.041200
     44 H5'        -6.2020   -5.2890   -0.9710 ho        1 IRF      0.416000
@<TRIPOS>BOND
     1    1    2 1   
     2    1   17 2   
     3    2    3 2   
     4    2    4 1   
     5    4    5 1   
     6    4   28 1   
     7    5    6 2   
     8    5    7 1   
     9    7    8 2   
    10    7   17 1   
    11    8    9 1   
    12    9   10 ar  
    13    9   15 ar  
    14   10   11 ar  
    15   10   29 1   
    16   11   12 1   
    17   11   13 ar  
    18   12   30 1   
    19   12   31 1   
    20   12   32 1   
    21   13   14 ar  
    22   13   26 1   
    23   14   15 ar  
    24   14   33 1   
    25   15   16 1   
    26   16   17 1   
    27   16   18 1   
    28   18   19 1   
    29   18   34 1   
    30   18   35 1   
    31   19   20 1   
    32   19   21 1   
    33   19   36 1   
    34   20   37 1   
    35   21   22 1   
    36   21   23 1   
    37   21   38 1   
    38   22   39 1   
    39   23   24 1   
    40   23   25 1   
    41   23   40 1   
    42   24   41 1   
    43   25   27 1   
    44   25   42 1   
    45   25   43 1   
    46   27   44 1   
@<TRIPOS>SUBSTRUCTURE
     1 IRF         1 TEMP              0 ****  ****    0 ROOT
