@<TRIPOS>MOLECULE
IRF
   44    46     1     0     0
SMALL
bcc


@<TRIPOS>ATOM
      1 N1          0.2830    0.2850    0.0510 nc        1 IRF     -0.398400
      2 C2          1.6880    0.4190    0.1670 c         1 IRF      0.851900
      3 O2          2.4090    0.5980   -0.8300 o         1 IRF     -0.575500
      4 N3          2.3200    0.3460    1.4360 ns        1 IRF     -0.615500
      5 C4          1.6290    0.1760    2.6270 c         1 IRF      0.608000
      6 O4          2.2430    0.0860    3.7000 o         1 IRF     -0.568500
      7 C4A         0.1230    0.1160    2.5310 cd        1 IRF      0.315800
      8 N5         -0.5890    0.0540    3.6200 nc        1 IRF     -0.525000
      9 C5A        -1.9790   -0.0110    3.4960 ca        1 IRF      0.307600
     10 C6         -2.7660   -0.0390    4.6700 ca        1 IRF     -0.111300
     11 C7         -4.1510   -0.1170    4.6080 ca        1 IRF     -0.076300
     12 C7M        -4.9330   -0.1390    5.8670 c3        1 IRF     -0.063800
     13 C8         -4.7750   -0.1730    3.3480 ca        1 IRF      0.077900
     14 C9         -4.0350   -0.1470    2.1780 ca        1 IRF     -0.150000
     15 C9A        -2.6190   -0.0560    2.2150 ca        1 IRF     -0.019600
     16 N10        -1.8480    0.0030    1.0450 na        1 IRF     -0.105100
     17 C10        -0.4510    0.1320    1.1380 cd        1 IRF      0.088400
     18 C1'        -2.4950   -0.1380   -0.2470 c3        1 IRF      0.024300
     19 C2'        -3.0090   -1.5660   -0.5420 c3        1 IRF      0.121100
     20 O2'        -1.8930   -2.3050   -1.0000 oh        1 IRF     -0.576800
     21 C3'        -4.0960   -1.4760   -1.6300 c3        1 IRF      0.112100
     22 O3'        -5.1830   -0.7750   -1.0440 oh        1 IRF     -0.616800
     23 C4'        -4.5440   -2.8590   -2.1320 c3        1 IRF      0.106100
     24 O4'        -5.5740   -2.5940   -3.0730 oh        1 IRF     -0.610800
     25 C5'        -5.0720   -3.7400   -0.9950 c3        1 IRF      0.090400
     26 I8         -6.7920   -0.2930    3.1760 i         1 IRF     -0.120900
     27 O5'        -5.6310   -4.8870   -1.6140 oh        1 IRF     -0.610800
     28 H3          3.3160    0.4080    1.4670 hn        1 IRF      0.349500
     29 H6         -2.2600    0.0020    5.6510 ha        1 IRF      0.167000
     30 H7M1       -4.2600   -0.0890    6.7590 hc        1 IRF      0.058033
     31 H7M2       -5.6320    0.7340    5.9100 hc        1 IRF      0.058033
     32 H7M3       -5.5360   -1.0800    5.9390 hc        1 IRF      0.058033
     33 H9         -4.5620   -0.1970    1.2060 ha        1 IRF      0.180000
     34 H1'1       -1.7820    0.1470   -1.0740 h1        1 IRF      0.106700
     35 H1'2       -3.3740    0.5700   -0.2830 h1        1 IRF      0.106700
     36 H2'        -3.4480   -2.0410    0.3800 h1        1 IRF      0.052700
     37 HA         -2.1640   -3.2300   -1.0540 ho        1 IRF      0.405000
     38 H3'        -3.7050   -0.8960   -2.5130 h1        1 IRF      0.072700
     39 HB         -5.9020   -0.7880   -1.6920 ho        1 IRF      0.435000
     40 H4'        -3.6880   -3.3750   -2.6510 h1        1 IRF      0.061700
     41 HC         -5.9490   -3.4480   -3.3290 ho        1 IRF      0.434000
     42 H5'1       -5.8500   -3.1830   -0.4090 h1        1 IRF      0.041200
     43 H5'2       -4.2340   -4.0470   -0.3160 h1        1 IRF      0.041200
     44 H5'        -6.1330   -5.3560   -0.9370 ho        1 IRF      0.416000
@<TRIPOS>BOND
     1    1    2 1   
     2    1   17 2   
     3    2    3 2   
     4    2    4 1   
     5    4    5 1   
     6    4   28 1   
     7    5    6 2   
     8    5    7 1   
     9    7    8 2   
    10    7   17 1   
    11    8    9 1   
    12    9   10 ar  
    13    9   15 ar  
    14   10   11 ar  
    15   10   29 1   
    16   11   12 1   
    17   11   13 ar  
    18   12   30 1   
    19   12   31 1   
    20   12   32 1   
    21   13   14 ar  
    22   13   26 1   
    23   14   15 ar  
    24   14   33 1   
    25   15   16 1   
    26   16   17 1   
    27   16   18 1   
    28   18   19 1   
    29   18   34 1   
    30   18   35 1   
    31   19   20 1   
    32   19   21 1   
    33   19   36 1   
    34   20   37 1   
    35   21   22 1   
    36   21   23 1   
    37   21   38 1   
    38   22   39 1   
    39   23   24 1   
    40   23   25 1   
    41   23   40 1   
    42   24   41 1   
    43   25   27 1   
    44   25   42 1   
    45   25   43 1   
    46   27   44 1   
@<TRIPOS>SUBSTRUCTURE
     1 IRF         1 TEMP              0 ****  ****    0 ROOT
