@<TRIPOS>MOLECULE
IRF
   44    46     1     0     0
SMALL
bcc


@<TRIPOS>ATOM
      1 N1         -5.8380   -5.8200   -3.6580 nc        1 IRF     -0.433400
      2 C2         -6.7980   -6.1390   -4.6500 c         1 IRF      0.851900
      3 O2         -7.4940   -7.1660   -4.5680 o         1 IRF     -0.576500
      4 N3         -6.9920   -5.2870   -5.7660 n         1 IRF     -0.614500
      5 C4         -6.2540   -4.1320   -5.9890 c         1 IRF      0.609000
      6 O4         -6.4960   -3.4140   -6.9690 o         1 IRF     -0.563500
      7 C4A        -5.1670   -3.8240   -4.9870 cd        1 IRF      0.311800
      8 N5         -4.3650   -2.8160   -5.1900 nc        1 IRF     -0.518000
      9 C5A        -3.3680   -2.5690   -4.2440 ca        1 IRF      0.308600
     10 C6         -2.4540   -1.5160   -4.4790 ca        1 IRF     -0.113300
     11 C7         -1.4370   -1.2300   -3.5770 ca        1 IRF     -0.070300
     12 C7M        -0.5070   -0.1120   -3.8650 c3        1 IRF     -0.064800
     13 C8         -1.3130   -2.0160   -2.4160 ca        1 IRF      0.078900
     14 C9         -2.1920   -3.0540   -2.1550 ca        1 IRF     -0.142000
     15 C9A        -3.2500   -3.3510   -3.0490 ca        1 IRF     -0.023600
     16 N10        -4.1750   -4.3770   -2.7950 na        1 IRF     -0.111100
     17 C10        -5.0950   -4.7340   -3.7920 cd        1 IRF      0.083400
     18 C1'        -4.1960   -5.0330   -1.4980 c3        1 IRF     -0.013700
     19 C2'        -3.2010   -6.2030   -1.3340 c3        1 IRF      0.132100
     20 O2'        -3.7820   -7.4550   -1.6500 oh        1 IRF     -0.604800
     21 C3'        -2.7880   -6.2950    0.1500 c3        1 IRF      0.148100
     22 O3'        -2.0010   -5.1430    0.4170 oh        1 IRF     -0.626800
     23 C4'        -2.0130   -7.5860    0.4510 c3        1 IRF      0.079100
     24 O4'        -1.6090   -7.4740    1.8110 oh        1 IRF     -0.618800
     25 C5'        -0.8030   -7.7700   -0.4690 c3        1 IRF      0.089400
     26 I8          0.1620   -1.6730   -1.0690 i         1 IRF     -0.112900
     27 O5'         0.0240   -8.8080    0.0190 oh        1 IRF     -0.600800
     28 H3         -7.7060   -5.5300   -6.4210 hn        1 IRF      0.351500
     29 H6         -2.5580   -0.9150   -5.4000 ha        1 IRF      0.168000
     30 H7M1       -0.7710    0.3930   -4.8270 hc        1 IRF      0.059367
     31 H7M2       -0.5500    0.6530   -3.0480 hc        1 IRF      0.059367
     32 H7M3        0.5440   -0.4860   -3.9450 hc        1 IRF      0.059367
     33 H9         -2.0520   -3.6660   -1.2420 ha        1 IRF      0.189000
     34 H1'1       -5.2350   -5.4220   -1.2900 h1        1 IRF      0.098200
     35 H1'2       -3.9630   -4.2530   -0.7150 h1        1 IRF      0.098200
     36 H2'        -2.2840   -6.0430   -1.9680 h1        1 IRF      0.056700
     37 HA         -4.2800   -7.3580   -2.4710 ho        1 IRF      0.436000
     38 H3'        -3.7060   -6.2750    0.8020 h1        1 IRF      0.063700
     39 HB         -1.5870   -5.2830    1.2810 ho        1 IRF      0.438000
     40 H4'        -2.7100   -8.4640    0.3490 h1        1 IRF      0.070700
     41 HC         -0.8360   -8.0430    1.9300 ho        1 IRF      0.428000
     42 H5'1       -1.1490   -7.9830   -1.5140 h1        1 IRF      0.067200
     43 H5'2       -0.1560   -6.8530   -0.4530 h1        1 IRF      0.067200
     44 H5'        -0.4430   -9.6400   -0.1250 ho        1 IRF      0.405000
@<TRIPOS>BOND
     1    1    2 1   
     2    1   17 2   
     3    2    3 2   
     4    2    4 1   
     5    4    5 1   
     6    4   28 1   
     7    5    6 2   
     8    5    7 1   
     9    7    8 2   
    10    7   17 1   
    11    8    9 1   
    12    9   10 ar  
    13    9   15 ar  
    14   10   11 ar  
    15   10   29 1   
    16   11   12 1   
    17   11   13 ar  
    18   12   30 1   
    19   12   31 1   
    20   12   32 1   
    21   13   14 ar  
    22   13   26 1   
    23   14   15 ar  
    24   14   33 1   
    25   15   16 1   
    26   16   17 1   
    27   16   18 1   
    28   18   19 1   
    29   18   34 1   
    30   18   35 1   
    31   19   20 1   
    32   19   21 1   
    33   19   36 1   
    34   20   37 1   
    35   21   22 1   
    36   21   23 1   
    37   21   38 1   
    38   22   39 1   
    39   23   24 1   
    40   23   25 1   
    41   23   40 1   
    42   24   41 1   
    43   25   27 1   
    44   25   42 1   
    45   25   43 1   
    46   27   44 1   
@<TRIPOS>SUBSTRUCTURE
     1 IRF         1 TEMP              0 ****  ****    0 ROOT
