@<TRIPOS>MOLECULE
IRF
   44    39     1     0     0
SMALL
bcc


@<TRIPOS>ATOM
      1 N1          2.3920    0.4640   -0.4660 n1        1 IRF     -0.616800
      2 C2          3.7510    0.5080   -0.4580 c1        1 IRF      0.950700
      3 O2          4.3680    0.4170   -1.5100 o         1 IRF     -0.554900
      4 N3          4.4460    0.6080    0.7600 n2        1 IRF     -0.858800
      5 C4          3.7720    0.6590    1.9220 c1        1 IRF      0.809900
      6 O4          4.3970    0.7090    3.0120 o         1 IRF     -0.521500
      7 C4A         2.3830    0.6150    1.9180 cg        1 IRF      0.220800
      8 N5          1.6790    0.6760    3.1130 n1        1 IRF     -0.318800
      9 C5A         0.3090    0.6390    3.1020 cg        1 IRF     -0.009500
     10 C6         -0.4230    0.6360    4.3280 c1        1 IRF     -0.038000
     11 C7         -1.8110    0.5350    4.3120 c1        1 IRF     -0.037100
     12 C7M        -2.5070    0.5770    5.6260 c3        1 IRF     -0.099000
     13 C8         -2.4980    0.4350    3.0830 c1        1 IRF      0.080600
     14 C9         -1.7800    0.4380    1.8710 c1        1 IRF     -0.038000
     15 C9A        -0.3740    0.5400    1.8870 cg        1 IRF     -0.009500
     16 N10         0.3240    0.4790    0.7010 n1        1 IRF     -0.686300
     17 C10         1.6980    0.5160    0.7110 cg        1 IRF      0.497800
     18 C1'        -0.2000    0.8440   -0.5510 c3        1 IRF      0.187100
     19 C2'        -0.5630   -0.4440   -1.3620 c3        1 IRF      0.132100
     20 O2'         0.4000   -1.3700   -1.1690 oh        1 IRF     -0.599800
     21 C3'        -0.6540   -0.1150   -2.8340 c3        1 IRF      0.147100
     22 O3'        -1.9420    0.3410   -3.1360 oh        1 IRF     -0.627800
     23 C4'        -0.3630   -1.3630   -3.6410 c3        1 IRF      0.118100
     24 O4'         0.9820   -1.5070   -3.7860 oh        1 IRF     -0.620800
     25 C5'        -1.0070   -1.2290   -5.0060 c3        1 IRF      0.093400
     26 I8         -4.6120    0.7360    2.8930 i         1 IRF     -0.117600
     27 O5'        -0.5690   -2.3250   -5.8780 oh        1 IRF     -0.612800
     28 H3          5.3450    0.6360    0.7600 hn        1 IRF      0.509400
     29 H6          0.0580    0.6790    5.1940 ha        1 IRF      0.121000
     30 H7M1       -3.0780    1.4340    5.6820 hc        1 IRF      0.059033
     31 H7M2       -1.8830    0.5770    6.3100 hc        1 IRF      0.059033
     32 H7M3       -3.0790   -0.2020    5.7130 hc        1 IRF      0.059033
     33 H9         -2.2820    0.3650    0.9680 ha        1 IRF      0.121000
     34 H1'1       -1.0240    1.4030   -0.4160 h1        1 IRF      0.099200
     35 H1'2        0.4360    1.3340   -1.0240 h1        1 IRF      0.099200
     36 H2'        -1.4200   -0.7980   -1.0530 h1        1 IRF      0.052700
     37 HA          0.0500   -2.0890   -0.7180 ho        1 IRF      0.435000
     38 H3'         0.0270    0.6090   -3.0670 h1        1 IRF      0.066700
     39 HB         -1.8850    1.1650   -3.5960 ho        1 IRF      0.438000
     40 H4'        -0.7480   -2.1850   -3.1550 h1        1 IRF      0.081700
     41 HC          1.1630   -2.3280   -3.9810 ho        1 IRF      0.434000
     42 H5'1       -0.7220   -0.3000   -5.4360 h1        1 IRF      0.041700
     43 H5'2       -1.9600   -1.2570   -4.9120 h1        1 IRF      0.041700
     44 H5'        -0.5960   -2.0610   -6.7090 ho        1 IRF      0.412000
@<TRIPOS>BOND
     1    1    2 3   
     2    2    3 1   
     3    4    5 2   
     4    4   28 1   
     5    5    6 2   
     6    7    8 3   
     7    7   17 1   
     8    9   10 3   
     9    9   15 1   
    10   10   29 1   
    11   11   12 1   
    12   11   13 3   
    13   12   30 1   
    14   12   31 1   
    15   12   32 1   
    16   13   26 1   
    17   14   15 3   
    18   14   33 1   
    19   16   17 3   
    20   16   18 1   
    21   18   19 1   
    22   18   34 1   
    23   18   35 1   
    24   19   20 1   
    25   19   21 1   
    26   19   36 1   
    27   20   37 1   
    28   21   22 1   
    29   21   23 1   
    30   21   38 1   
    31   22   39 1   
    32   23   24 1   
    33   23   25 1   
    34   23   40 1   
    35   24   41 1   
    36   25   27 1   
    37   25   42 1   
    38   25   43 1   
    39   27   44 1   
@<TRIPOS>SUBSTRUCTURE
     1 IRF         1 TEMP              0 ****  ****    0 ROOT
