@<TRIPOS>MOLECULE
IRG
   39    40     1     0     0
SMALL
bcc


@<TRIPOS>ATOM
      1 N1         -0.0390    0.4730    0.1890 n2        1 IRG     -0.145000
      2 C2          1.3310    0.1290    0.2130 c2        1 IRG      0.174000
      3 N3          1.9960   -0.1830    1.3570 n2        1 IRG     -0.163000
      4 C4          1.3010   -0.1830    2.5320 ca        1 IRG      0.083000
      5 C5         -0.0990    0.1300    2.6110 ca        1 IRG     -0.148000
      6 C6         -0.6920    0.4800    1.3410 c2        1 IRG      0.060000
      7 CAB         2.5800    0.7470   -5.9830 c2        1 IRG     -0.024000
      8 CAC         4.0030   -0.1700   -2.4850 c2        1 IRG     -0.151000
      9 CAD         3.0220    0.4430   -4.7910 c1        1 IRG     -0.153000
     10 CAE         3.3210   -0.1760   -1.2290 c2        1 IRG      0.074000
     11 CAF         3.4650    0.1500   -3.6490 c1        1 IRG     -0.001000
     12 CAG        -0.0990   -0.2620    5.0040 ca        1 IRG     -0.144000
     13 CAH        -0.7720    0.0640    3.8520 ca        1 IRG     -0.041000
     14 CAI         1.9950   -0.5160    3.7500 ca        1 IRG     -0.062000
     15 CAJ        -3.9920   -0.2820   -0.6820 c3        1 IRG     -0.259000
     16 CAK        -3.8980   -0.8010    0.7260 c3        1 IRG     -0.309000
     17 NAN        -2.1240    0.9090    1.2860 n4        1 IRG     -0.054000
     18 CAO         1.2990   -0.5430    4.9400 ca        1 IRG     -0.091000
     19 CAP         2.0030    0.1350   -1.0700 c2        1 IRG     -0.233000
     20 CAU        -2.9860   -0.2050    1.6700 c1        1 IRG      0.114000
     21 HNAA        1.5590   -1.7080    6.6120 hn        1 IRG      0.272333
     22 HNAB        2.9870   -1.0700    6.0110 hn        1 IRG      0.272333
     23 HAB         5.0740   -0.4580   -2.4610 ha        1 IRG      0.172000
     24 HAC         3.2350    0.7090   -6.8710 ha        1 IRG      0.159500
     25 HAD         1.5380    1.0550   -6.1640 ha        1 IRG      0.159500
     26 HAE         3.9490   -0.4580   -0.3610 ha        1 IRG      0.152000
     27 HAF         1.3910    0.4120   -1.9480 ha        1 IRG      0.174000
     28 HAG        -1.8620    0.2440    3.9020 ha        1 IRG      0.178000
     29 HAH        -0.6410   -0.3100    5.9630 ha        1 IRG      0.176000
     30 HAI         3.0770   -0.7410    3.6810 ha        1 IRG      0.194000
     31 HAJ        -3.0150   -0.3650   -1.2180 hc        1 IRG      0.113667
     32 HAJA       -4.3370    0.7800   -0.7060 hc        1 IRG      0.113667
     33 HAK        -4.7410   -0.8880   -1.2560 hc        1 IRG      0.113667
     34 HAKA       -3.6480   -1.9160    0.7290 hc        1 IRG      0.219500
     35 HNAN       -4.9220   -0.7730    1.2340 hc        1 IRG      0.219500
     36 HAU        -2.2470    1.6350    2.0120 hn        1 IRG      0.264500
     37 NAA         1.9930   -0.8770    6.1890 n4        1 IRG     -0.016000
     38 HAN2       -2.3280    1.3310    0.3610 hn        1 IRG      0.264500
     39 HAA3        1.9160   -0.0880    6.8450 hn        1 IRG      0.272333
@<TRIPOS>BOND
     1    1    2 1   
     2    1    6 1   
     3    2    3 1   
     4    2   19 1   
     5    3    4 1   
     6    4    5 1   
     7    4   14 1   
     8    5    6 1   
     9    5   13 1   
    10    6   17 1   
    11    7    9 1   
    12    7   24 1   
    13    7   25 1   
    14    8   10 1   
    15    8   11 1   
    16    8   23 1   
    17    9   11 1   
    18   10   19 1   
    19   10   26 1   
    20   12   13 1   
    21   12   18 1   
    22   12   29 1   
    23   13   28 1   
    24   14   18 1   
    25   14   30 1   
    26   15   16 1   
    27   15   31 1   
    28   15   32 1   
    29   15   33 1   
    30   16   20 1   
    31   16   34 1   
    32   16   35 1   
    33   17   20 1   
    34   17   36 1   
    35   17   38 1   
    36   18   37 1   
    37   19   27 1   
    38   21   37 1   
    39   22   37 1   
    40   37   39 1   
@<TRIPOS>SUBSTRUCTURE
     1 IRG         1 TEMP              0 ****  ****    0 ROOT
