@<TRIPOS>MOLECULE
IRG
   37    36     1     0     0
SMALL
bcc


@<TRIPOS>ATOM
      1 N1         -0.3070    0.1440    0.4150 n2        1 IRG     -0.326000
      2 C2          0.8930    0.7870    0.3820 c2        1 IRG      0.168000
      3 N3          1.8330    0.8510    1.3810 n2        1 IRG     -0.258000
      4 C4          1.5340    0.2040    2.5350 c2        1 IRG      0.188000
      5 C5          0.2970   -0.5130    2.7160 c2        1 IRG     -0.325000
      6 C6         -0.6260   -0.5170    1.5890 c2        1 IRG      0.267000
      7 CAB         0.4740   -1.6960   -2.7090 c2        1 IRG      0.132000
      8 CAC         3.5180    2.5430   -1.4420 c2        1 IRG     -0.174000
      9 CAD         0.1460   -1.6930   -3.9820 c1        1 IRG     -0.573000
     10 CAE         2.3680    2.0210   -1.1570 c1        1 IRG     -0.073000
     11 CAF        -0.1770   -1.6900   -5.2180 c1        1 IRG      0.190000
     12 CAG         0.8970   -1.1670    5.0140 c3        1 IRG     -0.163000
     13 CAH        -0.0290   -1.1670    3.8910 c1        1 IRG     -0.159000
     14 CAI         2.4650    0.2260    3.6360 c2        1 IRG     -0.301000
     15 CAJ        -2.8980    1.1770   -2.4660 c3        1 IRG     -0.140000
     16 CAK        -3.7680    0.1640   -1.8290 c2        1 IRG     -0.447000
     17 NAN        -1.7990   -1.1870    1.6940 nv        1 IRG     -0.324000
     18 CAO         2.1960   -0.4200    4.8220 c2        1 IRG      0.103000
     19 CAP         1.2010    1.4960   -0.8870 c2        1 IRG     -0.115000
     20 CAU        -3.4930   -0.5130   -0.7430 c1        1 IRG      0.141000
     21 HNAA        2.8040   -0.7470    6.7440 hn        1 IRG      0.218000
     22 HNAB        3.9020    0.1380    5.8060 hn        1 IRG      0.218000
     23 HAB         3.7700    3.5820   -1.1810 ha        1 IRG      0.143500
     24 HAC         0.6620   -2.6300   -2.1510 ha        1 IRG      0.125000
     25 HAD         0.5800   -0.7660   -2.1200 ha        1 IRG      0.125000
     26 HAE         4.3090    1.9790   -1.9580 ha        1 IRG      0.143500
     27 HAF         0.3700    1.5710   -1.6120 ha        1 IRG      0.158000
     28 HAG         1.1210   -2.2490    5.2530 hc        1 IRG      0.142500
     29 HAH         0.3450   -0.7410    5.9010 hc        1 IRG      0.142500
     30 HAI         3.4080    0.7770    3.4900 ha        1 IRG      0.148000
     31 HAJ        -3.4170    2.1680   -2.4760 hc        1 IRG      0.090333
     32 HAJA       -1.9290    1.2870   -1.9170 hc        1 IRG      0.090333
     33 HAK        -2.6780    0.8780   -3.5210 hc        1 IRG      0.090333
     34 HAKA       -4.7320   -0.0130   -2.3470 ha        1 IRG      0.190000
     35 HNAN       -2.4830   -1.1800    0.9640 hn        1 IRG      0.267000
     36 HAU        -1.9910   -1.6290    2.5670 hn        1 IRG      0.267000
     37 NAA         3.1060   -0.4500    5.8500 n8        1 IRG     -0.368000
@<TRIPOS>BOND
     1    1    2 1   
     2    1    6 1   
     3    2    3 1   
     4    2   19 1   
     5    3    4 1   
     6    4    5 1   
     7    4   14 1   
     8    5    6 1   
     9    5   13 1   
    10    6   17 1   
    11    7    9 1   
    12    7   24 1   
    13    7   25 1   
    14    8   10 1   
    15    8   23 1   
    16    8   26 1   
    17    9   11 1   
    18   10   19 1   
    19   12   13 1   
    20   12   18 1   
    21   12   28 1   
    22   12   29 1   
    23   14   18 1   
    24   14   30 1   
    25   15   16 1   
    26   15   31 1   
    27   15   32 1   
    28   15   33 1   
    29   16   20 1   
    30   16   34 1   
    31   17   35 1   
    32   17   36 1   
    33   18   37 1   
    34   19   27 1   
    35   21   37 1   
    36   22   37 1   
@<TRIPOS>SUBSTRUCTURE
     1 IRG         1 TEMP              0 ****  ****    0 ROOT
