@<TRIPOS>MOLECULE
IRG
   37    40     1     0     0
SMALL
bcc


@<TRIPOS>ATOM
      1 N1          0.5610   -0.8240   -0.1980 nb        1 IRG     -0.776000
      2 C2          0.9360    0.4930    0.0240 cp        1 IRG      0.746500
      3 N3          0.1120    1.5400    0.1950 nb        1 IRG     -0.726000
      4 C4         -1.2450    1.2860    0.1290 ca        1 IRG      0.480600
      5 C5         -1.7540   -0.0270   -0.1210 ca        1 IRG     -0.329600
      6 C6         -0.7610   -1.0870   -0.2820 ca        1 IRG      0.705200
      7 CAB         5.1520    1.2330    0.1950 ca        1 IRG     -0.117000
      8 CAC         4.3120    2.1210   -0.4770 ca        1 IRG     -0.143500
      9 CAD         4.6170    0.1020    0.8110 ca        1 IRG     -0.143500
     10 CAE         2.9390    1.8840   -0.5340 ca        1 IRG     -0.088500
     11 CAF         3.2450   -0.1450    0.7570 ca        1 IRG     -0.088500
     12 CAG        -4.0230    0.8320   -0.0380 ca        1 IRG     -0.192000
     13 CAH        -3.1510   -0.2130   -0.2090 ca        1 IRG     -0.055000
     14 CAI        -2.1590    2.3620    0.3080 ca        1 IRG     -0.269300
     15 CAJ        -0.8220   -4.9010   -0.6490 cx        1 IRG     -0.150900
     16 CAK        -0.0870   -4.4090    0.5630 cx        1 IRG     -0.150900
     17 NAN        -1.2020   -2.3790   -0.6000 nh        1 IRG     -0.808900
     18 CAO        -3.5360    2.1500    0.2400 ca        1 IRG      0.174600
     19 CAP         2.4030    0.7470    0.0840 cp        1 IRG     -0.136500
     20 CAU        -0.2970   -3.4790   -0.6200 cx        1 IRG      0.159500
     21 HNAA       -5.3440    3.0620    0.1120 hn        1 IRG      0.399800
     22 HNAB       -4.0710    4.0990    0.4250 hn        1 IRG      0.399800
     23 HAB         6.2340    1.4230    0.2380 ha        1 IRG      0.130000
     24 HAC         4.7320    3.0140   -0.9630 ha        1 IRG      0.131500
     25 HAD         5.2770   -0.5990    1.3430 ha        1 IRG      0.131500
     26 HAE         2.2820    2.5910   -1.0610 ha        1 IRG      0.146500
     27 HAF         2.8320   -1.0410    1.2440 ha        1 IRG      0.146500
     28 HAG        -5.1070    0.6580   -0.1080 ha        1 IRG      0.135000
     29 HAH        -3.5710   -1.2070   -0.4310 ha        1 IRG      0.128000
     30 HAI        -1.7530    3.3660    0.5110 ha        1 IRG      0.154000
     31 HAJ        -0.3300   -5.6160   -1.3310 hc        1 IRG      0.075450
     32 HAJA       -1.9070   -5.0900   -0.5730 hc        1 IRG      0.075450
     33 HAK        -0.6520   -4.2460    1.4970 hc        1 IRG      0.075450
     34 HAKA        0.9370   -4.7720    0.7620 hc        1 IRG      0.075450
     35 HNAN       -2.1110   -2.5970   -0.2470 hn        1 IRG      0.412800
     36 HAU         0.5950   -3.2460   -1.2470 h1        1 IRG      0.119700
     37 NAA        -4.4390    3.1780    0.5070 nh        1 IRG     -0.827200
@<TRIPOS>BOND
     1    1    2 ar  
     2    1    6 ar  
     3    2    3 ar  
     4    2   19 1   
     5    3    4 ar  
     6    4    5 ar  
     7    4   14 ar  
     8    5    6 ar  
     9    5   13 ar  
    10    6   17 1   
    11    7    8 ar  
    12    7    9 ar  
    13    7   23 1   
    14    8   10 ar  
    15    8   24 1   
    16    9   11 ar  
    17    9   25 1   
    18   10   19 ar  
    19   10   26 1   
    20   11   19 ar  
    21   11   27 1   
    22   12   13 ar  
    23   12   18 ar  
    24   12   28 1   
    25   13   29 1   
    26   14   18 ar  
    27   14   30 1   
    28   15   16 1   
    29   15   20 1   
    30   15   31 1   
    31   15   32 1   
    32   16   20 1   
    33   16   33 1   
    34   16   34 1   
    35   17   20 1   
    36   17   35 1   
    37   18   37 1   
    38   20   36 1   
    39   21   37 1   
    40   22   37 1   
@<TRIPOS>SUBSTRUCTURE
     1 IRG         1 TEMP              0 ****  ****    0 ROOT
