@<TRIPOS>MOLECULE
IRL
   79    84     1     0     0
SMALL
bcc


@<TRIPOS>ATOM
      1 C1          0.5260   -1.4440    2.6740 ca        1 IRL     -0.056300
      2 C2          1.8200   -1.3160    2.1560 ca        1 IRL     -0.091000
      3 C3          2.2680   -0.0680    1.7020 ca        1 IRL     -0.185600
      4 C4          1.4400    1.0600    1.7820 ca        1 IRL     -0.091000
      5 C5          0.1520    0.9370    2.3080 ca        1 IRL     -0.056300
      6 C6         -0.3000   -0.3170    2.7430 ca        1 IRL     -0.080000
      7 C7          0.0440   -2.7560    3.1620 c3        1 IRL     -0.069300
      8 C8         -0.7300    2.1220    2.4240 c3        1 IRL     -0.069300
      9 C9          3.6510    0.0140    1.2100 c         1 IRL      0.579700
     10 N10         3.8640    0.8910   -0.0150 n4        1 IRL     -0.570200
     11 C11         5.3010    0.9610   -0.4850 c3        1 IRL      0.101500
     12 C12         5.6600    0.0210   -1.6370 c3        1 IRL     -0.042100
     13 C13         5.4260   -1.4280   -1.4010 ca        1 IRL     -0.144300
     14 C14         5.9930   -2.0860   -0.3040 ca        1 IRL     -0.122000
     15 C15         4.5490   -3.5480   -2.1880 ca        1 IRL     -0.118000
     16 C16         4.9440   -5.6500   -0.9190 cp        1 IRL     -0.067000
     17 C17         5.8340   -3.4600   -0.1440 ca        1 IRL     -0.118000
     18 C18         4.7080   -2.1740   -2.3450 ca        1 IRL     -0.122000
     19 C19         5.1090   -4.2080   -1.0840 cp        1 IRL     -0.000000
     20 C20         6.0030   -6.4350   -0.4390 ca        1 IRL     -0.113000
     21 C21         5.8450   -7.8110   -0.2860 ca        1 IRL     -0.126500
     22 C22         4.6300   -8.4170   -0.6060 ca        1 IRL     -0.110000
     23 C23         3.5720   -7.6430   -1.0830 ca        1 IRL     -0.126500
     24 C24         3.7270   -6.2670   -1.2420 ca        1 IRL     -0.113000
     25 C25         2.9210    0.5510   -1.1080 c3        1 IRL      0.081100
     26 O26         4.6350   -0.5250    1.6980 o         1 IRL     -0.435100
     27 C27         5.5240    2.4510   -0.9670 c3        1 IRL      0.710500
     28 O28         4.8360    2.8600   -1.9460 o         1 IRL     -0.644500
     29 N29         7.1270    2.7020   -1.2730 n4        1 IRL     -0.883000
     30 C30         7.4980    3.9210   -0.5060 c3        1 IRL      0.047500
     31 C31         6.3410    4.1490    0.4620 c         1 IRL      0.731600
     32 C32         8.8360    3.8340    0.2370 c3        1 IRL     -0.004200
     33 C33         9.8340    3.0230   -0.4690 cc        1 IRL     -0.225400
     34 C34        10.7040    2.1110    0.1420 cd        1 IRL     -0.065100
     35 N35        11.5410    1.5370   -0.8070 na        1 IRL     -0.174400
     36 C36        11.2500    2.1030   -2.0540 ca        1 IRL     -0.049200
     37 C37        10.1690    3.0480   -1.8780 ca        1 IRL     -0.106800
     38 C38        11.8210    1.8740   -3.3160 ca        1 IRL     -0.123000
     39 C39        11.3190    2.5920   -4.3890 ca        1 IRL     -0.106000
     40 C40        10.2760    3.5240   -4.2280 ca        1 IRL     -0.128000
     41 C41         9.7020    3.7570   -2.9890 ca        1 IRL     -0.128000
     42 O42         6.2140    4.9370    1.3840 o         1 IRL     -0.516500
     43 O43         5.3070    3.2840    0.2160 os        1 IRL     -0.499900
     44 H1          2.4870   -2.1930    2.1100 ha        1 IRL      0.150500
     45 H2          1.7930    2.0540    1.4680 ha        1 IRL      0.150500
     46 H3         -1.3200   -0.4130    3.1520 ha        1 IRL      0.160000
     47 H4          0.1970   -2.8270    4.2700 hc        1 IRL      0.062700
     48 H5         -1.0470   -2.8830    2.9510 hc        1 IRL      0.062700
     49 H6          0.5990   -3.5970    2.6780 hc        1 IRL      0.062700
     50 H7         -0.3730    2.9620    1.7780 hc        1 IRL      0.062700
     51 H8         -0.7480    2.4790    3.4850 hc        1 IRL      0.062700
     52 H9         -1.7760    1.8650    2.1240 hc        1 IRL      0.062700
     53 H10         5.9500    0.7410    0.4110 hx        1 IRL      0.111700
     54 H11         6.7620    0.1470   -1.8330 hc        1 IRL      0.079700
     55 H12         5.1220    0.3640   -2.5660 hc        1 IRL      0.079700
     56 H13         6.5610   -1.5170    0.4470 ha        1 IRL      0.136000
     57 H14         3.9940   -4.1240   -2.9450 ha        1 IRL      0.151000
     58 H15         6.2800   -3.9630    0.7280 ha        1 IRL      0.151000
     59 H16         4.2820   -1.6780   -3.2320 ha        1 IRL      0.136000
     60 H17         6.9670   -5.9640   -0.1940 ha        1 IRL      0.132000
     61 H18         6.6830   -8.4200    0.0850 ha        1 IRL      0.141500
     62 H19         4.5070   -9.5040   -0.4850 ha        1 IRL      0.144000
     63 H20         2.6130   -8.1180   -1.3370 ha        1 IRL      0.141500
     64 H21         2.8880   -5.6620   -1.6170 ha        1 IRL      0.132000
     65 H22         1.8690    0.6620   -0.7300 hx        1 IRL      0.111033
     66 H23         3.0980    1.2670   -1.9620 hx        1 IRL      0.111033
     67 H24         3.0910   -0.5050   -1.4470 hx        1 IRL      0.111033
     68 H25         7.7060    1.9160   -0.9950 hn        1 IRL      0.441300
     69 H26         7.5240    4.8000   -1.2200 hx        1 IRL      0.130700
     70 H27         9.2110    4.8890    0.3630 hc        1 IRL      0.084200
     71 H28         8.6650    3.4220    1.2690 hc        1 IRL      0.084200
     72 H29        10.7790    1.8350    1.1980 h4        1 IRL      0.179000
     73 H30        12.3040    0.9390   -0.6190 hn        1 IRL      0.314700
     74 H31        12.6440    1.1570   -3.4450 ha        1 IRL      0.149000
     75 H32        11.7490    2.4410   -5.3920 ha        1 IRL      0.149000
     76 H33         9.9230    4.0840   -5.1080 ha        1 IRL      0.146000
     77 H34         8.9140    4.5160   -2.8760 ha        1 IRL      0.125000
     78 H101        3.6190    1.8500    0.3000 hn        1 IRL      0.474800
     79 H292        7.2300    2.8650   -2.2740 hn        1 IRL      0.441300
@<TRIPOS>BOND
     1    1    2 ar  
     2    1    6 ar  
     3    1    7 1   
     4    2    3 ar  
     5    2   44 1   
     6    3    4 ar  
     7    3    9 1   
     8    4    5 ar  
     9    4   45 1   
    10    5    6 ar  
    11    5    8 1   
    12    6   46 1   
    13    7   47 1   
    14    7   48 1   
    15    7   49 1   
    16    8   50 1   
    17    8   51 1   
    18    8   52 1   
    19    9   10 1   
    20    9   26 2   
    21   10   11 1   
    22   10   25 1   
    23   10   78 1   
    24   11   12 1   
    25   11   27 1   
    26   11   53 1   
    27   12   13 1   
    28   12   54 1   
    29   12   55 1   
    30   13   14 ar  
    31   13   18 ar  
    32   14   17 ar  
    33   14   56 1   
    34   15   18 ar  
    35   15   19 ar  
    36   15   57 1   
    37   16   19 1   
    38   16   20 ar  
    39   16   24 ar  
    40   17   19 ar  
    41   17   58 1   
    42   18   59 1   
    43   20   21 ar  
    44   20   60 1   
    45   21   22 ar  
    46   21   61 1   
    47   22   23 ar  
    48   22   62 1   
    49   23   24 ar  
    50   23   63 1   
    51   24   64 1   
    52   25   65 1   
    53   25   66 1   
    54   25   67 1   
    55   27   28 1   
    56   27   29 1   
    57   27   43 1   
    58   29   30 1   
    59   29   68 1   
    60   29   79 1   
    61   30   31 1   
    62   30   32 1   
    63   30   69 1   
    64   31   42 2   
    65   31   43 1   
    66   32   33 1   
    67   32   70 1   
    68   32   71 1   
    69   33   34 2   
    70   33   37 1   
    71   34   35 1   
    72   34   72 1   
    73   35   36 1   
    74   35   73 1   
    75   36   37 ar  
    76   36   38 ar  
    77   37   41 ar  
    78   38   39 ar  
    79   38   74 1   
    80   39   40 ar  
    81   39   75 1   
    82   40   41 ar  
    83   40   76 1   
    84   41   77 1   
@<TRIPOS>SUBSTRUCTURE
     1 IRL         1 TEMP              0 ****  ****    0 ROOT
