@<TRIPOS>MOLECULE
IRL
   77    81     1     0     0
SMALL
bcc


@<TRIPOS>ATOM
      1 C1          1.6400    4.7730   -0.4560 ca        1 IRL     -0.087800
      2 C2          1.1310    3.4710   -0.3730 ca        1 IRL     -0.096500
      3 C3          1.9670    2.3830   -0.6330 ca        1 IRL     -0.134600
      4 C4          3.3030    2.5810   -0.9880 ca        1 IRL     -0.096500
      5 C5          3.8160    3.8790   -1.0680 ca        1 IRL     -0.087800
      6 C6          2.9800    4.9690   -0.8010 ca        1 IRL     -0.125000
      7 C7          0.7490    5.9240   -0.1750 c3        1 IRL     -0.054300
      8 C8          5.2380    4.0970   -1.4210 c3        1 IRL     -0.054300
      9 C9          1.4130    0.9980   -0.5980 c         1 IRL      0.677700
     10 N10         0.8620    0.5280    0.5890 n         1 IRL     -0.452800
     11 C11         0.0170   -0.6510    0.5620 c3        1 IRL      0.022700
     12 C12         0.4630   -1.7630    1.5250 c3        1 IRL     -0.041100
     13 C13         1.8450   -2.2740    1.3340 ca        1 IRL     -0.049300
     14 C14         2.5120   -2.8230    2.4410 ca        1 IRL     -0.133000
     15 C15         3.7860   -3.3640    2.3090 ca        1 IRL     -0.117500
     16 C16         4.4280   -3.3730    1.0620 cp        1 IRL     -0.064000
     17 C17         3.7650   -2.8210   -0.0420 ca        1 IRL     -0.117500
     18 C18         2.4900   -2.2770    0.0930 ca        1 IRL     -0.133000
     19 C19         5.7650   -3.9440    0.9190 cp        1 IRL     -0.017000
     20 C20         6.0990   -4.6970   -0.2160 ca        1 IRL     -0.123000
     21 C21         7.3740   -5.2430   -0.3500 ca        1 IRL     -0.133000
     22 C22         8.3320   -5.0440    0.6440 ca        1 IRL     -0.139000
     23 C23         8.0080   -4.2950    1.7750 ca        1 IRL     -0.133000
     24 C24         6.7340   -3.7490    1.9140 ca        1 IRL     -0.123000
     25 C25         0.7840    1.3670    1.7580 c3        1 IRL      0.042300
     26 O26         1.4680    0.2620   -1.6090 o         1 IRL     -0.634100
     27 C27        -1.4750   -0.3250    0.8860 c         1 IRL      0.620100
     28 O28        -2.0960   -1.0570    1.6860 o         1 IRL     -0.627100
     29 N29        -2.0690    0.6880    0.1660 n         1 IRL     -0.496900
     30 C30        -3.2470    1.3770    0.6720 c3        1 IRL     -0.057300
     31 C31        -2.9220    2.8330    1.1690 c         1 IRL      0.907600
     32 C32        -4.3530    1.5040   -0.3880 c3        1 IRL     -0.011200
     33 C33        -4.9850    0.2290   -0.7530 cc        1 IRL     -0.093400
     34 C34        -4.4130   -0.8300   -1.4470 cd        1 IRL     -0.116100
     35 N35        -5.3640   -1.8450   -1.6850 na        1 IRL     -0.194400
     36 C36        -6.5480   -1.4710   -1.0290 ca        1 IRL     -0.057200
     37 C37        -6.3610   -0.1500   -0.4700 ca        1 IRL     -0.080800
     38 C38        -7.7780   -2.1310   -0.9180 ca        1 IRL     -0.155000
     39 C39        -8.8080   -1.4760   -0.2550 ca        1 IRL     -0.126000
     40 C40        -8.6350   -0.1930    0.2860 ca        1 IRL     -0.171000
     41 C41        -7.4200    0.4750    0.1840 ca        1 IRL     -0.075000
     42 O42        -1.7610    3.2990    0.9680 o         1 IRL     -0.837300
     43 O43        -3.8500    3.4550    1.7430 o         1 IRL     -0.837300
     44 H1          0.0670    3.3180   -0.0920 ha        1 IRL      0.174000
     45 H2          3.9440    1.7140   -1.2120 ha        1 IRL      0.174000
     46 H3          3.3820    5.9910   -0.8630 ha        1 IRL      0.121000
     47 H4         -0.1980    5.5800    0.3190 hc        1 IRL      0.044367
     48 H5          1.2570    6.6610    0.4940 hc        1 IRL      0.044367
     49 H6          0.4820    6.4430   -1.1290 hc        1 IRL      0.044367
     50 H7          5.6140    3.2810   -2.0870 hc        1 IRL      0.044367
     51 H8          5.3750    5.0740   -1.9470 hc        1 IRL      0.044367
     52 H9          5.8660    4.1080   -0.4940 hc        1 IRL      0.044367
     53 H10         0.0280   -1.0730   -0.4900 h1        1 IRL      0.094700
     54 H11         0.3290   -1.4070    2.5830 hc        1 IRL      0.072200
     55 H12        -0.2560   -2.6190    1.3830 hc        1 IRL      0.072200
     56 H13         2.0190   -2.8240    3.4250 ha        1 IRL      0.148000
     57 H14         4.2910   -3.7940    3.1860 ha        1 IRL      0.128000
     58 H15         4.2600   -2.8040   -1.0240 ha        1 IRL      0.128000
     59 H16         2.0010   -1.8250   -0.7880 ha        1 IRL      0.148000
     60 H17         5.3460   -4.8600   -1.0010 ha        1 IRL      0.136000
     61 H18         7.6250   -5.8330   -1.2440 ha        1 IRL      0.125000
     62 H19         9.3370   -5.4740    0.5360 ha        1 IRL      0.123000
     63 H20         8.7610   -4.1320    2.5600 ha        1 IRL      0.125000
     64 H21         6.4860   -3.1520    2.8050 ha        1 IRL      0.136000
     65 H22        -0.1180    2.0470    1.7200 h1        1 IRL      0.063367
     66 H23         0.7130    0.7170    2.6700 h1        1 IRL      0.063367
     67 H24         1.7110    1.9940    1.8360 h1        1 IRL      0.063367
     68 H25        -1.4470    1.3240   -0.2950 hn        1 IRL      0.303500
     69 H26        -3.6560    0.8020    1.5520 h1        1 IRL      0.083700
     70 H27        -5.1240    2.2000    0.0480 hc        1 IRL      0.062200
     71 H28        -3.9370    1.9940   -1.3090 hc        1 IRL      0.062200
     72 H29        -3.3940   -0.9350   -1.8220 h4        1 IRL      0.170000
     73 H30        -5.1090   -2.7900   -1.8080 hn        1 IRL      0.274700
     74 H31        -7.9230   -3.1350   -1.3380 ha        1 IRL      0.119000
     75 H32        -9.7830   -1.9750   -0.1490 ha        1 IRL      0.113000
     76 H33        -9.4770    0.2870    0.8050 ha        1 IRL      0.119000
     77 H34        -7.2850    1.4790    0.6150 ha        1 IRL      0.148000
@<TRIPOS>BOND
     1    1    2 ar  
     2    1    6 ar  
     3    1    7 1   
     4    2    3 ar  
     5    2   44 1   
     6    3    4 ar  
     7    3    9 1   
     8    4    5 ar  
     9    4   45 1   
    10    5    6 ar  
    11    5    8 1   
    12    6   46 1   
    13    7   47 1   
    14    7   48 1   
    15    7   49 1   
    16    8   50 1   
    17    8   51 1   
    18    8   52 1   
    19    9   10 1   
    20    9   26 2   
    21   10   11 1   
    22   10   25 1   
    23   11   12 1   
    24   11   27 1   
    25   11   53 1   
    26   12   13 1   
    27   12   54 1   
    28   12   55 1   
    29   13   14 ar  
    30   13   18 ar  
    31   14   15 ar  
    32   14   56 1   
    33   15   16 ar  
    34   15   57 1   
    35   16   17 ar  
    36   16   19 1   
    37   17   18 ar  
    38   17   58 1   
    39   18   59 1   
    40   19   20 ar  
    41   19   24 ar  
    42   20   21 ar  
    43   20   60 1   
    44   21   22 ar  
    45   21   61 1   
    46   22   23 ar  
    47   22   62 1   
    48   23   24 ar  
    49   23   63 1   
    50   24   64 1   
    51   25   65 1   
    52   25   66 1   
    53   25   67 1   
    54   27   28 2   
    55   27   29 1   
    56   29   30 1   
    57   29   68 1   
    58   30   31 1   
    59   30   32 1   
    60   30   69 1   
    61   31   42 1   
    62   31   43 1   
    63   32   33 1   
    64   32   70 1   
    65   32   71 1   
    66   33   34 2   
    67   33   37 1   
    68   34   35 1   
    69   34   72 1   
    70   35   36 1   
    71   35   73 1   
    72   36   37 ar  
    73   36   38 ar  
    74   37   41 ar  
    75   38   39 ar  
    76   38   74 1   
    77   39   40 ar  
    78   39   75 1   
    79   40   41 ar  
    80   40   76 1   
    81   41   77 1   
@<TRIPOS>SUBSTRUCTURE
     1 IRL         1 TEMP              0 ****  ****    0 ROOT
