@<TRIPOS>MOLECULE
IRL
   77    69     1     0     0
SMALL
bcc


@<TRIPOS>ATOM
      1 C1         -5.5550    2.1550   -2.4680 c1        1 IRL     -0.065000
      2 C2         -4.4690    1.6950   -1.7140 c1        1 IRL     -0.096000
      3 C3         -3.4470    2.5600   -1.3800 c1        1 IRL     -0.115000
      4 C4         -3.4980    3.9000   -1.7960 c1        1 IRL     -0.097000
      5 C5         -4.5780    4.3570   -2.5440 c1        1 IRL     -0.095000
      6 C6         -5.6040    3.4900   -2.8800 c2        1 IRL     -0.125000
      7 C7         -6.6910    1.2070   -2.8280 c3        1 IRL     -0.190000
      8 C8         -4.6140    5.8230   -3.0280 c2        1 IRL     -0.170000
      9 C9         -2.2690    2.0680   -0.4440 c2        1 IRL      0.351000
     10 N10        -2.3490    0.7280    0.2160 n         1 IRL     -0.314000
     11 C11        -1.1580    0.0200    0.5290 c3        1 IRL      0.000000
     12 C12        -1.1240   -0.2760    1.9950 c3        1 IRL     -0.126000
     13 C13        -0.0400    0.6180    2.6910 c2        1 IRL     -0.043000
     14 C14        -0.2640    1.1060    3.9920 c2        1 IRL     -0.139000
     15 C15         0.7470    1.8120    4.6600 c1        1 IRL     -0.121000
     16 C16         1.9780    2.0330    4.0370 c1        1 IRL     -0.064000
     17 C17         2.2070    1.5460    2.7340 c1        1 IRL     -0.114000
     18 C18         1.1960    0.8390    2.0630 c1        1 IRL     -0.125000
     19 C19         3.0460    2.8520    4.7390 c2        1 IRL     -0.017000
     20 C20         3.9610    2.2290    5.5810 c2        1 IRL     -0.123000
     21 C21         4.9190    2.9780    6.2340 c1        1 IRL     -0.133000
     22 C22         4.9690    4.3430    6.0520 c1        1 IRL     -0.143750
     23 C23         4.0600    4.9630    5.2150 c1        1 IRL     -0.143750
     24 C24         3.0970    4.2100    4.5590 c1        1 IRL     -0.123000
     25 C25        -3.6030    0.2280    0.6570 c3        1 IRL     -0.112000
     26 O26        -1.3660    2.8360   -0.1510 o         1 IRL     -0.391000
     27 C27        -1.1270   -1.3080   -0.2650 c2        1 IRL      0.271000
     28 O28        -2.1140   -2.0750   -0.2370 o         1 IRL     -0.420000
     29 N29         0.0180   -1.6510   -1.0320 n         1 IRL     -0.300000
     30 C30         0.2600   -3.0280   -1.3890 c3        1 IRL     -0.084000
     31 C31        -0.9610   -3.5960   -2.0610 c2        1 IRL      0.329000
     32 C32         1.4370   -3.1020   -2.3360 c3        1 IRL     -0.091000
     33 C33         2.3170   -4.3390   -1.9770 c2        1 IRL     -0.121000
     34 C34         2.7940   -4.5170   -0.6850 c1        1 IRL     -0.079000
     35 N35         3.9330   -5.2860   -0.7550 n2        1 IRL     -0.224000
     36 C36         4.1670   -5.5870   -2.0840 c1        1 IRL     -0.008000
     37 C37         3.1660   -5.0010   -2.8390 c1        1 IRL     -0.076000
     38 C38         5.1780   -6.3280   -2.7130 c1        1 IRL     -0.157000
     39 C39         5.1750   -6.4760   -4.1060 c1        1 IRL     -0.143750
     40 C40         4.1660   -5.8870   -4.8690 c1        1 IRL     -0.143750
     41 C41         3.1630   -5.1510   -4.2440 c1        1 IRL     -0.078000
     42 O42        -1.6650   -4.4930   -1.4650 o         1 IRL     -0.570000
     43 O43        -1.3060   -3.1770   -3.1730 o         1 IRL     -0.570000
     44 H1         -4.4780    0.7580   -1.3380 ha        1 IRL      0.210000
     45 H2         -2.7510    4.4780   -1.6340 ha        1 IRL      0.137000
     46 H3         -6.3990    3.8300   -3.3590 ha        1 IRL      0.121000
     47 H4         -6.3100    0.3310   -3.1300 hc        1 IRL      0.092667
     48 H5         -7.2570    1.0620   -2.0430 hc        1 IRL      0.092667
     49 H6         -7.2320    1.6020   -3.5550 hc        1 IRL      0.092667
     50 H7         -5.0890    5.8740   -3.8790 ha        1 IRL      0.075333
     51 H8         -3.6910    6.1540   -3.1460 ha        1 IRL      0.075333
     52 H9         -5.0900    6.3920   -2.3440 ha        1 IRL      0.075333
     53 H10        -0.3830    0.5630    0.2890 h1        1 IRL      0.138000
     54 H11        -1.9770   -0.0940    2.3760 hc        1 IRL      0.110500
     55 H12        -0.9120   -1.1810    2.1240 hc        1 IRL      0.110500
     56 H13        -1.1420    0.9500    4.4390 ha        1 IRL      0.130000
     57 H14         0.5860    2.1610    5.5880 ha        1 IRL      0.124000
     58 H15         3.0160    1.8090    2.2540 ha        1 IRL      0.131000
     59 H16         1.3700    0.4600    1.1560 ha        1 IRL      0.166000
     60 H17         3.9480    1.2550    5.6830 ha        1 IRL      0.137000
     61 H18         5.5290    2.5480    6.8580 ha        1 IRL      0.125000
     62 H19         5.6920    4.8490    6.4310 ha        1 IRL      0.119250
     63 H20         4.1480    5.8860    5.0250 ha        1 IRL      0.119250
     64 H21         2.4740    4.7380    4.0390 ha        1 IRL      0.136000
     65 H22        -4.2420    0.9500    0.6940 h1        1 IRL      0.102333
     66 H23        -3.4990   -0.1790    1.5780 h1        1 IRL      0.102333
     67 H24        -3.9190   -0.4560    0.0320 h1        1 IRL      0.102333
     68 H25         0.6270   -0.9890   -1.2830 hn        1 IRL      0.225000
     69 H26         0.4540   -3.5320   -0.6010 h1        1 IRL      0.113000
     70 H27         1.9780   -2.2790   -2.2550 hc        1 IRL      0.104000
     71 H28         1.1060   -3.1900   -3.2710 hc        1 IRL      0.104000
     72 H29         2.4470   -4.0910    0.1110 DU        1 IRL      0.218500
     73 H30         4.4560   -5.5570   -0.0300 DU        1 IRL      0.218500
     74 H31         5.8750   -6.7780   -2.1680 ha        1 IRL      0.118000
     75 H32         5.8480   -6.9700   -4.5240 ha        1 IRL      0.119250
     76 H33         4.2050   -5.9260   -5.8350 ha        1 IRL      0.119250
     77 H34         2.4610   -4.7440   -4.7720 ha        1 IRL      0.136000
@<TRIPOS>BOND
     1    1    6 1   
     2    1    7 1   
     3    2    3 1   
     4    2   44 1   
     5    3    9 1   
     6    4    5 1   
     7    4   45 1   
     8    5    6 1   
     9    6   46 1   
    10    7   47 1   
    11    7   48 1   
    12    7   49 1   
    13    8   50 1   
    14    8   51 1   
    15    8   52 1   
    16    9   10 1   
    17    9   26 1   
    18   10   11 1   
    19   10   25 1   
    20   11   12 1   
    21   11   27 1   
    22   11   53 1   
    23   12   13 1   
    24   12   54 1   
    25   12   55 1   
    26   13   14 1   
    27   13   18 1   
    28   14   15 1   
    29   14   56 1   
    30   15   57 1   
    31   16   17 1   
    32   16   19 1   
    33   17   58 1   
    34   18   59 1   
    35   19   20 1   
    36   19   24 1   
    37   20   21 1   
    38   20   60 1   
    39   21   61 1   
    40   22   23 1   
    41   22   62 1   
    42   23   63 1   
    43   24   64 1   
    44   25   65 1   
    45   25   66 1   
    46   25   67 1   
    47   27   28 1   
    48   27   29 1   
    49   29   30 1   
    50   29   68 1   
    51   30   31 1   
    52   30   32 1   
    53   30   69 1   
    54   31   42 1   
    55   31   43 1   
    56   32   33 1   
    57   32   70 1   
    58   32   71 1   
    59   33   34 1   
    60   33   37 1   
    61   34   35 1   
    62   35   36 1   
    63   36   38 1   
    64   37   41 1   
    65   38   74 1   
    66   39   40 1   
    67   39   75 1   
    68   40   76 1   
    69   41   77 1   
@<TRIPOS>SUBSTRUCTURE
     1 IRL         1 TEMP              0 ****  ****    0 ROOT
