@<TRIPOS>MOLECULE
IRL
   79    84     1     0     0
SMALL
bcc


@<TRIPOS>ATOM
      1 C1          0.1550   -0.9670    0.1470 ca        1 IRL     -0.056300
      2 C2          1.4420   -1.0820    0.6800 ca        1 IRL     -0.091000
      3 C3          2.2680    0.0480    0.7470 ca        1 IRL     -0.185600
      4 C4          1.8210    1.2880    0.2740 ca        1 IRL     -0.091000
      5 C5          0.5290    1.4080   -0.2510 ca        1 IRL     -0.056300
      6 C6         -0.2960    0.2800   -0.3080 ca        1 IRL     -0.080000
      7 C7         -0.7250   -2.1550    0.0450 c3        1 IRL     -0.069300
      8 C8          0.0490    2.7130   -0.7600 c3        1 IRL     -0.069300
      9 C9          3.6490   -0.0270    1.2460 c         1 IRL      0.579700
     10 N10         3.8580   -0.8850    2.4850 nx        1 IRL     -0.570200
     11 C11         5.2920   -0.9470    2.9620 c3        1 IRL      0.101500
     12 C12         5.6460    0.0100    4.1010 c3        1 IRL     -0.042100
     13 C13         5.4120    1.4550    3.8430 ca        1 IRL     -0.144300
     14 C14         4.6900    2.2140    4.7730 ca        1 IRL     -0.122000
     15 C15         5.8240    3.4680    2.5580 ca        1 IRL     -0.118000
     16 C16         5.0950    4.2300    3.4840 cp        1 IRL      0.000000
     17 C17         4.5300    3.5850    4.5950 ca        1 IRL     -0.118000
     18 C18         5.9830    2.0970    2.7390 ca        1 IRL     -0.122000
     19 C19         4.9300    5.6690    3.2970 cp        1 IRL     -0.067000
     20 C20         3.7100    6.2900    3.6050 ca        1 IRL     -0.113000
     21 C21         5.8320    7.8210    2.6360 ca        1 IRL     -0.126500
     22 C22         4.6150    8.4310    2.9420 ca        1 IRL     -0.110000
     23 C23         3.5550    7.6630    3.4250 ca        1 IRL     -0.126500
     24 C24         5.9900    6.4470    2.8100 ca        1 IRL     -0.113000
     25 C25         2.9090   -0.5300    3.5690 c3        1 IRL      0.081100
     26 O26         4.6350    0.5060    0.7540 o         1 IRL     -0.435100
     27 C27         5.5140   -2.4300    3.4670 c3        1 IRL      0.710500
     28 O28         4.8220   -2.8250    4.4490 o         1 IRL     -0.644500
     29 N29         7.1170   -2.6750    3.7830 ny        1 IRL     -0.883000
     30 C30         7.4910   -3.9050    3.0360 c3        1 IRL      0.047500
     31 C31         6.3380   -4.1490    2.0670 c         1 IRL      0.731600
     32 C32         8.8320   -3.8280    2.2970 c3        1 IRL     -0.004200
     33 C33         9.8260   -3.0060    2.9950 cc        1 IRL     -0.225400
     34 C34        10.6990   -2.1020    2.3750 cd        1 IRL     -0.065100
     35 N35        11.5310   -1.5140    3.3180 na        1 IRL     -0.174400
     36 C36        11.2350   -2.0620    4.5720 ca        1 IRL     -0.049200
     37 C37        10.1560   -3.0100    4.4070 ca        1 IRL     -0.106800
     38 C38        11.8010   -1.8140    5.8340 ca        1 IRL     -0.123000
     39 C39        11.2950   -2.5160    6.9150 ca        1 IRL     -0.106000
     40 C40        10.2540   -3.4510    6.7640 ca        1 IRL     -0.128000
     41 C41         9.6840   -3.7030    5.5260 ca        1 IRL     -0.128000
     42 O42         6.2160   -4.9490    1.1560 o         1 IRL     -0.516500
     43 O43         5.3030   -3.2810    2.2950 os        1 IRL     -0.499900
     44 H1          1.7930   -2.0710    1.0110 ha        1 IRL      0.150500
     45 H2          2.4870    2.1660    0.3090 ha        1 IRL      0.150500
     46 H3         -1.3140    0.3690   -0.7230 ha        1 IRL      0.160000
     47 H4         -0.3700   -2.9850    0.7030 hc        1 IRL      0.062700
     48 H5         -1.7730   -1.8940    0.3370 hc        1 IRL      0.062700
     49 H6         -0.7400   -2.5260   -1.0110 hc        1 IRL      0.062700
     50 H7         -1.0430    2.8420   -0.5560 hc        1 IRL      0.062700
     51 H8          0.2060    2.7680   -1.8680 hc        1 IRL      0.062700
     52 H9          0.6010    3.5610   -0.2860 hc        1 IRL      0.062700
     53 H10         5.9460   -0.7400    2.0650 hx        1 IRL      0.111700
     54 H11         6.7470   -0.1130    4.3040 hc        1 IRL      0.079700
     55 H12         5.1050   -0.3200    5.0320 hc        1 IRL      0.079700
     56 H13         4.2600    1.7310    5.6650 ha        1 IRL      0.136000
     57 H14         6.2740    3.9590    1.6810 ha        1 IRL      0.151000
     58 H15         3.9710    4.1730    5.3410 ha        1 IRL      0.151000
     59 H16         6.5560    1.5170    1.9990 ha        1 IRL      0.136000
     60 H17         2.8700    5.6900    3.9850 ha        1 IRL      0.132000
     61 H18         6.6710    8.4250    2.2590 ha        1 IRL      0.141500
     62 H19         4.4920    9.5160    2.8040 ha        1 IRL      0.144000
     63 H20         2.5950    8.1420    3.6680 ha        1 IRL      0.141500
     64 H21         6.9560    5.9740    2.5760 ha        1 IRL      0.132000
     65 H22         1.8590   -0.6470    3.1880 hx        1 IRL      0.111033
     66 H23         3.0780    0.5310    3.8930 hx        1 IRL      0.111033
     67 H24         3.0830   -1.2330    4.4340 hx        1 IRL      0.111033
     68 H25         7.2150   -2.8240    4.7870 hn        1 IRL      0.441300
     69 H26         7.5150   -4.7740    3.7630 hx        1 IRL      0.130700
     70 H27         8.6660   -3.4310    1.2590 hc        1 IRL      0.084200
     71 H28         9.2090   -4.8850    2.1880 hc        1 IRL      0.084200
     72 H29        10.7790   -1.8420    1.3150 h4        1 IRL      0.179000
     73 H30        12.2940   -0.9180    3.1250 hn        1 IRL      0.314700
     74 H31        12.6230   -1.0940    5.9550 ha        1 IRL      0.149000
     75 H32        11.7210   -2.3500    7.9180 ha        1 IRL      0.149000
     76 H33         9.8970   -3.9990    7.6500 ha        1 IRL      0.146000
     77 H34         8.8980   -4.4640    5.4210 ha        1 IRL      0.125000
     78 H101        3.6150   -1.8490    2.1830 hn        1 IRL      0.474800
     79 H292        7.6960   -1.8930    3.4960 hn        1 IRL      0.441300
@<TRIPOS>BOND
     1    1    2 ar  
     2    1    6 ar  
     3    1    7 1   
     4    2    3 ar  
     5    2   44 1   
     6    3    4 ar  
     7    3    9 1   
     8    4    5 ar  
     9    4   45 1   
    10    5    6 ar  
    11    5    8 1   
    12    6   46 1   
    13    7   47 1   
    14    7   48 1   
    15    7   49 1   
    16    8   50 1   
    17    8   51 1   
    18    8   52 1   
    19    9   10 1   
    20    9   26 2   
    21   10   11 1   
    22   10   25 1   
    23   10   78 1   
    24   11   12 1   
    25   11   27 1   
    26   11   53 1   
    27   12   13 1   
    28   12   54 1   
    29   12   55 1   
    30   13   14 ar  
    31   13   18 ar  
    32   14   17 ar  
    33   14   56 1   
    34   15   16 ar  
    35   15   18 ar  
    36   15   57 1   
    37   16   17 ar  
    38   16   19 1   
    39   17   58 1   
    40   18   59 1   
    41   19   20 ar  
    42   19   24 ar  
    43   20   23 ar  
    44   20   60 1   
    45   21   22 ar  
    46   21   24 ar  
    47   21   61 1   
    48   22   23 ar  
    49   22   62 1   
    50   23   63 1   
    51   24   64 1   
    52   25   65 1   
    53   25   66 1   
    54   25   67 1   
    55   27   28 1   
    56   27   29 1   
    57   27   43 1   
    58   29   30 1   
    59   29   68 1   
    60   29   79 1   
    61   30   31 1   
    62   30   32 1   
    63   30   69 1   
    64   31   42 2   
    65   31   43 1   
    66   32   33 1   
    67   32   70 1   
    68   32   71 1   
    69   33   34 2   
    70   33   37 1   
    71   34   35 1   
    72   34   72 1   
    73   35   36 1   
    74   35   73 1   
    75   36   37 ar  
    76   36   38 ar  
    77   37   41 ar  
    78   38   39 ar  
    79   38   74 1   
    80   39   40 ar  
    81   39   75 1   
    82   40   41 ar  
    83   40   76 1   
    84   41   77 1   
@<TRIPOS>SUBSTRUCTURE
     1 IRL         1 TEMP              0 ****  ****    0 ROOT
