@<TRIPOS>MOLECULE
IRN
   29    26     1     0     0
SMALL
bcc


@<TRIPOS>ATOM
      1 C5          1.9810    1.7050   -2.2550 c1        1 IRN     -0.200500
      2 C4          3.3570    1.5070   -2.2650 c1        1 IRN     -0.200500
      3 N3          3.6950    0.8690   -1.1260 n2        1 IRN     -0.171000
      4 C2          2.5420    0.6600   -0.3950 c1        1 IRN     -0.062000
      5 N1          1.4910    1.1810   -1.1030 n2        1 IRN     -0.171000
      6 C1'         0.2670    1.3140   -0.6670 c2        1 IRN      0.125000
      7 O4'         0.1170    0.6760    0.7370 os        1 IRN     -0.290000
      8 C2'        -0.7300    0.5400   -1.5950 c3        1 IRN     -0.012000
      9 O2'        -1.8860    1.3770   -1.9090 oh        1 IRN     -0.355000
     10 C3'        -1.1070   -0.5030   -0.8960 c3        1 IRN      0.022000
     11 O3'        -2.5000   -0.8340   -1.2090 oh        1 IRN     -0.417000
     12 C4'        -0.9670   -0.0790    0.6550 c3        1 IRN     -0.054000
     13 C5'        -0.8110   -1.2800    1.4930 c3        1 IRN      0.080000
     14 O5'        -1.0680   -0.9400    2.8640 os        1 IRN     -0.719000
     15 P          -0.9150   -2.0600    3.9580 p5        1 IRN      1.569500
     16 O6         -1.5890   -3.3180    3.4860 o         1 IRN     -0.930500
     17 O7          0.5650   -2.3350    4.1990 o         1 IRN     -0.930500
     18 O8         -1.5670   -1.5930    5.2600 o         1 IRN     -0.930500
     19 H5          1.4720    2.2010   -2.9160 DU        1 IRN      0.180667
     20 H4          3.9830    1.7890   -2.9870 DU        1 IRN      0.180667
     21 H2          2.4850    0.2200    0.4740 DU        1 IRN      0.180667
     22 H1'         0.0300    2.2470   -0.6340 h4        1 IRN      0.101000
     23 H2'        -0.2760    0.2510   -2.4250 h1        1 IRN      0.106000
     24 HO2'       -1.9190    1.5110   -2.7470 ho        1 IRN      0.231000
     25 H3'        -0.5520   -1.2350   -1.0810 h1        1 IRN      0.155000
     26 HO3'       -3.0040   -0.7330   -0.4760 ho        1 IRN      0.316000
     27 H4'        -1.7760    0.4430    0.9470 h1        1 IRN      0.118000
     28 H5'         0.1140   -1.6280    1.4050 h1        1 IRN      0.038000
     29 H5'A       -1.4310   -1.9500    1.2080 h1        1 IRN      0.038000
@<TRIPOS>BOND
     1    1    2 1   
     2    1    5 1   
     3    2    3 1   
     4    3    4 1   
     5    4    5 1   
     6    6    7 1   
     7    6    8 1   
     8    6   22 1   
     9    7   12 1   
    10    8    9 1   
    11    8   10 1   
    12    8   23 1   
    13    9   24 1   
    14   10   11 1   
    15   10   12 1   
    16   10   25 1   
    17   11   26 1   
    18   12   13 1   
    19   12   27 1   
    20   13   14 1   
    21   13   28 1   
    22   13   29 1   
    23   14   15 1   
    24   15   16 1   
    25   15   17 1   
    26   15   18 1   
@<TRIPOS>SUBSTRUCTURE
     1 IRN         1 TEMP              0 ****  ****    0 ROOT
