@<TRIPOS>MOLECULE
IRN
   29    30     1     0     0
SMALL
bcc


@<TRIPOS>ATOM
      1 C5          3.9100   -1.2630    0.0580 cc        1 IRN     -0.302600
      2 C4          3.8120   -2.4160   -0.7360 cd        1 IRN      0.256200
      3 N3          2.5590   -2.4700   -1.3460 nd        1 IRN     -0.724000
      4 C2          1.8870   -1.3690   -0.9360 cc        1 IRN      0.443400
      5 N1          2.6870   -0.5930   -0.0770 na        1 IRN     -0.220900
      6 C1'         2.3970    0.6680    0.5770 c3        1 IRN      0.225800
      7 O4'         1.4220    0.5270    1.6100 os        1 IRN     -0.442600
      8 C2'         1.8680    1.7680   -0.4020 c3        1 IRN      0.108100
      9 O2'         2.4800    2.9960   -0.0560 oh        1 IRN     -0.630800
     10 C3'         0.3470    1.7120   -0.1960 c3        1 IRN      0.077100
     11 O3'        -0.2040    3.0070   -0.1970 oh        1 IRN     -0.674800
     12 C4'         0.1320    1.0090    1.1620 c3        1 IRN      0.066100
     13 C5'        -0.8480   -0.1870    1.0840 c3        1 IRN      0.220400
     14 O5'        -2.0920    0.1730    0.6470 os        1 IRN     -0.569200
     15 P          -2.4210    0.0470   -1.0540 p5        1 IRN      1.337900
     16 O6         -2.3260    1.5210   -1.3800 o         1 IRN     -0.925500
     17 O7         -1.1870   -0.6900   -1.5330 o         1 IRN     -0.925500
     18 O8         -3.7430   -0.6420   -1.1420 o         1 IRN     -0.925500
     19 H5          4.7140   -0.8840    0.6800 h4        1 IRN      0.145000
     20 H4          4.5570   -3.1890   -0.8960 h4        1 IRN      0.001100
     21 H2          0.8260   -1.1020   -1.2170 h5        1 IRN      0.181100
     22 H1'         3.3390    1.0110    1.0980 h2        1 IRN      0.059700
     23 H2'         2.1520    1.5680   -1.4670 h1        1 IRN      0.075700
     24 HO2'        1.8090    3.5380    0.3810 ho        1 IRN      0.424000
     25 H3'        -0.1410    1.0790   -1.0140 h1        1 IRN      0.169700
     26 HO3'       -1.1040    2.8950   -0.5870 ho        1 IRN      0.499000
     27 H4'        -0.1980    1.7430    1.9420 h1        1 IRN      0.045700
     28 H5'        -0.3930   -0.9810    0.4280 h1        1 IRN      0.002200
     29 H5'A       -0.9320   -0.5920    2.1360 h1        1 IRN      0.002200
@<TRIPOS>BOND
     1    1    2 2   
     2    1    5 1   
     3    1   19 1   
     4    2    3 1   
     5    2   20 1   
     6    3    4 2   
     7    4    5 1   
     8    4   21 1   
     9    5    6 1   
    10    6    7 1   
    11    6    8 1   
    12    6   22 1   
    13    7   12 1   
    14    8    9 1   
    15    8   10 1   
    16    8   23 1   
    17    9   24 1   
    18   10   11 1   
    19   10   12 1   
    20   10   25 1   
    21   11   26 1   
    22   12   13 1   
    23   12   27 1   
    24   13   14 1   
    25   13   28 1   
    26   13   29 1   
    27   14   15 1   
    28   15   16 1   
    29   15   17 1   
    30   15   18 1   
@<TRIPOS>SUBSTRUCTURE
     1 IRN         1 TEMP              0 ****  ****    0 ROOT
