@<TRIPOS>MOLECULE
IRO
   14    14     1     0     0
SMALL
bcc


@<TRIPOS>ATOM
      1 OAA         0.6670   -1.1430    0.4010 o         1 IRO     -0.768300
      2 CAH         1.1380   -0.0310    0.0750 c         1 IRO      0.920800
      3 OAD         0.9440    1.0890    0.5950 o         1 IRO     -0.768300
      4 CAI         2.0160   -0.0260   -1.2310 cc        1 IRO      0.102400
      5 CAJ         3.3810   -0.1910   -1.2770 cd        1 IRO     -0.230400
      6 I           4.4580   -0.4700    0.4000 i         1 IRO     -0.101800
      7 CAL         4.0840   -0.1670   -2.5560 c         1 IRO      0.734700
      8 OAC         5.3090   -0.3020   -2.7530 o         1 IRO     -0.656500
      9 NAG         3.2910    0.0310   -3.7100 n         1 IRO     -0.590500
     10 CAK         1.9040    0.1980   -3.6550 c         1 IRO      0.792500
     11 OAB         1.2290    0.3730   -4.6990 o         1 IRO     -0.691500
     12 NAF         1.2930    0.1640   -2.3910 n         1 IRO     -0.435100
     13 H3          3.7240    0.0560   -4.6050 hn        1 IRO      0.333500
     14 H2          0.3050    0.2830   -2.3460 hn        1 IRO      0.358500
@<TRIPOS>BOND
     1    1    2 1   
     2    2    3 1   
     3    2    4 1   
     4    4    5 2   
     5    4   12 1   
     6    5    6 1   
     7    5    7 1   
     8    7    8 2   
     9    7    9 1   
    10    9   10 1   
    11    9   13 1   
    12   10   11 2   
    13   10   12 1   
    14   12   14 1   
@<TRIPOS>SUBSTRUCTURE
     1 IRO         1 TEMP              0 ****  ****    0 ROOT
