@<TRIPOS>MOLECULE
IRO
   14    14     1     0     0
SMALL
bcc


@<TRIPOS>ATOM
      1 OAA         0.5950    1.1070    0.3540 o         1 IRO     -0.768300
      2 CAH         1.1260    0.0120    0.0670 c         1 IRO      0.920800
      3 OAD         0.9890   -1.0990    0.6250 o         1 IRO     -0.768300
      4 CAI         2.0110    0.0110   -1.2340 cc        1 IRO      0.102400
      5 CAJ         3.3660    0.2460   -1.2790 cd        1 IRO     -0.230400
      6 I           4.4160    0.6370    0.3920 i         1 IRO     -0.101800
      7 CAL         4.0770    0.2170   -2.5540 c         1 IRO      0.734700
      8 OAC         5.2940    0.4090   -2.7500 o         1 IRO     -0.656500
      9 NAG         3.3030   -0.0610   -3.7040 ns        1 IRO     -0.590500
     10 CAK         1.9260   -0.2990   -3.6500 c         1 IRO      0.792500
     11 OAB         1.2670   -0.5430   -4.6900 o         1 IRO     -0.691500
     12 NAF         1.3060   -0.2560   -2.3890 ns        1 IRO     -0.435100
     13 H3          3.7420   -0.0920   -4.5960 hn        1 IRO      0.333500
     14 H2          0.3250   -0.4250   -2.3450 hn        1 IRO      0.358500
@<TRIPOS>BOND
     1    1    2 1   
     2    2    3 1   
     3    2    4 1   
     4    4    5 2   
     5    4   12 1   
     6    5    6 1   
     7    5    7 1   
     8    7    8 2   
     9    7    9 1   
    10    9   10 1   
    11    9   13 1   
    12   10   11 2   
    13   10   12 1   
    14   12   14 1   
@<TRIPOS>SUBSTRUCTURE
     1 IRO         1 TEMP              0 ****  ****    0 ROOT
