@<TRIPOS>MOLECULE
IRO
   14    14     1     0     0
SMALL
bcc


@<TRIPOS>ATOM
      1 OAA        -0.2330   -2.8350   -1.1310 o         1 IRO     -0.768300
      2 CAH        -0.2700   -2.2590   -0.0210 c         1 IRO      0.920800
      3 OAD         0.0920   -2.6830    1.0980 o         1 IRO     -0.768300
      4 CAI        -0.9580   -0.8450   -0.0170 cc        1 IRO      0.102400
      5 CAJ        -0.3140    0.3590   -0.1930 cd        1 IRO     -0.230400
      6 I           1.6740    0.4470   -0.4890 i         1 IRO     -0.101800
      7 CAL        -1.0670    1.6090   -0.1680 c         1 IRO      0.734700
      8 OAC        -0.6240    2.7660   -0.3120 o         1 IRO     -0.656500
      9 NAG        -2.4620    1.5040    0.0420 n         1 IRO     -0.590500
     10 CAK        -3.1090    0.2770    0.2200 c         1 IRO      0.792500
     11 OAB        -4.3500    0.2180    0.4050 o         1 IRO     -0.691500
     12 NAF        -2.3220   -0.8870    0.1840 n         1 IRO     -0.435100
     13 H3         -3.0180    2.3280    0.0670 hn        1 IRO      0.333500
     14 H2         -2.7790   -1.7630    0.3110 hn        1 IRO      0.358500
@<TRIPOS>BOND
     1    1    2 1   
     2    2    3 1   
     3    2    4 1   
     4    4    5 2   
     5    4   12 1   
     6    5    6 1   
     7    5    7 1   
     8    7    8 2   
     9    7    9 1   
    10    9   10 1   
    11    9   13 1   
    12   10   11 2   
    13   10   12 1   
    14   12   14 1   
@<TRIPOS>SUBSTRUCTURE
     1 IRO         1 TEMP              0 ****  ****    0 ROOT
