@<TRIPOS>MOLECULE
IRO
   14    12     1     0     0
SMALL
bcc


@<TRIPOS>ATOM
      1 OAA        -2.4480   -0.0900    2.0750 o         1 IRO     -0.503000
      2 CAH        -1.1890   -0.0900    2.0750 c1        1 IRO      0.371000
      3 OAD        -0.5590   -0.0900    3.1650 os        1 IRO     -0.503000
      4 CAI        -0.4330   -0.0900    0.7650 c2        1 IRO      0.119000
      5 CAJ        -0.0060    1.1810    0.1620 c1        1 IRO     -0.484000
      6 I          -0.6980    3.0070    0.9530 i         1 IRO      0.171000
      7 CAL         0.7290    1.1750   -1.1120 c2        1 IRO      0.373000
      8 OAC         1.0840    2.2220   -1.6140 o         1 IRO     -0.381000
      9 NAG         1.0230   -0.0560   -1.7520 n         1 IRO     -0.370000
     10 CAK         0.5950   -1.3150   -1.1470 c2        1 IRO      0.383000
     11 OAB         0.9520   -2.3720   -1.6290 o         1 IRO     -0.416000
     12 NAF        -0.1330   -1.3160    0.1140 n         1 IRO     -0.279000
     13 H3          1.4790   -0.0610   -2.5420 hn        1 IRO      0.247000
     14 H2         -0.3960   -2.1050    0.4880 hn        1 IRO      0.272000
@<TRIPOS>BOND
     1    1    2 1   
     2    2    4 1   
     3    4    5 1   
     4    4   12 1   
     5    5    7 1   
     6    7    8 1   
     7    7    9 1   
     8    9   10 1   
     9    9   13 1   
    10   10   11 1   
    11   10   12 1   
    12   12   14 1   
@<TRIPOS>SUBSTRUCTURE
     1 IRO         1 TEMP              0 ****  ****    0 ROOT
