@<TRIPOS>MOLECULE
IRP
   36    38     1     0     0
SMALL
bcc


@<TRIPOS>ATOM
      1 P          -0.7020    1.6090   -4.4270 p5        1 IRP      1.429800
      2 O1P         0.2480    2.6950   -4.7310 o         1 IRP     -0.845000
      3 O2P        -0.7850    0.3080   -5.1290 o         1 IRP     -0.845000
      4 O3P        -2.2340    2.1830   -4.4810 oh        1 IRP     -0.770400
      5 O5'        -0.6970    1.2880   -2.8070 os        1 IRP     -0.592200
      6 C5'        -0.2280    0.0420   -2.3890 c3        1 IRP      0.198400
      7 C4'         0.8290    0.2350   -1.2820 c3        1 IRP      0.126500
      8 N4'         0.2570    0.2890    0.0650 n3        1 IRP     -0.806200
      9 C3'         1.8480   -0.9360   -1.2580 c3        1 IRP      0.098100
     10 O3'         2.9870   -0.6980   -2.0630 oh        1 IRP     -0.616800
     11 C2'         2.2480   -1.0860    0.2320 c3        1 IRP      0.094100
     12 O2'         3.5770   -0.6120    0.4190 oh        1 IRP     -0.614800
     13 C1'         1.2920   -0.1460    1.0230 c3        1 IRP      0.283700
     14 C9          0.7470   -0.8000    2.2320 ce        1 IRP     -0.318300
     15 C8          0.8650   -2.2060    2.5750 c1        1 IRP     -0.138900
     16 N7          0.2590   -2.3780    3.7880 nh        1 IRP     -0.164600
     17 C4          0.0460   -0.1510    3.2780 cc        1 IRP      0.137600
     18 C6         -0.9750   -0.8630    5.4700 c         1 IRP      0.716700
     19 N1         -1.3310    0.5050    5.5870 n         1 IRP     -0.505400
     20 C2         -0.9960    1.4180    4.5870 cd        1 IRP      0.404800
     21 N3         -0.3390    1.1680    3.4740 nc        1 IRP     -0.575300
     22 C5         -0.2640   -1.1710    4.2740 cd        1 IRP     -0.366300
     23 H5'1        0.2430   -0.5050   -3.2540 h1        1 IRP      0.036200
     24 H5'2       -1.0920   -0.5640   -1.9960 h1        1 IRP      0.036200
     25 H4'         1.3960    1.1850   -1.5290 h1        1 IRP      0.027700
     26 HN'4       -0.0820    1.2040    0.2810 hn        1 IRP      0.371800
     27 H3'         1.4010   -1.8810   -1.6640 h1        1 IRP      0.079700
     28 HO'3        3.3230    0.1770   -1.8260 ho        1 IRP      0.403000
     29 H2'         2.1570   -2.1440    0.5910 h1        1 IRP      0.095700
     30 HO'2        4.1410   -1.2140   -0.0820 ho        1 IRP      0.386000
     31 H1'         1.9080    0.7470    1.3640 h1        1 IRP      0.018700
     32 H8         -2.8690    1.4820   -4.4030 ho        1 IRP      0.415000
     33 H7          0.1610   -3.2250    4.2760 hn        1 IRP      0.264700
     34 H1         -1.8550    0.7970    6.3730 hn        1 IRP      0.295500
     35 H2         -1.3240    2.4600    4.7690 h5        1 IRP      0.005800
     36 O6         -1.3090   -1.6370    6.4070 o         1 IRP     -0.766500
@<TRIPOS>BOND
     1    1    2 1   
     2    1    3 1   
     3    1    4 1   
     4    1    5 1   
     5    4   32 1   
     6    5    6 1   
     7    6    7 1   
     8    6   23 1   
     9    6   24 1   
    10    7    8 1   
    11    7    9 1   
    12    7   25 1   
    13    8   13 1   
    14    8   26 1   
    15    9   10 1   
    16    9   11 1   
    17    9   27 1   
    18   10   28 1   
    19   11   12 1   
    20   11   13 1   
    21   11   29 1   
    22   12   30 1   
    23   13   14 1   
    24   13   31 1   
    25   14   15 2   
    26   14   17 1   
    27   15   16 2   
    28   16   22 1   
    29   16   33 1   
    30   17   21 1   
    31   17   22 2   
    32   18   19 1   
    33   18   22 1   
    34   18   36 2   
    35   19   20 1   
    36   19   34 1   
    37   20   21 2   
    38   20   35 1   
@<TRIPOS>SUBSTRUCTURE
     1 IRP         1 TEMP              0 ****  ****    0 ROOT
