@<TRIPOS>MOLECULE
IRP
   36    36     1     0     0
SMALL
bcc


@<TRIPOS>ATOM
      1 P          -0.4740   -0.2840   -0.6480 p5        1 IRP      1.492500
      2 O1P         0.9280   -0.3250   -0.1720 o         1 IRP     -0.864500
      3 O2P        -1.5790   -0.7230    0.2450 o         1 IRP     -0.864500
      4 O3P        -0.7700   -0.2680   -2.1120 o         1 IRP     -0.864500
      5 O5'        -0.9930    1.5890   -0.4950 os        1 IRP     -0.409000
      6 C5'        -2.1080    1.7530   -1.0420 c2        1 IRP      0.222000
      7 C4'        -2.7580    3.1170   -1.1940 c3        1 IRP     -0.039000
      8 N4'        -2.3620    3.8370   -2.3600 n2        1 IRP     -0.572000
      9 C3'        -4.3100    2.8850   -1.2770 c3        1 IRP     -0.043000
     10 O3'        -5.0130    3.9240   -0.6140 oh        1 IRP     -0.351000
     11 C2'        -4.5850    2.9210   -2.8040 c3        1 IRP     -0.041000
     12 O2'        -5.7540    3.6470   -3.1250 oh        1 IRP     -0.333000
     13 C1'        -3.2860    3.5680   -3.4050 c3        1 IRP      0.027000
     14 C9         -2.7130    2.7160   -4.5810 c3        1 IRP     -0.127000
     15 C8         -2.6730    1.2130   -4.3670 c2        1 IRP     -0.055000
     16 N7         -3.3460    0.5000   -5.2330 n2        1 IRP     -0.140000
     17 C4         -3.5360    2.8210   -5.8730 c2        1 IRP      0.150000
     18 C6         -4.7660    1.0280   -7.1380 c1        1 IRP      0.276000
     19 N1         -4.0580    4.4860   -8.8210 n3        1 IRP     -0.354000
     20 C2         -4.5050    4.3180   -7.5640 c1        1 IRP     -0.009000
     21 N3         -3.7540    3.8730   -6.5560 n2        1 IRP     -0.274000
     22 C5         -3.9440    1.4080   -6.1760 c2        1 IRP     -0.260000
     23 H5'1       -0.0600   -0.4370   -4.2230 ha        1 IRP     -0.001000
     24 H5'2        0.2020   -0.5260   -4.8460 ha        1 IRP     -0.001000
     25 H4'        -2.6320    0.8670   -1.4760 h4        1 IRP      0.131000
     26 HN'4       -2.4980    3.7210   -0.2780 h1        1 IRP      0.075000
     27 H3'        -4.7750    1.8900   -3.1990 h1        1 IRP      0.108000
     28 HO'3       -4.6620    1.9400   -0.7970 h1        1 IRP      0.107000
     29 H2'        -4.5300    4.7400   -0.7940 ho        1 IRP      0.198000
     30 HO'2       -5.6540    4.5230   -2.7330 ho        1 IRP      0.188000
     31 H1'        -3.5710    4.5470   -3.9010 h1        1 IRP      0.051000
     32 H8         -1.6700    3.0870   -4.7770 hc        1 IRP      0.141000
     33 H7         -2.0680    0.7420   -3.5550 h4        1 IRP      0.266000
     34 H1         -3.1640    4.2360   -9.1780 hn        1 IRP      0.180500
     35 H2         -4.6280    5.0330   -9.4150 hn        1 IRP      0.180500
     36 O6         -5.4800    0.7040   -8.0370 o         1 IRP     -0.193000
@<TRIPOS>BOND
     1    1    2 1   
     2    1    3 1   
     3    1    4 1   
     4    1    5 1   
     5    5    6 1   
     6    6    7 1   
     7    6   25 1   
     8    7    8 1   
     9    7    9 1   
    10    7   26 1   
    11    8   13 1   
    12    9   10 1   
    13    9   11 1   
    14    9   28 1   
    15   10   29 1   
    16   11   12 1   
    17   11   13 1   
    18   11   27 1   
    19   12   30 1   
    20   13   14 1   
    21   13   31 1   
    22   14   15 1   
    23   14   17 1   
    24   14   32 1   
    25   15   16 1   
    26   15   33 1   
    27   16   22 1   
    28   17   21 1   
    29   17   22 1   
    30   18   22 1   
    31   18   36 1   
    32   19   20 1   
    33   19   34 1   
    34   19   35 1   
    35   20   21 1   
    36   23   24 1   
@<TRIPOS>SUBSTRUCTURE
     1 IRP         1 TEMP              0 ****  ****    0 ROOT
