@<TRIPOS>MOLECULE
IRP
   36    32     1     0     0
SMALL
bcc


@<TRIPOS>ATOM
      1 P           2.0740   -2.7340    4.5510 p4        1 IRP      1.727200
      2 O1P         3.4300   -2.4390    5.2310 os        1 IRP     -1.179000
      3 O2P         0.9940   -2.8190    5.6030 o         1 IRP     -0.677000
      4 O3P         2.1560   -4.0360    3.8110 o         1 IRP     -0.725800
      5 O5'         1.7250   -1.5570    3.5210 os        1 IRP     -0.590200
      6 C5'         0.4990   -1.6430    2.7610 c3        1 IRP      0.200400
      7 C4'         0.2200   -0.2950    2.1000 c3        1 IRP      0.072500
      8 N4'         0.6760   -0.2890    0.8590 n3        1 IRP     -0.795200
      9 C3'        -1.2990   -0.0700    1.9670 c3        1 IRP      0.273100
     10 O3'        -1.6980    0.9030    2.7970 oh        1 IRP     -1.004800
     11 C2'        -1.5310    0.3620    0.4790 c3        1 IRP      0.058100
     12 O2'        -2.3790    1.5870    0.4230 oh        1 IRP     -0.656800
     13 C1'        -0.3490    0.6130    0.0120 c3        1 IRP      0.209700
     14 C9         -0.2790    0.2400   -1.4750 ce        1 IRP     -0.124000
     15 C8         -0.4510   -0.9750   -2.0880 c1        1 IRP      0.256500
     16 N7         -0.2460   -0.8050   -3.4220 nf        1 IRP     -0.400400
     17 C4          0.0360    1.1630   -2.4460 cg        1 IRP     -0.062300
     18 O6          0.5340    0.6190   -5.8230 o         1 IRP     -0.672500
     19 C6          0.3840    1.2130   -4.7850 c1        1 IRP      0.818900
     20 N1          0.6810    2.5090   -4.7150 n2        1 IRP     -0.804800
     21 C2          0.6600    3.1510   -3.5090 c1        1 IRP      0.362300
     22 N3          0.3350    2.4670   -2.3790 n1        1 IRP     -0.425800
     23 C5          0.0560    0.5230   -3.6430 ch        1 IRP     -0.191000
     24 H5'1        0.5890   -2.3340    2.0690 h1        1 IRP      0.019200
     25 H5'2       -0.2340   -1.8740    3.3540 h1        1 IRP      0.019200
     26 H4'         0.6360    0.4420    2.6260 h1        1 IRP      0.043700
     27 HN'4        1.5120    0.0980    0.8410 hn        1 IRP      0.331800
     28 H3'        -1.8010   -0.9300    2.1660 h1        1 IRP     -0.072300
     29 HO'3       -2.3410    0.5800    3.3610 ho        1 IRP      0.412000
     30 H2'        -1.9440   -0.3590   -0.0210 h1        1 IRP      0.020700
     31 HO'2       -3.2050    1.3620    0.2550 ho        1 IRP      0.427000
     32 H1'        -0.1440    1.5400    0.1280 h1        1 IRP      0.040700
     33 H8         -0.5840   -1.8500   -1.6260 DU        1 IRP      0.264500
     34 H7         -0.2980   -1.4400   -4.0450 DU        1 IRP      0.264500
     35 H1          0.8060    2.9750   -5.4620 hn        1 IRP      0.466400
     36 H2          0.7800    4.1020   -3.4720 ha        1 IRP      0.093500
@<TRIPOS>BOND
     1    1    3 1   
     2    1    4 2   
     3    1    5 1   
     4    5    6 1   
     5    6    7 1   
     6    6   24 1   
     7    6   25 1   
     8    7    8 1   
     9    7    9 1   
    10    7   26 1   
    11    8   13 1   
    12    8   27 1   
    13    9   10 1   
    14    9   11 1   
    15    9   28 1   
    16   10   29 1   
    17   11   12 1   
    18   11   13 1   
    19   11   30 1   
    20   12   31 1   
    21   13   14 1   
    22   13   32 1   
    23   14   15 2   
    24   14   17 1   
    25   15   16 2   
    26   16   23 1   
    27   17   23 3   
    28   18   19 2   
    29   19   20 2   
    30   20   35 1   
    31   21   22 3   
    32   21   36 1   
@<TRIPOS>SUBSTRUCTURE
     1 IRP         1 TEMP              0 ****  ****    0 ROOT
