@<TRIPOS>MOLECULE
IRP
   36    34     1     0     0
SMALL
bcc


@<TRIPOS>ATOM
      1 P          -0.8610   -0.0440   -0.3940 p5        1 IRP      1.535500
      2 O1P         0.2460    0.2160    0.5600 o         1 IRP     -0.889500
      3 O2P        -1.7940   -1.1830   -0.1640 o         1 IRP     -0.889500
      4 O3P        -0.7080    0.3790   -1.8320 o         1 IRP     -0.889500
      5 O5'        -2.0770    1.3230   -0.0720 os        1 IRP     -0.557000
      6 C5'        -3.0310    1.2240   -0.9470 c2        1 IRP      0.249000
      7 C4'        -3.8220    2.2270   -1.3610 c1        1 IRP     -0.368000
      8 N4'        -1.2530    3.2300   -2.6730 n8        1 IRP     -0.381000
      9 C3'        -4.2870    3.1710   -2.1760 c2        1 IRP     -0.002000
     10 O3'        -5.5530    3.7520   -1.9460 oh        1 IRP     -0.324000
     11 C2'        -3.6750    3.6580   -3.3390 c1        1 IRP     -0.188000
     12 O2'        -5.6460    5.6220   -4.0690 oh        1 IRP     -0.499000
     13 C1'        -2.2550    3.4320   -3.7050 c3        1 IRP      0.004000
     14 C9         -2.1800    2.3900   -4.8370 c3        1 IRP     -0.101000
     15 C8         -2.3530    0.9240   -4.4340 c2        1 IRP     -0.089000
     16 N7         -3.2710    0.3020   -5.1340 n2        1 IRP     -0.115000
     17 C4         -3.2970    2.5180   -5.8730 c2        1 IRP      0.029000
     18 C6         -4.9520    0.9280   -6.9370 c2        1 IRP      0.255000
     19 N1         -5.7040    4.8980   -6.8560 n2        1 IRP     -0.278000
     20 C2         -4.6580    4.2780   -6.5950 c1        1 IRP      0.162000
     21 N3         -3.5350    3.7110   -6.5390 n2        1 IRP     -0.175000
     22 C5         -3.8680    1.2580   -6.0190 c2        1 IRP     -0.214000
     23 H5'1        0.5490    0.7920   -3.6230 ha        1 IRP     -0.000500
     24 H5'2       -3.2240    0.2000   -1.3650 h4        1 IRP      0.169000
     25 H4'         0.7750    0.9820   -4.2370 ha        1 IRP     -0.000500
     26 HN'4       -1.6680    3.2260   -1.7600 hn        1 IRP      0.185500
     27 H3'        -0.7600    2.3560   -2.7830 hn        1 IRP      0.185500
     28 HO'3       -5.9320    3.2870   -1.1910 ho        1 IRP      0.196000
     29 H2'        -6.1980    5.3320   -3.3400 ho        1 IRP      0.233000
     30 HO'2       -4.8580    5.0350   -3.9850 ho        1 IRP      0.233000
     31 H1'        -1.9590    4.4240   -4.1940 h1        1 IRP      0.096000
     32 H8         -1.1780    2.4910   -5.3410 hc        1 IRP      0.143000
     33 H7         -1.7360    0.4620   -3.6230 h4        1 IRP      0.283000
     34 H1         -5.5010    1.8230   -7.3200 h4        1 IRP      0.070000
     35 H2         -6.0120    5.5960   -6.2050 hn        1 IRP      0.241000
     36 O6         -5.2770   -0.2040   -7.3040 o         1 IRP     -0.309000
@<TRIPOS>BOND
     1    1    2 1   
     2    1    3 1   
     3    1    4 1   
     4    1    5 1   
     5    5    6 1   
     6    6    7 1   
     7    6   24 1   
     8    7    9 1   
     9    8   13 1   
    10    8   26 1   
    11    8   27 1   
    12    9   10 1   
    13    9   11 1   
    14   10   28 1   
    15   11   13 1   
    16   12   29 1   
    17   12   30 1   
    18   13   14 1   
    19   13   31 1   
    20   14   15 1   
    21   14   17 1   
    22   14   32 1   
    23   15   16 1   
    24   15   33 1   
    25   16   22 1   
    26   17   21 1   
    27   17   22 1   
    28   18   22 1   
    29   18   34 1   
    30   18   36 1   
    31   19   20 1   
    32   19   35 1   
    33   20   21 1   
    34   23   25 1   
@<TRIPOS>SUBSTRUCTURE
     1 IRP         1 TEMP              0 ****  ****    0 ROOT
