@<TRIPOS>MOLECULE
IRS
   14    13     1     0     0
SMALL
bcc


@<TRIPOS>ATOM
      1 N1         -1.8010   -0.3970   -0.4260 n3        1 IRS     -0.910800
      2 C1         -0.8920    0.2210    0.5110 c3        1 IRS      0.194000
      3 C2          0.5500    0.1810    0.0850 c2        1 IRS     -0.118400
      4 C3          1.1150   -1.1630   -0.1810 c3        1 IRS     -0.063900
      5 C4          1.2720    1.2990   -0.0190 c2        1 IRS     -0.213000
      6 H1         -1.4580   -1.2860   -0.7330 hn        1 IRS      0.348300
      7 H2         -1.2240    1.2940    0.6290 h1        1 IRS      0.030700
      8 H3         -0.9420   -0.2540    1.5400 h1        1 IRS      0.030700
      9 H4          0.8130   -1.5120   -1.2010 hc        1 IRS      0.042367
     10 H5          2.2320   -1.1490   -0.1360 hc        1 IRS      0.042367
     11 H6          0.7420   -1.9040    0.5690 hc        1 IRS      0.042367
     12 H7          0.8470    2.2950    0.1570 ha        1 IRS      0.114000
     13 H8          2.3360    1.2860   -0.2890 ha        1 IRS      0.114000
     14 H9         -2.7000   -0.5210   -0.0020 hn        1 IRS      0.348300
@<TRIPOS>BOND
     1    1    2 1   
     2    1    6 1   
     3    1   14 1   
     4    2    3 1   
     5    2    7 1   
     6    2    8 1   
     7    3    4 1   
     8    3    5 2   
     9    4    9 1   
    10    4   10 1   
    11    4   11 1   
    12    5   12 1   
    13    5   13 1   
@<TRIPOS>SUBSTRUCTURE
     1 IRS         1 TEMP              0 ****  ****    0 ROOT
