@<TRIPOS>MOLECULE
IRS
   14    12     1     0     0
SMALL
bcc


@<TRIPOS>ATOM
      1 N1         -1.5790   -0.1250   -1.0850 n3        1 IRS     -0.343000
      2 C1         -0.1530   -0.1250   -1.0850 c3        1 IRS     -0.047000
      3 C2          0.3510   -0.1250    0.3410 c2        1 IRS     -0.110000
      4 C3          0.8540    1.1580    0.9660 c3        1 IRS     -0.186000
      5 C4          0.3530   -1.2680    1.0550 c1        1 IRS     -0.213000
      6 H1         -1.8830   -0.8440   -1.5580 hn        1 IRS      0.143500
      7 H2          0.1730   -0.9220   -1.5450 h1        1 IRS      0.070000
      8 H3          0.1730    0.6720   -1.5450 h1        1 IRS      0.070000
      9 H4          0.3650    1.3300    1.7930 hc        1 IRS      0.081667
     10 H5          0.7130    1.8980    0.3460 hc        1 IRS      0.081667
     11 H6          1.8060    1.0730    1.1620 hc        1 IRS      0.081667
     12 H7          0.0290   -2.0960    0.6520 DU        1 IRS      0.115000
     13 H8          0.6790   -1.2680    1.9750 ha        1 IRS      0.113000
     14 H9         -1.8830    0.6430   -1.4710 hn        1 IRS      0.143500
@<TRIPOS>BOND
     1    1    2 1   
     2    1    6 1   
     3    1   14 1   
     4    2    3 1   
     5    2    7 1   
     6    2    8 1   
     7    3    4 1   
     8    3    5 1   
     9    4    9 1   
    10    4   10 1   
    11    4   11 1   
    12    5   13 1   
@<TRIPOS>SUBSTRUCTURE
     1 IRS         1 TEMP              0 ****  ****    0 ROOT
