@<TRIPOS>MOLECULE
IRS
   15    14     1     0     0
SMALL
bcc


@<TRIPOS>ATOM
      1 N1         -0.1020    0.0710    0.1290 n4        1 IRS     -0.841600
      2 C1          1.3890   -0.0770    0.0530 c3        1 IRS      0.154000
      3 C2          2.0140   -0.0440    1.4110 c2        1 IRS     -0.218400
      4 C3          2.0470    1.2820    2.0720 c3        1 IRS     -0.073900
      5 C4          2.5670   -1.1410    1.9390 c2        1 IRS     -0.106000
      6 H1         -0.5050   -0.7090    0.6580 hn        1 IRS      0.460467
      7 H2          1.6060   -1.0490   -0.4780 hx        1 IRS      0.113200
      8 H3          1.7810    0.7770   -0.5740 hx        1 IRS      0.113200
      9 H4          1.0140    1.6380    2.3130 hc        1 IRS      0.061033
     10 H5          2.6230    1.2370    3.0310 hc        1 IRS      0.061033
     11 H6          2.5390    2.0400    1.4110 hc        1 IRS      0.061033
     12 H7          2.5590   -2.1210    1.4380 ha        1 IRS      0.147000
     13 H8          3.0830   -1.1200    2.9120 ha        1 IRS      0.147000
     14 H9         -0.5050    0.0840   -0.8120 hn        1 IRS      0.460467
     15 H13        -0.3380    0.9450    0.6100 hn        1 IRS      0.460467
@<TRIPOS>BOND
     1    1    2 1   
     2    1    6 1   
     3    1   14 1   
     4    1   15 1   
     5    2    3 1   
     6    2    7 1   
     7    2    8 1   
     8    3    4 1   
     9    3    5 2   
    10    4    9 1   
    11    4   10 1   
    12    4   11 1   
    13    5   12 1   
    14    5   13 1   
@<TRIPOS>SUBSTRUCTURE
     1 IRS         1 TEMP              0 ****  ****    0 ROOT
