@<TRIPOS>MOLECULE
IRS
   15    14     1     0     0
SMALL
bcc


@<TRIPOS>ATOM
      1 N1         -0.0730    0.0690    0.0820 n4        1 IRS     -0.841600
      2 C1          1.4190   -0.0790    0.0530 c3        1 IRS      0.154000
      3 C2          2.0020   -0.0430    1.4290 c2        1 IRS     -0.218400
      4 C3          2.0280    1.2860    2.0830 c3        1 IRS     -0.073900
      5 C4          2.5280   -1.1430    1.9810 c2        1 IRS     -0.106000
      6 H1         -0.4930   -0.7100    0.6010 hn        1 IRS      0.460467
      7 H2          1.8300    0.7740   -0.5640 hx        1 IRS      0.113200
      8 H3          1.6520   -1.0520   -0.4700 hx        1 IRS      0.113200
      9 H4          0.9910    1.6630    2.2710 hc        1 IRS      0.061033
     10 H5          2.5650    2.0300    1.4410 hc        1 IRS      0.061033
     11 H6          2.5570    1.2380    3.0680 hc        1 IRS      0.061033
     12 H7          2.5260   -2.1250    1.4850 ha        1 IRS      0.147000
     13 H8          3.0130   -1.1200    2.9700 ha        1 IRS      0.147000
     14 H9         -0.3240    0.9440    0.5540 hn        1 IRS      0.460467
     15 H13        -0.4470    0.0790   -0.8710 hn        1 IRS      0.460467
@<TRIPOS>BOND
     1    1    2 1   
     2    1    6 1   
     3    1   14 1   
     4    1   15 1   
     5    2    3 1   
     6    2    7 1   
     7    2    8 1   
     8    3    4 1   
     9    3    5 2   
    10    4    9 1   
    11    4   10 1   
    12    4   11 1   
    13    5   12 1   
    14    5   13 1   
@<TRIPOS>SUBSTRUCTURE
     1 IRS         1 TEMP              0 ****  ****    0 ROOT
