@<TRIPOS>MOLECULE
IRS
   15    14     1     0     0
SMALL
bcc


@<TRIPOS>ATOM
      1 N1         -0.0970    0.0620    0.1200 nz        1 IRS     -0.841600
      2 C1          1.3940   -0.0810    0.0540 c3        1 IRS      0.154000
      3 C2          2.0120   -0.0410    1.4150 c2        1 IRS     -0.218400
      4 C3          2.0430    1.2890    2.0680 c3        1 IRS     -0.073900
      5 C4          2.5600   -1.1360    1.9530 c2        1 IRS     -0.106000
      6 H1         -0.5010   -0.7170    0.6510 hn        1 IRS      0.460467
      7 H2          1.7880    0.7720   -0.5750 hx        1 IRS      0.113200
      8 H3          1.6180   -1.0550   -0.4720 hx        1 IRS      0.113200
      9 H4          1.0090    1.6530    2.2920 hc        1 IRS      0.061033
     10 H5          2.5500    2.0390    1.4090 hc        1 IRS      0.061033
     11 H6          2.6060    1.2470    3.0360 hc        1 IRS      0.061033
     12 H7          2.5540   -2.1180    1.4580 ha        1 IRS      0.147000
     13 H8          3.0700   -1.1100    2.9290 ha        1 IRS      0.147000
     14 H9         -0.3390    0.9380    0.5970 hn        1 IRS      0.460467
     15 H13        -0.4940    0.0690   -0.8230 hn        1 IRS      0.460467
@<TRIPOS>BOND
     1    1    2 1   
     2    1    6 1   
     3    1   14 1   
     4    1   15 1   
     5    2    3 1   
     6    2    7 1   
     7    2    8 1   
     8    3    4 1   
     9    3    5 2   
    10    4    9 1   
    11    4   10 1   
    12    4   11 1   
    13    5   12 1   
    14    5   13 1   
@<TRIPOS>SUBSTRUCTURE
     1 IRS         1 TEMP              0 ****  ****    0 ROOT
