@<TRIPOS>MOLECULE
IS1
   77    80     1     0     0
SMALL
bcc


@<TRIPOS>ATOM
      1 CAM        -0.9100   -0.0880   -1.0920 ca        1 IS1     -0.092000
      2 CAI         0.4100   -0.5220   -1.1970 ca        1 IS1     -0.135000
      3 CAH         1.1370   -0.8440   -0.0500 ca        1 IS1     -0.101000
      4 CAJ         0.5390   -0.7400    1.2070 ca        1 IS1     -0.135000
      5 CAN        -0.7830   -0.3150    1.3190 ca        1 IS1     -0.092000
      6 CBE        -1.5060    0.0230    0.1690 ca        1 IS1     -0.147600
      7 CBC        -2.9330    0.4180    0.3210 c         1 IS1      0.665700
      8 OAB        -3.7090   -0.2370    1.0420 o         1 IS1     -0.583100
      9 NBK        -3.4210    1.5060   -0.4270 n         1 IS1     -0.451800
     10 CAY        -2.5700    2.6310   -0.7410 c3        1 IS1      0.077500
     11 CAW        -2.7760    3.8470    0.1690 c3        1 IS1     -0.104900
     12 CAX        -4.8210    1.8550   -0.3040 c3        1 IS1      0.077500
     13 CAV        -5.0960    3.0400    0.6250 c3        1 IS1     -0.104900
     14 CBF        -4.2460    4.2410    0.2420 c3        1 IS1     -0.062700
     15 CAU        -4.4130    5.3850    1.2320 c3        1 IS1     -0.077400
     16 CAS        -5.8140    5.9630    1.2000 c3        1 IS1     -0.078400
     17 CAR        -5.9180    7.1490    2.1420 c3        1 IS1     -0.111400
     18 CAT        -7.3660    7.6230    2.1850 c3        1 IS1      0.108800
     19 NAZ        -7.5550    8.7980    3.0970 ny        1 IS1     -0.672800
     20 CBB        -9.0050    9.2070    3.1810 c         1 IS1      0.545300
     21 OAA        -9.6010    8.8210    4.1800 o         1 IS1     -0.404100
     22 CAF        -9.5330   10.0160    2.0790 ce        1 IS1     -0.259200
     23 CAG       -10.8140   10.4370    2.1360 cf        1 IS1      0.046800
     24 CBD       -11.4790   11.2430    1.1280 ca        1 IS1     -0.127800
     25 CAP       -12.8810   11.3700    1.2070 ca        1 IS1     -0.000300
     26 CAL       -10.8010   11.9110    0.0880 ca        1 IS1      0.000000
     27 CAK       -11.5270   12.6710   -0.8250 ca        1 IS1     -0.143000
     28 CAO       -12.9250   12.7600   -0.7110 ca        1 IS1      0.023700
     29 NBL       -13.5800   12.1080    0.2930 na        1 IS1      0.007900
     30 C1'       -15.0770   12.1240    0.4100 c3        1 IS1      0.170800
     31 O4'       -15.6430   12.8610   -0.6490 os        1 IS1     -0.376600
     32 C4'       -16.4040   13.9890   -0.1520 c3        1 IS1      0.066100
     33 C5'       -15.6160   15.2770   -0.3980 c3        1 IS1      0.108400
     34 O5'       -14.7480   15.1230   -1.5010 oh        1 IS1     -0.611800
     35 C3'       -16.6740   13.7330    1.3430 c3        1 IS1      0.100100
     36 O3'       -17.9150   13.0790    1.4940 oh        1 IS1     -0.588800
     37 C2'       -15.5670   12.7370    1.7690 c3        1 IS1      0.113100
     38 O2'       -15.9630   11.7000    2.6150 oh        1 IS1     -0.582800
     39 HAM        -1.4850    0.1520   -1.9990 ha        1 IS1      0.145000
     40 HAI         0.8770   -0.6190   -2.1890 ha        1 IS1      0.143500
     41 HAH         2.1790   -1.1880   -0.1370 ha        1 IS1      0.144000
     42 HAJ         1.1080   -1.0050    2.1110 ha        1 IS1      0.143500
     43 HAN        -1.2710   -0.2610    2.3050 ha        1 IS1      0.145000
     44 HAY        -1.4880    2.3230   -0.6920 h1        1 IS1      0.066950
     45 HAYA       -2.7970    2.9360   -1.8040 h1        1 IS1      0.066950
     46 HAW        -2.3960    3.6210    1.1980 hc        1 IS1      0.048950
     47 HAWA       -2.1730    4.6980   -0.2400 hc        1 IS1      0.048950
     48 HAX        -5.1880    2.1130   -1.3390 h1        1 IS1      0.066950
     49 HAXA       -5.3980    0.9590    0.0640 h1        1 IS1      0.066950
     50 HAV        -4.8840    2.7460    1.6860 hc        1 IS1      0.048950
     51 HAVA       -6.1840    3.2960    0.5490 hc        1 IS1      0.048950
     52 HBF        -4.5690    4.5950   -0.7780 hc        1 IS1      0.049700
     53 HAU        -3.6720    6.1910    0.9870 hc        1 IS1      0.051700
     54 HAUA       -4.1810    5.0180    2.2670 hc        1 IS1      0.051700
     55 HAS        -6.5510    5.1730    1.5040 hc        1 IS1      0.056700
     56 HASA       -6.0680    6.2830    0.1560 hc        1 IS1      0.056700
     57 HAR        -5.5770    6.8400    3.1670 hc        1 IS1      0.073200
     58 HARA       -5.2420    7.9710    1.7860 hc        1 IS1      0.073200
     59 HAT        -8.0310    6.7920    2.5600 hx        1 IS1      0.107700
     60 HATA       -7.7060    7.9290    1.1550 hx        1 IS1      0.107700
     61 HNAZ       -6.9860    9.5840    2.7670 hn        1 IS1      0.467800
     62 HAF        -8.8620   10.2450    1.2370 ha        1 IS1      0.168000
     63 HAG       -11.4430   10.1570    3.0110 ha        1 IS1      0.182000
     64 HAP       -13.4780   10.8790    2.0100 h4        1 IS1      0.226000
     65 HAL        -9.7030   11.8440   -0.0020 ha        1 IS1      0.178000
     66 HAK       -11.0260   13.2150   -1.6480 ha        1 IS1      0.213000
     67 HAO       -13.5470   13.3710   -1.4170 h4        1 IS1      0.265000
     68 H1'       -15.4040   11.0460    0.2830 h2        1 IS1      0.139700
     69 H4'       -17.3540   13.9560   -0.7570 h1        1 IS1      0.131700
     70 H5'       -14.9380   15.5130    0.4670 h1        1 IS1      0.073700
     71 H5'A      -16.3300   16.1300   -0.5520 h1        1 IS1      0.073700
     72 HO5'      -15.2830   15.1610   -2.3050 ho        1 IS1      0.433000
     73 H3'       -16.6170   14.6790    1.9420 h1        1 IS1      0.097700
     74 HO3'      -18.5210   13.6750    1.9560 ho        1 IS1      0.450000
     75 H2'       -14.7450   13.2790    2.3120 h1        1 IS1      0.094700
     76 HO2'      -16.9080   11.5110    2.4780 ho        1 IS1      0.462000
     77 HAZ2       -7.2290    8.5360    4.0410 hn        1 IS1      0.467800
@<TRIPOS>BOND
     1    1    2 ar  
     2    1    6 ar  
     3    1   39 1   
     4    2    3 ar  
     5    2   40 1   
     6    3    4 ar  
     7    3   41 1   
     8    4    5 ar  
     9    4   42 1   
    10    5    6 ar  
    11    5   43 1   
    12    6    7 1   
    13    7    8 2   
    14    7    9 1   
    15    9   10 1   
    16    9   12 1   
    17   10   11 1   
    18   10   44 1   
    19   10   45 1   
    20   11   14 1   
    21   11   46 1   
    22   11   47 1   
    23   12   13 1   
    24   12   48 1   
    25   12   49 1   
    26   13   14 1   
    27   13   50 1   
    28   13   51 1   
    29   14   15 1   
    30   14   52 1   
    31   15   16 1   
    32   15   53 1   
    33   15   54 1   
    34   16   17 1   
    35   16   55 1   
    36   16   56 1   
    37   17   18 1   
    38   17   57 1   
    39   17   58 1   
    40   18   19 1   
    41   18   59 1   
    42   18   60 1   
    43   19   20 1   
    44   19   61 1   
    45   19   77 1   
    46   20   21 2   
    47   20   22 1   
    48   22   23 2   
    49   22   62 1   
    50   23   24 1   
    51   23   63 1   
    52   24   25 ar  
    53   24   26 ar  
    54   25   29 2   
    55   25   64 1   
    56   26   27 ar  
    57   26   65 1   
    58   27   28 ar  
    59   27   66 1   
    60   28   29 1   
    61   28   67 1   
    62   29   30 1   
    63   30   31 1   
    64   30   37 1   
    65   30   68 1   
    66   31   32 1   
    67   32   33 1   
    68   32   35 1   
    69   32   69 1   
    70   33   34 1   
    71   33   70 1   
    72   33   71 1   
    73   34   72 1   
    74   35   36 1   
    75   35   37 1   
    76   35   73 1   
    77   36   74 1   
    78   37   38 1   
    79   37   75 1   
    80   38   76 1   
@<TRIPOS>SUBSTRUCTURE
     1 IS1         1 TEMP              0 ****  ****    0 ROOT
