@<TRIPOS>MOLECULE
IS1
   77    80     1     0     0
SMALL
bcc


@<TRIPOS>ATOM
      1 CAM        -0.9560   -0.1190   -1.1100 ca        1 IS1     -0.092000
      2 CAI         0.3600   -0.5620   -1.2330 ca        1 IS1     -0.135000
      3 CAH         1.1080   -0.8650   -0.0950 ca        1 IS1     -0.101000
      4 CAJ         0.5360   -0.7360    1.1710 ca        1 IS1     -0.135000
      5 CAN        -0.7820   -0.3030    1.3020 ca        1 IS1     -0.092000
      6 CBE        -1.5270    0.0170    0.1600 ca        1 IS1     -0.147600
      7 CBC        -2.9480    0.4220    0.3330 c         1 IS1      0.665700
      8 OAB        -3.7120   -0.2170    1.0810 o         1 IS1     -0.583100
      9 NBK        -3.4470    1.4980   -0.4250 n         1 IS1     -0.451800
     10 CAY        -2.5970    2.6130   -0.7780 c3        1 IS1      0.077500
     11 CAW        -2.7810    3.8460    0.1130 c3        1 IS1     -0.104900
     12 CAX        -4.8430    1.8540   -0.2810 c3        1 IS1      0.077500
     13 CAV        -5.0940    3.0580    0.6300 c3        1 IS1     -0.104900
     14 CBF        -4.2470    4.2480    0.2080 c3        1 IS1     -0.062700
     15 CAU        -4.3900    5.4110    1.1800 c3        1 IS1     -0.077400
     16 CAS        -5.7900    5.9910    1.1700 c3        1 IS1     -0.078400
     17 CAR        -5.8690    7.1980    2.0870 c3        1 IS1     -0.111400
     18 CAT        -7.3160    7.6720    2.1580 c3        1 IS1      0.108800
     19 NAZ        -7.4810    8.8690    3.0460 n4        1 IS1     -0.672800
     20 CBB        -8.9290    9.2780    3.1630 c         1 IS1      0.545300
     21 OAA        -9.4930    8.9180    4.1890 o         1 IS1     -0.404100
     22 CAF        -9.4920   10.0560    2.0560 ce        1 IS1     -0.259200
     23 CAG       -10.7720   10.4750    2.1390 cf        1 IS1      0.046800
     24 CBD       -11.4690   11.2520    1.1310 ca        1 IS1     -0.127800
     25 CAP       -12.8690   11.3750    1.2450 ca        1 IS1     -0.000300
     26 CAL       -10.8240   11.8960    0.0560 ca        1 IS1      0.000000
     27 CAK       -11.5790   12.6300   -0.8560 ca        1 IS1     -0.143000
     28 CAO       -12.9730   12.7160   -0.7040 ca        1 IS1      0.023700
     29 NBL       -13.5970   12.0860    0.3340 na        1 IS1      0.007900
     30 C1'       -15.0900   12.0990    0.4920 c3        1 IS1      0.170800
     31 O4'       -15.6900   12.8050   -0.5690 os        1 IS1     -0.377600
     32 C4'       -16.4420   13.9420   -0.0810 c3        1 IS1      0.066100
     33 C5'       -15.6690   15.2270   -0.3810 c3        1 IS1      0.108400
     34 O5'       -14.8310   15.0490   -1.5030 oh        1 IS1     -0.611800
     35 C3'       -16.6700   13.7240    1.4280 c3        1 IS1      0.100100
     36 O3'       -17.9020   13.0680    1.6300 oh        1 IS1     -0.588800
     37 C2'       -15.5460   12.7430    1.8480 c3        1 IS1      0.113100
     38 O2'       -15.9120   11.7260    2.7310 oh        1 IS1     -0.582800
     39 HAM        -1.5480    0.1060   -2.0100 ha        1 IS1      0.145000
     40 HAI         0.8070   -0.6790   -2.2320 ha        1 IS1      0.143500
     41 HAH         2.1470   -1.2160   -0.1960 ha        1 IS1      0.144000
     42 HAJ         1.1210   -0.9870    2.0690 ha        1 IS1      0.143500
     43 HAN        -1.2500   -0.2290    2.2960 ha        1 IS1      0.145000
     44 HAY        -1.5160    2.3010   -0.7450 h1        1 IS1      0.066950
     45 HAYA       -2.8450    2.8980   -1.8410 h1        1 IS1      0.066950
     46 HAW        -2.3810    3.6380    1.1390 hc        1 IS1      0.048950
     47 HAWA       -2.1830    4.6870   -0.3230 hc        1 IS1      0.048950
     48 HAX        -5.4160    0.9680    0.1150 h1        1 IS1      0.066950
     49 HAXA       -5.2290    2.0950   -1.3140 h1        1 IS1      0.066950
     50 HAV        -6.1820    3.3170    0.5710 hc        1 IS1      0.048950
     51 HAVA       -4.8630    2.7830    1.6920 hc        1 IS1      0.048950
     52 HBF        -4.5890    4.5840   -0.8110 hc        1 IS1      0.049700
     53 HAU        -3.6530    6.2110    0.9020 hc        1 IS1      0.051700
     54 HAUA       -4.1340    5.0630    2.2160 hc        1 IS1      0.051700
     55 HAS        -6.5210    5.2100    1.5090 hc        1 IS1      0.056700
     56 HASA       -6.0700    6.2880    0.1250 hc        1 IS1      0.056700
     57 HAR        -5.2040    8.0110    1.6940 hc        1 IS1      0.073200
     58 HARA       -5.5000    6.9120    3.1080 hc        1 IS1      0.073200
     59 HAT        -7.6850    7.9530    1.1310 hx        1 IS1      0.107700
     60 HATA       -7.9700    6.8500    2.5720 hx        1 IS1      0.107700
     61 HNAZ       -7.1270    8.6310    3.9860 hn        1 IS1      0.467800
     62 HAF        -8.8470   10.2650    1.1880 ha        1 IS1      0.168000
     63 HAG       -11.3740   10.2160    3.0390 ha        1 IS1      0.182000
     64 HAP       -13.4400   10.9020    2.0780 h4        1 IS1      0.226000
     65 HAL        -9.7290   11.8320   -0.0630 ha        1 IS1      0.178000
     66 HAK       -11.1040   13.1550   -1.7060 ha        1 IS1      0.213000
     67 HAO       -13.6180   13.3060   -1.4080 h4        1 IS1      0.265000
     68 H1'       -15.4150   11.0160    0.4020 h2        1 IS1      0.139700
     69 H4'       -17.4080   13.8890   -0.6570 h1        1 IS1      0.131700
     70 H5'       -16.3910   16.0720   -0.5370 h1        1 IS1      0.073700
     71 H5'A      -14.9680   15.4880    0.4580 h1        1 IS1      0.073700
     72 HO5'      -15.3880   15.0640   -2.2930 ho        1 IS1      0.433000
     73 H3'       -16.6000   14.6840    2.0010 h1        1 IS1      0.097700
     74 HO3'      -18.4980   13.6720    2.0940 ho        1 IS1      0.450000
     75 H2'       -14.7110   13.3030    2.3540 h1        1 IS1      0.094700
     76 HO2'      -16.8600   11.5300    2.6260 ho        1 IS1      0.462000
     77 HAZ2       -6.9240    9.6480    2.6800 hn        1 IS1      0.467800
@<TRIPOS>BOND
     1    1    2 ar  
     2    1    6 ar  
     3    1   39 1   
     4    2    3 ar  
     5    2   40 1   
     6    3    4 ar  
     7    3   41 1   
     8    4    5 ar  
     9    4   42 1   
    10    5    6 ar  
    11    5   43 1   
    12    6    7 1   
    13    7    8 2   
    14    7    9 1   
    15    9   10 1   
    16    9   12 1   
    17   10   11 1   
    18   10   44 1   
    19   10   45 1   
    20   11   14 1   
    21   11   46 1   
    22   11   47 1   
    23   12   13 1   
    24   12   48 1   
    25   12   49 1   
    26   13   14 1   
    27   13   50 1   
    28   13   51 1   
    29   14   15 1   
    30   14   52 1   
    31   15   16 1   
    32   15   53 1   
    33   15   54 1   
    34   16   17 1   
    35   16   55 1   
    36   16   56 1   
    37   17   18 1   
    38   17   57 1   
    39   17   58 1   
    40   18   19 1   
    41   18   59 1   
    42   18   60 1   
    43   19   20 1   
    44   19   61 1   
    45   19   77 1   
    46   20   21 2   
    47   20   22 1   
    48   22   23 2   
    49   22   62 1   
    50   23   24 1   
    51   23   63 1   
    52   24   25 ar  
    53   24   26 ar  
    54   25   29 2   
    55   25   64 1   
    56   26   27 ar  
    57   26   65 1   
    58   27   28 ar  
    59   27   66 1   
    60   28   29 1   
    61   28   67 1   
    62   29   30 1   
    63   30   31 1   
    64   30   37 1   
    65   30   68 1   
    66   31   32 1   
    67   32   33 1   
    68   32   35 1   
    69   32   69 1   
    70   33   34 1   
    71   33   70 1   
    72   33   71 1   
    73   34   72 1   
    74   35   36 1   
    75   35   37 1   
    76   35   73 1   
    77   36   74 1   
    78   37   38 1   
    79   37   75 1   
    80   38   76 1   
@<TRIPOS>SUBSTRUCTURE
     1 IS1         1 TEMP              0 ****  ****    0 ROOT
