@<TRIPOS>MOLECULE
IS1
   77    80     1     0     0
SMALL
bcc


@<TRIPOS>ATOM
      1 CAM        -2.2360   -0.6700    1.0300 ca        1 IS1     -0.092000
      2 CAI        -1.0480   -1.3970    0.9610 ca        1 IS1     -0.135000
      3 CAH         0.0060   -1.1020    1.8270 ca        1 IS1     -0.101000
      4 CAJ        -0.1310   -0.0860    2.7730 ca        1 IS1     -0.135000
      5 CAN        -1.3190    0.6380    2.8540 ca        1 IS1     -0.092000
      6 CBE        -2.3700    0.3540    1.9740 ca        1 IS1     -0.147600
      7 CBC        -3.6430    1.1080    2.1260 c         1 IS1      0.665700
      8 OAB        -4.1580    1.2840    3.2470 o         1 IS1     -0.585100
      9 NBK        -4.3090    1.5590    0.9710 n         1 IS1     -0.450800
     10 CAY        -3.5660    1.9750   -0.1970 c3        1 IS1      0.077500
     11 CAW        -3.4030    3.4930   -0.3280 c3        1 IS1     -0.104900
     12 CAX        -5.5720    2.2490    1.1290 c3        1 IS1      0.077500
     13 CAV        -5.4690    3.7750    1.0500 c3        1 IS1     -0.104900
     14 CBF        -4.7430    4.2080   -0.2150 c3        1 IS1     -0.063700
     15 CAU        -4.5160    5.7120   -0.2440 c3        1 IS1     -0.077400
     16 CAS        -5.8190    6.4820   -0.3140 c3        1 IS1     -0.078400
     17 CAR        -5.5490    7.9720   -0.4280 c3        1 IS1     -0.111400
     18 CAT        -6.8720    8.7230   -0.3400 c3        1 IS1      0.108800
     19 NAZ        -6.6940   10.2080   -0.4510 n4        1 IS1     -0.674800
     20 CBB        -8.0070   10.9440   -0.3010 c         1 IS1      0.558300
     21 OAA        -8.1440   11.5270    0.7690 o         1 IS1     -0.438100
     22 CAF        -8.9180   10.8690   -1.4380 ce        1 IS1     -0.261200
     23 CAG       -10.1570   11.3890   -1.5090 cf        1 IS1      0.058800
     24 CBD       -10.9190   12.1700   -0.5470 ca        1 IS1     -0.140800
     25 CAP       -12.3030   11.9200   -0.4570 ca        1 IS1     -0.005300
     26 CAL       -10.3720   13.2090    0.2310 ca        1 IS1      0.012000
     27 CAK       -11.2040   13.9440    1.0740 ca        1 IS1     -0.142000
     28 CAO       -12.5760   13.6500    1.1370 ca        1 IS1      0.020700
     29 NBL       -13.1060   12.6510    0.3730 na        1 IS1      0.007900
     30 C1'       -14.5770   12.3600    0.3500 c3        1 IS1      0.171800
     31 O4'       -15.2710   13.2770    1.1650 os        1 IS1     -0.376600
     32 C4'       -15.9970   12.5950    2.2170 c3        1 IS1      0.063100
     33 C5'       -15.2730   12.8040    3.5490 c3        1 IS1      0.109400
     34 O5'       -14.5240   14.0000    3.5220 oh        1 IS1     -0.610800
     35 C3'       -16.0890   11.1090    1.8170 c3        1 IS1      0.100100
     36 O3'       -17.2800   10.8790    1.0970 oh        1 IS1     -0.590800
     37 C2'       -14.9100   10.9050    0.8330 c3        1 IS1      0.116100
     38 O2'       -15.1650   10.1040   -0.2810 oh        1 IS1     -0.583800
     39 HAM        -3.0700   -0.9140    0.3550 ha        1 IS1      0.145000
     40 HAI        -0.9450   -2.2080    0.2250 ha        1 IS1      0.144000
     41 HAH         0.9420   -1.6780    1.7690 ha        1 IS1      0.144000
     42 HAJ         0.6960    0.1390    3.4640 ha        1 IS1      0.144000
     43 HAN        -1.4460    1.4210    3.6190 ha        1 IS1      0.145000
     44 HAY        -2.5450    1.5000   -0.1950 h1        1 IS1      0.067700
     45 HAYA       -4.1240    1.5940   -1.1010 h1        1 IS1      0.067700
     46 HAW        -2.9370    3.7120   -1.3230 hc        1 IS1      0.048450
     47 HAWA       -2.7070    3.8700    0.4660 hc        1 IS1      0.048450
     48 HAX        -6.2500    1.8890    0.3030 h1        1 IS1      0.067700
     49 HAXA       -6.0320    1.9640    2.1180 h1        1 IS1      0.067700
     50 HAV        -4.9290    4.1650    1.9510 hc        1 IS1      0.048450
     51 HAVA       -6.5080    4.1930    1.0610 hc        1 IS1      0.048450
     52 HBF        -5.3740    3.9190   -1.1030 hc        1 IS1      0.051700
     53 HAU        -3.9460    6.0190    0.6730 hc        1 IS1      0.052200
     54 HAUA       -3.8830    5.9680   -1.1350 hc        1 IS1      0.052200
     55 HAS        -6.4180    6.1350   -1.1960 hc        1 IS1      0.056700
     56 HASA       -6.4240    6.2780    0.6100 hc        1 IS1      0.056700
     57 HAR        -4.8620    8.2900    0.4010 hc        1 IS1      0.074200
     58 HARA       -5.0360    8.1850   -1.4030 hc        1 IS1      0.074200
     59 HAT        -7.5610    8.3950   -1.1700 hx        1 IS1      0.106700
     60 HATA       -7.3670    8.5140    0.6530 hx        1 IS1      0.106700
     61 HNAZ       -6.2720   10.4320   -1.3590 hn        1 IS1      0.469300
     62 HAF        -8.5460   10.3150   -2.3240 ha        1 IS1      0.182000
     63 HAG       -10.7150   11.1980   -2.4570 ha        1 IS1      0.184000
     64 HAP       -12.8000   11.1180   -1.0490 h4        1 IS1      0.223000
     65 HAL        -9.2960   13.4500    0.1740 ha        1 IS1      0.186000
     66 HAK       -10.8060   14.7640    1.7000 ha        1 IS1      0.214000
     67 HAO       -13.2790   14.2070    1.8110 h4        1 IS1      0.264000
     68 H1'       -14.9090   12.5420   -0.7180 h2        1 IS1      0.139700
     69 H4'       -17.0080   13.0910    2.2070 h1        1 IS1      0.130700
     70 H5'       -14.5130   11.9970    3.7320 h1        1 IS1      0.072700
     71 H5'A      -16.0210   12.8070    4.3850 h1        1 IS1      0.072700
     72 HO5'      -15.1420   14.7390    3.6020 ho        1 IS1      0.433000
     73 H3'       -15.9940   10.4330    2.7060 h1        1 IS1      0.096700
     74 HO3'      -17.8840   10.3740    1.6590 ho        1 IS1      0.450000
     75 H2'       -14.0420   10.4260    1.3650 h1        1 IS1      0.092700
     76 HO2'      -16.1140   10.1360   -0.4940 ho        1 IS1      0.463000
     77 HAZ2       -6.0490   10.5190    0.2920 hn        1 IS1      0.469300
@<TRIPOS>BOND
     1    1    2 ar  
     2    1    6 ar  
     3    1   39 1   
     4    2    3 ar  
     5    2   40 1   
     6    3    4 ar  
     7    3   41 1   
     8    4    5 ar  
     9    4   42 1   
    10    5    6 ar  
    11    5   43 1   
    12    6    7 1   
    13    7    8 2   
    14    7    9 1   
    15    9   10 1   
    16    9   12 1   
    17   10   11 1   
    18   10   44 1   
    19   10   45 1   
    20   11   14 1   
    21   11   46 1   
    22   11   47 1   
    23   12   13 1   
    24   12   48 1   
    25   12   49 1   
    26   13   14 1   
    27   13   50 1   
    28   13   51 1   
    29   14   15 1   
    30   14   52 1   
    31   15   16 1   
    32   15   53 1   
    33   15   54 1   
    34   16   17 1   
    35   16   55 1   
    36   16   56 1   
    37   17   18 1   
    38   17   57 1   
    39   17   58 1   
    40   18   19 1   
    41   18   59 1   
    42   18   60 1   
    43   19   20 1   
    44   19   61 1   
    45   19   77 1   
    46   20   21 2   
    47   20   22 1   
    48   22   23 2   
    49   22   62 1   
    50   23   24 1   
    51   23   63 1   
    52   24   25 ar  
    53   24   26 ar  
    54   25   29 2   
    55   25   64 1   
    56   26   27 ar  
    57   26   65 1   
    58   27   28 ar  
    59   27   66 1   
    60   28   29 1   
    61   28   67 1   
    62   29   30 1   
    63   30   31 1   
    64   30   37 1   
    65   30   68 1   
    66   31   32 1   
    67   32   33 1   
    68   32   35 1   
    69   32   69 1   
    70   33   34 1   
    71   33   70 1   
    72   33   71 1   
    73   34   72 1   
    74   35   36 1   
    75   35   37 1   
    76   35   73 1   
    77   36   74 1   
    78   37   38 1   
    79   37   75 1   
    80   38   76 1   
@<TRIPOS>SUBSTRUCTURE
     1 IS1         1 TEMP              0 ****  ****    0 ROOT
