@<TRIPOS>MOLECULE
IS1
   76    79     1     0     0
SMALL
bcc


@<TRIPOS>ATOM
      1 CAM       -11.2000   -0.1810   -0.5740 ca        1 IS1     -0.094500
      2 CAI       -12.2640    0.5460   -1.1060 ca        1 IS1     -0.136500
      3 CAH       -12.2430    0.9440   -2.4430 ca        1 IS1     -0.110000
      4 CAJ       -11.1590    0.6080   -3.2540 ca        1 IS1     -0.136500
      5 CAN       -10.0950   -0.1260   -2.7320 ca        1 IS1     -0.094500
      6 CBE       -10.1110   -0.5120   -1.3870 ca        1 IS1     -0.136600
      7 CBC        -8.9870   -1.3450   -0.8700 c         1 IS1      0.663700
      8 OAB        -8.6510   -2.3910   -1.4610 o         1 IS1     -0.590100
      9 NBK        -8.3700   -0.9810    0.3330 n         1 IS1     -0.450800
     10 CAY        -8.3390    0.3950    0.7770 c3        1 IS1      0.077500
     11 CAW        -6.9890    1.0890    0.5780 c3        1 IS1     -0.101900
     12 CAX        -7.2670   -1.7820    0.8260 c3        1 IS1      0.077500
     13 CAV        -5.8900   -1.1470    0.6280 c3        1 IS1     -0.101900
     14 CBF        -5.8550    0.2700    1.1780 c3        1 IS1     -0.064700
     15 CAU        -4.5210    0.9450    0.8950 c3        1 IS1     -0.075400
     16 CAS        -3.4140    0.4140    1.7810 c3        1 IS1     -0.078400
     17 CAR        -2.0920    1.0730    1.4490 c3        1 IS1     -0.102400
     18 CAT        -0.9980    0.5260    2.3660 c3        1 IS1      0.079000
     19 NAZ         0.3070    1.0880    2.1270 n         1 IS1     -0.546900
     20 CBB         1.3560    0.3370    1.6530 c         1 IS1      0.643300
     21 OAA         1.2770   -0.9000    1.4970 o         1 IS1     -0.592100
     22 CAF         2.6420    1.0520    1.3660 ce        1 IS1     -0.147200
     23 CAG         3.6960    0.3440    0.9320 cf        1 IS1     -0.109200
     24 CBD         5.0000    0.8950    0.6200 ca        1 IS1     -0.045800
     25 CAP         6.0900    0.0070    0.5300 ca        1 IS1     -0.046300
     26 CAL         5.2330    2.2650    0.3900 ca        1 IS1     -0.024000
     27 CAK         6.5210    2.7000    0.0840 ca        1 IS1     -0.142000
     28 CAO         7.5740    1.7770    0.0090 ca        1 IS1     -0.022300
     29 NBL         7.3500    0.4500    0.2320 na        1 IS1      0.009900
     30 C1'         8.4550   -0.5530    0.2200 c3        1 IS1      0.170800
     31 O4'         9.6930    0.0710   -0.0560 os        1 IS1     -0.383600
     32 C4'        10.2310   -0.3580   -1.3250 c3        1 IS1      0.080100
     33 C5'        10.0960    0.7710   -2.3480 c3        1 IS1      0.109400
     34 O5'        10.1720    2.0330   -1.7200 oh        1 IS1     -0.601800
     35 C3'         9.4760   -1.6290   -1.7480 c3        1 IS1      0.094100
     36 O3'        10.3190   -2.7320   -1.4880 oh        1 IS1     -0.581800
     37 C2'         8.2330   -1.6980   -0.8260 c3        1 IS1      0.089100
     38 O2'         8.0880   -2.9170   -0.1570 oh        1 IS1     -0.569800
     39 HAM       -11.2210   -0.5020    0.4780 ha        1 IS1      0.145500
     40 HAI       -13.1250    0.8010   -0.4690 ha        1 IS1      0.138000
     41 HAH       -13.0840    1.5180   -2.8590 ha        1 IS1      0.137000
     42 HAJ       -11.1460    0.9130   -4.3110 ha        1 IS1      0.138000
     43 HAN        -9.2490   -0.4190   -3.3730 ha        1 IS1      0.145500
     44 HAY        -9.1360    0.9920    0.2510 h1        1 IS1      0.062450
     45 HAYA       -8.5800    0.3910    1.8810 h1        1 IS1      0.062450
     46 HAW        -6.7980    1.2510   -0.5140 hc        1 IS1      0.049950
     47 HAWA       -7.0360    2.0950    1.0690 hc        1 IS1      0.049950
     48 HAX        -7.4420   -1.9330    1.9310 h1        1 IS1      0.062450
     49 HAXA       -7.2840   -2.7910    0.3240 h1        1 IS1      0.062450
     50 HAV        -5.1320   -1.7830    1.1550 hc        1 IS1      0.049950
     51 HAVA       -5.6290   -1.1380   -0.4620 hc        1 IS1      0.049950
     52 HBF        -6.0070    0.2220    2.2940 hc        1 IS1      0.050700
     53 HAU        -4.2480    0.7940   -0.1820 hc        1 IS1      0.042700
     54 HAUA       -4.6260    2.0500    1.0600 hc        1 IS1      0.042700
     55 HAS        -3.6710    0.6010    2.8570 hc        1 IS1      0.047700
     56 HASA       -3.3220   -0.6970    1.6490 hc        1 IS1      0.047700
     57 HAR        -1.8330    0.8750    0.3760 hc        1 IS1      0.045700
     58 HARA       -2.1830    2.1840    1.5730 hc        1 IS1      0.045700
     59 HAT        -1.2740    0.7490    3.4370 h1        1 IS1      0.072200
     60 HATA       -0.9400   -0.5950    2.2460 h1        1 IS1      0.072200
     61 HNAZ        0.3800    2.0770    2.1340 hn        1 IS1      0.310500
     62 HAF         2.6750    2.1390    1.5350 ha        1 IS1      0.136000
     63 HAG         3.5890   -0.7540    0.8020 ha        1 IS1      0.181000
     64 HAP         5.9650   -1.0840    0.7030 h4        1 IS1      0.216000
     65 HAL         4.4000    2.9870    0.4470 ha        1 IS1      0.182000
     66 HAK         6.7360    3.7660   -0.1040 ha        1 IS1      0.197000
     67 HAO         8.6180    2.0860   -0.2440 h4        1 IS1      0.247000
     68 H1'         8.5240   -0.9560    1.2780 h2        1 IS1      0.136700
     69 H4'        11.3130   -0.5810   -1.1010 h1        1 IS1      0.127700
     70 H5'        10.8930    0.6580   -3.1300 h1        1 IS1      0.069200
     71 H5'A        9.0860    0.7640   -2.8410 h1        1 IS1      0.069200
     72 HO5'       11.0650    2.1320   -1.3640 ho        1 IS1      0.425000
     73 H3'         9.1720   -1.5910   -2.8280 h1        1 IS1      0.086700
     74 HO3'       10.0390   -3.4580   -2.0630 ho        1 IS1      0.437000
     75 H2'         7.2820   -1.5700   -1.4130 h1        1 IS1      0.104700
     76 HO2'        8.9670   -3.2340    0.1160 ho        1 IS1      0.444000
@<TRIPOS>BOND
     1    1    2 ar  
     2    1    6 ar  
     3    1   39 1   
     4    2    3 ar  
     5    2   40 1   
     6    3    4 ar  
     7    3   41 1   
     8    4    5 ar  
     9    4   42 1   
    10    5    6 ar  
    11    5   43 1   
    12    6    7 1   
    13    7    8 2   
    14    7    9 1   
    15    9   10 1   
    16    9   12 1   
    17   10   11 1   
    18   10   44 1   
    19   10   45 1   
    20   11   14 1   
    21   11   46 1   
    22   11   47 1   
    23   12   13 1   
    24   12   48 1   
    25   12   49 1   
    26   13   14 1   
    27   13   50 1   
    28   13   51 1   
    29   14   15 1   
    30   14   52 1   
    31   15   16 1   
    32   15   53 1   
    33   15   54 1   
    34   16   17 1   
    35   16   55 1   
    36   16   56 1   
    37   17   18 1   
    38   17   57 1   
    39   17   58 1   
    40   18   19 1   
    41   18   59 1   
    42   18   60 1   
    43   19   20 1   
    44   19   61 1   
    45   20   21 2   
    46   20   22 1   
    47   22   23 2   
    48   22   62 1   
    49   23   24 1   
    50   23   63 1   
    51   24   25 ar  
    52   24   26 ar  
    53   25   29 2   
    54   25   64 1   
    55   26   27 ar  
    56   26   65 1   
    57   27   28 ar  
    58   27   66 1   
    59   28   29 1   
    60   28   67 1   
    61   29   30 1   
    62   30   31 1   
    63   30   37 1   
    64   30   68 1   
    65   31   32 1   
    66   32   33 1   
    67   32   35 1   
    68   32   69 1   
    69   33   34 1   
    70   33   70 1   
    71   33   71 1   
    72   34   72 1   
    73   35   36 1   
    74   35   37 1   
    75   35   73 1   
    76   36   74 1   
    77   37   38 1   
    78   37   75 1   
    79   38   76 1   
@<TRIPOS>SUBSTRUCTURE
     1 IS1         1 TEMP              0 ****  ****    0 ROOT
