@<TRIPOS>MOLECULE
IS2
   25    24     1     0     0
SMALL
bcc


@<TRIPOS>ATOM
      1 C1         -0.0440   -0.0480    0.0040 ca        1 IS2     -0.241000
      2 C2          1.3300   -0.2870   -0.1490 ca        1 IS2     -0.083000
      3 C3          2.1750   -0.4000    0.9360 ca        1 IS2     -0.247500
      4 C4          1.6860   -0.2750    2.2770 ca        1 IS2      0.150000
      5 C5          0.2790   -0.0290    2.4090 ca        1 IS2     -0.247500
      6 C6         -0.5450    0.0790    1.3040 ca        1 IS2     -0.083000
      7 N11         2.4880   -0.3670    3.3760 nh        1 IS2     -0.322000
      8 C12         3.8810   -0.6550    3.5220 c1        1 IS2     -0.094000
      9 O13         4.5450   -0.9220    2.5030 o         1 IS2     -0.465000
     10 P14         3.9600   -0.2880    5.7740 p3        1 IS2      2.509000
     11 O15         5.1390   -1.0890    6.1890 o         1 IS2     -1.190667
     12 O16         4.0850    1.1900    5.6940 o         1 IS2     -1.190667
     13 O17         2.6100   -0.8240    6.1210 o         1 IS2     -1.190667
     14 C18        -0.9300    0.0780   -1.1780 c3        1 IS2     -0.078000
     15 C19        -1.2100   -1.2550   -1.8340 c3        1 IS2     -0.203000
     16 H2          1.7400   -0.3880   -1.1650 ha        1 IS2      0.083500
     17 H3          3.2510   -0.5890    0.7860 ha        1 IS2      0.143000
     18 H5         -0.1490    0.0750    3.4160 ha        1 IS2      0.143000
     19 H6         -1.6190    0.2690    1.4510 ha        1 IS2      0.083500
     20 H11         2.0080   -0.2790    4.2600 hn        1 IS2      0.254000
     21 H181       -1.9050    0.5510   -0.8810 hc        1 IS2      0.051000
     22 H182       -0.4530    0.7600   -1.9350 hc        1 IS2      0.051000
     23 H191       -1.7330   -1.9380   -1.1230 hc        1 IS2      0.056667
     24 H192       -0.2540   -1.7410   -2.1440 hc        1 IS2      0.056667
     25 H193       -1.8540   -1.1230   -2.7380 hc        1 IS2      0.056667
@<TRIPOS>BOND
     1    1    2 1   
     2    1    6 1   
     3    1   14 1   
     4    2    3 1   
     5    2   16 1   
     6    3    4 1   
     7    3   17 1   
     8    4    5 1   
     9    4    7 1   
    10    5    6 1   
    11    5   18 1   
    12    6   19 1   
    13    7    8 1   
    14    7   20 1   
    15    8    9 1   
    16   10   11 1   
    17   10   12 1   
    18   10   13 1   
    19   14   15 1   
    20   14   21 1   
    21   14   22 1   
    22   15   23 1   
    23   15   24 1   
    24   15   25 1   
@<TRIPOS>SUBSTRUCTURE
     1 IS2         1 TEMP              0 ****  ****    0 ROOT
