@<TRIPOS>MOLECULE
IS2
   25    22     1     0     0
SMALL
bcc


@<TRIPOS>ATOM
      1 C1         -0.8700   -0.1180   -1.6310 c1        1 IS2     -0.224100
      2 C2          0.4960   -0.3510   -1.6370 c1        1 IS2     -0.120500
      3 C3          1.2030   -0.3590   -0.4450 c1        1 IS2     -0.120500
      4 C4          0.5440   -0.1330    0.7530 c1        1 IS2      0.155200
      5 C5         -0.8220    0.0990    0.7590 c1        1 IS2     -0.175500
      6 C6         -1.5290    0.1070   -0.4330 c1        1 IS2     -0.024500
      7 N11         1.2770   -0.0820    1.9660 n         1 IS2     -0.473700
      8 C12         1.4240    1.1500    2.6540 c         1 IS2      0.712100
      9 O13         0.9210    2.1600    2.2040 o         1 IS2     -0.717100
     10 P14         2.3050    1.2040    4.2400 p5        1 IS2      1.058500
     11 O15         1.4030    0.6880    5.3360 o         1 IS2     -0.858167
     12 O16         3.5420    0.3420    4.1580 o         1 IS2     -0.858167
     13 O17         2.7040    2.6280    4.5460 o         1 IS2     -0.858167
     14 C18        -1.6330   -0.0580   -2.9370 c3        1 IS2     -0.024300
     15 C19        -2.0550   -1.4540   -3.3390 c3        1 IS2     -0.085100
     16 H2          0.9570   -0.5310   -2.4790 ha        1 IS2      0.040000
     17 H3          2.1660   -0.5230   -0.4500 ha        1 IS2      0.040000
     18 H5         -1.2860    0.2580    1.6030 ha        1 IS2      0.106500
     19 H6         -2.4950    0.2490   -0.4260 ha        1 IS2      0.026500
     20 H11         1.6690   -0.8370    2.2950 hn        1 IS2      0.329500
     21 H181       -2.4260    0.5030   -2.8250 hc        1 IS2      0.011200
     22 H182       -1.0590    0.3230   -3.6320 hc        1 IS2      0.011200
     23 H191       -2.8210   -1.7340   -2.7960 hc        1 IS2      0.016700
     24 H192       -2.3070   -1.4590   -4.2870 hc        1 IS2      0.016700
     25 H193       -1.3090   -2.0740   -3.1970 hc        1 IS2      0.016700
@<TRIPOS>BOND
     1    1    6 3   
     2    1   14 1   
     3    2    3 3   
     4    2   16 1   
     5    3   17 1   
     6    4    5 3   
     7    4    7 1   
     8    5   18 1   
     9    6   19 1   
    10    7    8 1   
    11    7   20 1   
    12    8    9 2   
    13    8   10 1   
    14   10   11 1   
    15   10   12 1   
    16   10   13 1   
    17   14   15 1   
    18   14   21 1   
    19   14   22 1   
    20   15   23 1   
    21   15   24 1   
    22   15   25 1   
@<TRIPOS>SUBSTRUCTURE
     1 IS2         1 TEMP              0 ****  ****    0 ROOT
