@<TRIPOS>MOLECULE
IS2
   25    24     1     0     0
SMALL
bcc


@<TRIPOS>ATOM
      1 C1          0.1160    0.2260    3.5960 ca        1 IS2     -0.241000
      2 C2         -1.0320    0.5040    2.8380 ca        1 IS2     -0.083000
      3 C3         -1.0310    0.4310    1.4610 ca        1 IS2     -0.247500
      4 C4          0.1500    0.0670    0.7350 ca        1 IS2      0.150000
      5 C5          1.3110   -0.2120    1.5310 ca        1 IS2     -0.247500
      6 C6          1.2810   -0.1310    2.9100 ca        1 IS2     -0.083000
      7 N11         0.1980   -0.0060   -0.6250 nh        1 IS2     -0.322000
      8 C12        -0.8060    0.1630   -1.6280 c1        1 IS2     -0.094000
      9 O13        -1.9790    0.3810   -1.2680 o         1 IS2     -0.465000
     10 P14         0.6120   -0.0030   -3.4100 p3        1 IS2      2.509000
     11 O15        -0.2940   -0.4370   -4.5030 o         1 IS2     -1.190667
     12 O16         1.0790    1.4070   -3.3780 o         1 IS2     -1.190667
     13 O17         1.5410   -1.0260   -2.8420 o         1 IS2     -1.190667
     14 C18         0.0900    0.3210    5.0760 c3        1 IS2     -0.078000
     15 C19        -0.6380   -0.8390    5.7160 c3        1 IS2     -0.203000
     16 H2         -1.9580    0.7880    3.3630 ha        1 IS2      0.083500
     17 H3         -1.9470    0.6540    0.8900 ha        1 IS2      0.143000
     18 H5          2.2450   -0.4960    1.0250 ha        1 IS2      0.143000
     19 H6          2.1960   -0.3510    3.4820 ha        1 IS2      0.083500
     20 H11         1.0900   -0.2940   -1.0030 hn        1 IS2      0.254000
     21 H181       -0.4140    1.2780    5.3830 hc        1 IS2      0.051000
     22 H182        1.1390    0.3600    5.4770 hc        1 IS2      0.051000
     23 H191       -0.6660   -0.7230    6.8270 hc        1 IS2      0.056667
     24 H192       -1.6860   -0.8940    5.3360 hc        1 IS2      0.056667
     25 H193       -0.1290   -1.8020    5.4730 hc        1 IS2      0.056667
@<TRIPOS>BOND
     1    1    2 1   
     2    1    6 1   
     3    1   14 1   
     4    2    3 1   
     5    2   16 1   
     6    3    4 1   
     7    3   17 1   
     8    4    5 1   
     9    4    7 1   
    10    5    6 1   
    11    5   18 1   
    12    6   19 1   
    13    7    8 1   
    14    7   20 1   
    15    8    9 1   
    16   10   11 1   
    17   10   12 1   
    18   10   13 1   
    19   14   15 1   
    20   14   21 1   
    21   14   22 1   
    22   15   23 1   
    23   15   24 1   
    24   15   25 1   
@<TRIPOS>SUBSTRUCTURE
     1 IS2         1 TEMP              0 ****  ****    0 ROOT
