@<TRIPOS>MOLECULE
IS2
   26    25     1     0     0
SMALL
bcc


@<TRIPOS>ATOM
      1 C1          0.0780    0.0620    0.0600 ca        1 IS2     -0.091000
      2 C2          1.4110    0.4070    0.3090 ca        1 IS2     -0.127000
      3 C3          1.9260    0.3900    1.6010 ca        1 IS2     -0.128500
      4 C4          1.0970    0.0160    2.6800 ca        1 IS2     -0.031000
      5 C5         -0.2440   -0.3330    2.4320 ca        1 IS2     -0.128500
      6 C6         -0.7400   -0.3070    1.1320 ca        1 IS2     -0.127000
      7 N11         1.6480   -0.0430    4.0060 n4        1 IS2     -0.168000
      8 C12         2.5040   -1.4160    4.3620 c1        1 IS2      0.037000
      9 O13         1.7960   -2.3730    4.5740 o         1 IS2     -0.346000
     10 P14         4.8890   -0.5040    4.4600 p3        1 IS2      2.454000
     11 O15         5.6860   -1.5500    3.8010 o         1 IS2     -1.146333
     12 O16         4.3430    0.6220    3.6490 o         1 IS2     -1.146333
     13 O17         4.8090   -0.3810    5.9260 o         1 IS2     -1.146333
     14 C18        -0.4670    0.0880   -1.3250 c3        1 IS2     -0.116000
     15 C19        -0.6520   -1.3020   -1.8860 c3        1 IS2     -0.207000
     16 H2          2.0680    0.6930   -0.5260 ha        1 IS2      0.125000
     17 H3          2.9880    0.6560    1.7970 ha        1 IS2      0.173500
     18 H5         -0.9020   -0.6400    3.2580 ha        1 IS2      0.173500
     19 H6         -1.7880   -0.5850    0.9460 ha        1 IS2      0.125000
     20 H11         2.4450    0.6270    4.0760 hn        1 IS2      0.224500
     21 H181       -1.4560    0.6220   -1.3220 hc        1 IS2      0.077500
     22 H182        0.2210    0.6700   -1.9940 hc        1 IS2      0.077500
     23 H191       -1.3440   -1.8950   -1.2410 hc        1 IS2      0.072333
     24 H192        0.3260   -1.8390   -1.9360 hc        1 IS2      0.072333
     25 H193       -1.0810   -1.2480   -2.9150 hc        1 IS2      0.072333
     26 H112        0.9370    0.1650    4.6920 hn        1 IS2      0.224500
@<TRIPOS>BOND
     1    1    2 1   
     2    1    6 1   
     3    1   14 1   
     4    2    3 1   
     5    2   16 1   
     6    3    4 1   
     7    3   17 1   
     8    4    5 1   
     9    4    7 1   
    10    5    6 1   
    11    5   18 1   
    12    6   19 1   
    13    7    8 1   
    14    7   20 1   
    15    7   26 1   
    16    8    9 1   
    17   10   11 1   
    18   10   12 1   
    19   10   13 1   
    20   14   15 1   
    21   14   21 1   
    22   14   22 1   
    23   15   23 1   
    24   15   24 1   
    25   15   25 1   
@<TRIPOS>SUBSTRUCTURE
     1 IS2         1 TEMP              0 ****  ****    0 ROOT
