@<TRIPOS>MOLECULE
IS2
   25    24     1     0     0
SMALL
bcc


@<TRIPOS>ATOM
      1 C1         -0.0470   -0.0460    0.0060 ca        1 IS2     -0.241000
      2 C2          1.3270   -0.2890   -0.1500 ca        1 IS2     -0.083000
      3 C3          2.1740   -0.4020    0.9330 ca        1 IS2     -0.247500
      4 C4          1.6890   -0.2750    2.2750 ca        1 IS2      0.150000
      5 C5          0.2820   -0.0260    2.4100 ca        1 IS2     -0.247500
      6 C6         -0.5440    0.0830    1.3070 ca        1 IS2     -0.083000
      7 N11         2.4930   -0.3680    3.3730 nu        1 IS2     -0.322000
      8 C12         3.8850   -0.6590    3.5160 c1        1 IS2     -0.094000
      9 O13         4.5470   -0.9290    2.4950 o         1 IS2     -0.465000
     10 P14         3.9710   -0.2900    5.7680 p3        1 IS2      2.509000
     11 O15         5.1470   -1.0970    6.1810 o         1 IS2     -1.190667
     12 O16         4.1030    1.1870    5.6860 o         1 IS2     -1.190667
     13 O17         2.6190   -0.8210    6.1170 o         1 IS2     -1.190667
     14 C18        -0.9340    0.0800   -1.1750 c3        1 IS2     -0.078000
     15 C19        -1.2220   -1.2540   -1.8260 c3        1 IS2     -0.203000
     16 H2          1.7350   -0.3920   -1.1670 ha        1 IS2      0.083500
     17 H3          3.2490   -0.5940    0.7810 ha        1 IS2      0.143000
     18 H5         -0.1430    0.0810    3.4180 ha        1 IS2      0.143000
     19 H6         -1.6170    0.2760    1.4560 ha        1 IS2      0.083500
     20 H11         2.0150   -0.2770    4.2580 hn        1 IS2      0.254000
     21 H181       -1.9070    0.5570   -0.8760 hc        1 IS2      0.051000
     22 H182       -0.4570    0.7570   -1.9340 hc        1 IS2      0.051000
     23 H191       -1.8670   -1.1220   -2.7280 hc        1 IS2      0.056667
     24 H192       -0.2690   -1.7450   -2.1370 hc        1 IS2      0.056667
     25 H193       -1.7460   -1.9330   -1.1110 hc        1 IS2      0.056667
@<TRIPOS>BOND
     1    1    2 1   
     2    1    6 1   
     3    1   14 1   
     4    2    3 1   
     5    2   16 1   
     6    3    4 1   
     7    3   17 1   
     8    4    5 1   
     9    4    7 1   
    10    5    6 1   
    11    5   18 1   
    12    6   19 1   
    13    7    8 1   
    14    7   20 1   
    15    8    9 1   
    16   10   11 1   
    17   10   12 1   
    18   10   13 1   
    19   14   15 1   
    20   14   21 1   
    21   14   22 1   
    22   15   23 1   
    23   15   24 1   
    24   15   25 1   
@<TRIPOS>SUBSTRUCTURE
     1 IS2         1 TEMP              0 ****  ****    0 ROOT
