@<TRIPOS>MOLECULE
IS3
   26    25     1     0     0
SMALL
bcc


@<TRIPOS>ATOM
      1 O           1.2140   -0.1480   -0.1890 os        1 IS3     -0.817800
      2 C1          3.6660    1.6820    0.0740 c3        1 IS3      0.207400
      3 O1          2.5890    1.6380    0.9540 os        1 IS3     -0.588200
      4 P1          1.9390    0.1450    1.2630 p5        1 IS3      1.585800
      5 C2          3.3790    2.6650   -1.0570 c3        1 IS3     -0.105400
      6 O2          0.9030    0.3510    2.2890 o         1 IS3     -0.867500
      7 P2          0.5750   -0.4950   -1.6200 p5        1 IS3      1.478800
      8 C3          4.4770    2.6600   -2.1090 c3        1 IS3     -0.053700
      9 O3          3.0920   -0.7660    1.3990 o         1 IS3     -0.867500
     10 C4          4.4730    1.3590   -2.8870 c3        1 IS3     -0.096600
     11 O4          0.1780   -1.9040   -1.6970 o         1 IS3     -0.827500
     12 C5          4.2950    3.8340   -3.0500 c3        1 IS3     -0.096600
     13 O5          1.3520    0.1680   -2.6770 o         1 IS3     -0.827500
     14 S6         -1.3580    0.6960   -1.4110 sh        1 IS3     -0.773200
     15 H1          3.8750    0.6550   -0.3370 h1        1 IS3      0.011200
     16 H1A         4.5800    2.0370    0.6350 h1        1 IS3      0.011200
     17 H2          3.2740    3.6940   -0.6250 hc        1 IS3      0.053200
     18 H2A         2.4010    2.3980   -1.5390 hc        1 IS3      0.053200
     19 H4          3.4210    1.0620   -3.1490 hc        1 IS3      0.031200
     20 H4A         5.0750    1.4590   -3.8220 hc        1 IS3      0.031200
     21 H4B         4.9140    0.5400   -2.2700 hc        1 IS3      0.031200
     22 H5          4.3090    4.7970   -2.4840 hc        1 IS3      0.031200
     23 H5A         3.3160    3.7480   -3.5810 hc        1 IS3      0.031200
     24 H11         5.4730    2.7740   -1.5930 hc        1 IS3      0.009700
     25 H12         5.1120    3.8600   -3.8110 hc        1 IS3      0.031200
     26 H14        -1.2980    0.9100   -0.1040 hs        1 IS3      0.323800
@<TRIPOS>BOND
     1    1    4 1   
     2    1    7 1   
     3    2    3 1   
     4    2    5 1   
     5    2   15 1   
     6    2   16 1   
     7    3    4 1   
     8    4    6 1   
     9    4    9 1   
    10    5    8 1   
    11    5   17 1   
    12    5   18 1   
    13    7   11 1   
    14    7   13 1   
    15    7   14 1   
    16    8   10 1   
    17    8   12 1   
    18    8   24 1   
    19   10   19 1   
    20   10   20 1   
    21   10   21 1   
    22   12   22 1   
    23   12   23 1   
    24   12   25 1   
    25   14   26 1   
@<TRIPOS>SUBSTRUCTURE
     1 IS3         1 TEMP              0 ****  ****    0 ROOT
