@<TRIPOS>MOLECULE
IS3
   26    25     1     0     0
SMALL
bcc


@<TRIPOS>ATOM
      1 O           1.2170   -0.1500   -0.1880 os        1 IS3     -0.817800
      2 C1          3.6790    1.6660    0.0680 c3        1 IS3      0.207400
      3 O1          2.6110    1.6180    0.9580 os        1 IS3     -0.588200
      4 P1          1.9570    0.1260    1.2590 p5        1 IS3      1.585800
      5 C2          3.3860    2.6610   -1.0510 c3        1 IS3     -0.105400
      6 O2          0.9310    0.3280    2.2960 o         1 IS3     -0.867500
      7 P2          0.5620   -0.4810   -1.6170 p5        1 IS3      1.478800
      8 C3          4.4750    2.6600   -2.1130 c3        1 IS3     -0.053700
      9 O3          3.1060   -0.7920    1.3760 o         1 IS3     -0.867500
     10 C4          4.4570    1.3670   -2.9030 c3        1 IS3     -0.096600
     11 O4          0.1570   -1.8870   -1.7020 o         1 IS3     -0.827500
     12 C5          4.2880    3.8440   -3.0420 c3        1 IS3     -0.096600
     13 O5          1.3330    0.1870   -2.6750 o         1 IS3     -0.827500
     14 S6         -1.3620    0.7180   -1.3790 sh        1 IS3     -0.773200
     15 H1          3.8800    0.6410   -0.3550 h1        1 IS3      0.011200
     16 H1A         4.6010    2.0100    0.6240 h1        1 IS3      0.011200
     17 H2          3.2900    3.6860   -0.6090 hc        1 IS3      0.053200
     18 H2A         2.4020    2.4030   -1.5260 hc        1 IS3      0.053200
     19 H4          3.4020    1.0760   -3.1580 hc        1 IS3      0.031200
     20 H4A         5.0510    1.4720   -3.8430 hc        1 IS3      0.031200
     21 H4B         4.9010    0.5400   -2.2980 hc        1 IS3      0.031200
     22 H5          4.3120    4.8010   -2.4680 hc        1 IS3      0.031200
     23 H5A         3.3040    3.7670   -3.5640 hc        1 IS3      0.031200
     24 H11         5.4760    2.7650   -1.6060 hc        1 IS3      0.009700
     25 H12         5.0980    3.8730   -3.8110 hc        1 IS3      0.031200
     26 H14        -1.2890    0.9200   -0.0710 hs        1 IS3      0.323800
@<TRIPOS>BOND
     1    1    4 1   
     2    1    7 1   
     3    2    3 1   
     4    2    5 1   
     5    2   15 1   
     6    2   16 1   
     7    3    4 1   
     8    4    6 1   
     9    4    9 1   
    10    5    8 1   
    11    5   17 1   
    12    5   18 1   
    13    7   11 1   
    14    7   13 1   
    15    7   14 1   
    16    8   10 1   
    17    8   12 1   
    18    8   24 1   
    19   10   19 1   
    20   10   20 1   
    21   10   21 1   
    22   12   22 1   
    23   12   23 1   
    24   12   25 1   
    25   14   26 1   
@<TRIPOS>SUBSTRUCTURE
     1 IS3         1 TEMP              0 ****  ****    0 ROOT
