@<TRIPOS>MOLECULE
IS3
   26    25     1     0     0
SMALL
bcc


@<TRIPOS>ATOM
      1 O           0.3070    0.5820   -0.0750 os        1 IS3     -0.817800
      2 C1         -2.5180    0.7720    1.1120 c3        1 IS3      0.207400
      3 O1         -1.3410    0.6300    1.8400 os        1 IS3     -0.588200
      4 P1         -0.0160    1.4560    1.2850 p5        1 IS3      1.585800
      5 C2         -3.0590   -0.5980    0.7160 c3        1 IS3     -0.105400
      6 O2          1.0530    1.2300    2.2720 o         1 IS3     -0.867500
      7 P2          0.5900   -0.2000   -1.4490 p5        1 IS3      1.478800
      8 C3         -4.2820   -0.4900   -0.1820 c3        1 IS3     -0.053700
      9 O3         -0.5200    2.7810    0.8760 o         1 IS3     -0.867500
     10 C4         -3.9010    0.0450   -1.5480 c3        1 IS3     -0.096600
     11 O4          1.5530    0.5260   -2.2840 o         1 IS3     -0.827500
     12 C5         -4.9440   -1.8470   -0.3160 c3        1 IS3     -0.096600
     13 O5         -0.6740   -0.7320   -1.9780 o         1 IS3     -0.827500
     14 S6          1.7180   -1.9820   -0.5850 sh        1 IS3     -0.773200
     15 H1         -3.2860    1.2890    1.7600 h1        1 IS3      0.011200
     16 H1A        -2.3370    1.4060    0.1990 h1        1 IS3      0.011200
     17 H2         -2.2550   -1.1730    0.1840 hc        1 IS3      0.053200
     18 H2A        -3.3220   -1.1660    1.6460 hc        1 IS3      0.053200
     19 H4         -4.7230   -0.1360   -2.2840 hc        1 IS3      0.031200
     20 H4A        -3.7140    1.1440   -1.4940 hc        1 IS3      0.031200
     21 H4B        -2.9580   -0.4460   -1.9130 hc        1 IS3      0.031200
     22 H5         -5.2370   -2.2420    0.6860 hc        1 IS3      0.031200
     23 H5A        -5.8600   -1.7780   -0.9500 hc        1 IS3      0.031200
     24 H11        -5.0200    0.2160    0.2940 hc        1 IS3      0.009700
     25 H12        -4.2370   -2.5710   -0.7900 hc        1 IS3      0.031200
     26 H14         1.9460   -1.4840    0.6220 hs        1 IS3      0.323800
@<TRIPOS>BOND
     1    1    4 1   
     2    1    7 1   
     3    2    3 1   
     4    2    5 1   
     5    2   15 1   
     6    2   16 1   
     7    3    4 1   
     8    4    6 1   
     9    4    9 1   
    10    5    8 1   
    11    5   17 1   
    12    5   18 1   
    13    7   11 1   
    14    7   13 1   
    15    7   14 1   
    16    8   10 1   
    17    8   12 1   
    18    8   24 1   
    19   10   19 1   
    20   10   20 1   
    21   10   21 1   
    22   12   22 1   
    23   12   23 1   
    24   12   25 1   
    25   14   26 1   
@<TRIPOS>SUBSTRUCTURE
     1 IS3         1 TEMP              0 ****  ****    0 ROOT
