@<TRIPOS>MOLECULE
IS3
   26    25     1     0     0
SMALL
bcc


@<TRIPOS>ATOM
      1 O          -3.0000    1.5540    0.9510 os        1 IS3     -0.807800
      2 C1          0.4970    0.1070    0.0370 c3        1 IS3      0.179400
      3 O1         -0.8920    0.2640    0.2060 os        1 IS3     -0.569200
      4 P1         -1.4190    1.5540    0.9510 p5        1 IS3      1.593800
      5 C2          0.7740   -1.2020   -0.6700 c3        1 IS3     -0.083400
      6 O2         -0.9160    1.5540    2.3750 o         1 IS3     -0.878000
      7 P2         -3.8750    2.6410    1.6940 p5        1 IS3      1.480800
      8 C3          2.2660   -1.3620   -0.8680 c3        1 IS3     -0.069700
      9 O3         -0.9160    2.7870    0.2390 o         1 IS3     -0.878000
     10 C4          2.7370   -2.6130   -0.1580 c3        1 IS3     -0.085100
     11 O4         -3.7350    2.4650    3.1870 o         1 IS3     -0.822000
     12 C5          2.5690   -1.4770   -2.3450 c3        1 IS3     -0.085100
     13 O5         -3.4040    4.0210    1.3020 o         1 IS3     -0.822000
     14 S6         -5.8610    2.4120    1.1560 sh        1 IS3     -0.772200
     15 H1          0.9330    0.1040    0.9100 h1        1 IS3      0.015700
     16 H1A         0.8450    0.8450   -0.4980 h1        1 IS3      0.015700
     17 H2          0.3290   -1.2040   -1.5380 hc        1 IS3      0.043700
     18 H2A         0.4370   -1.9410   -0.1290 hc        1 IS3      0.043700
     19 H4          2.5430   -2.5390    0.7960 hc        1 IS3      0.022533
     20 H4A         3.6990   -2.7170   -0.2870 hc        1 IS3      0.022533
     21 H4B         2.2740   -3.3900   -0.5250 hc        1 IS3      0.022533
     22 H5          3.5310   -1.5820   -2.4730 hc        1 IS3      0.022533
     23 H5A         2.2660   -0.6690   -2.8030 hc        1 IS3      0.022533
     24 H11         2.7280   -0.5860   -0.5000 hc        1 IS3      0.042700
     25 H12         2.1050   -2.2520   -2.7140 hc        1 IS3      0.022533
     26 H14        -6.5130    3.2240    1.7060 hs        1 IS3      0.320800
@<TRIPOS>BOND
     1    1    4 1   
     2    1    7 1   
     3    2    3 1   
     4    2    5 1   
     5    2   15 1   
     6    2   16 1   
     7    3    4 1   
     8    4    6 1   
     9    4    9 1   
    10    5    8 1   
    11    5   17 1   
    12    5   18 1   
    13    7   11 1   
    14    7   13 1   
    15    7   14 1   
    16    8   10 1   
    17    8   12 1   
    18    8   24 1   
    19   10   19 1   
    20   10   20 1   
    21   10   21 1   
    22   12   22 1   
    23   12   23 1   
    24   12   25 1   
    25   14   26 1   
@<TRIPOS>SUBSTRUCTURE
     1 IS3         1 TEMP              0 ****  ****    0 ROOT
