@<TRIPOS>MOLECULE
ISA
   21    21     1     0     0
SMALL
bcc


@<TRIPOS>ATOM
      1 I           0.0730    0.5920   -0.3930 i         1 ISA     -0.194900
      2 CZ          2.0530    0.2890   -0.1050 ca        1 ISA      0.007900
      3 CE1         2.5500    0.0870    1.1820 ca        1 ISA     -0.104000
      4 CD1         3.9140   -0.1170    1.3810 ca        1 ISA     -0.134500
      5 CE2         2.9260    0.2810   -1.1950 ca        1 ISA     -0.104000
      6 CD2         4.2890    0.0780   -0.9950 ca        1 ISA     -0.134500
      7 CG          4.7990   -0.1200    0.2960 ca        1 ISA     -0.021300
      8 C4          6.2630   -0.3080    0.4970 c3        1 ISA     -0.038100
      9 C3          6.7780   -1.6170   -0.0620 c3        1 ISA     -0.058600
     10 S3          6.5620   -2.9130    1.1530 sh        1 ISA     -0.533900
     11 C2          8.2380   -1.4400   -0.5690 c         1 ISA      0.916600
     12 O3          8.4370   -0.4860   -1.3700 o         1 ISA     -0.823300
     13 O2          9.1240   -2.2480   -0.1800 o         1 ISA     -0.823300
     14 HE1         1.8710    0.0820    2.0480 ha        1 ISA      0.129000
     15 HD1         4.3000   -0.2880    2.3970 ha        1 ISA      0.148000
     16 HE2         2.5460    0.4340   -2.2160 ha        1 ISA      0.129000
     17 HD2         4.9820    0.0690   -1.8520 ha        1 ISA      0.148000
     18 H41         6.5140   -0.2420    1.5890 hc        1 ISA      0.072200
     19 H42         6.8040    0.5310   -0.0310 hc        1 ISA      0.072200
     20 H3          6.1740   -1.9210   -0.9530 h1        1 ISA      0.064700
     21 HS3         7.8300   -3.3530    1.1860 hs        1 ISA      0.282800
@<TRIPOS>BOND
     1    1    2 1   
     2    2    3 ar  
     3    2    5 ar  
     4    3    4 ar  
     5    3   14 1   
     6    4    7 ar  
     7    4   15 1   
     8    5    6 ar  
     9    5   16 1   
    10    6    7 ar  
    11    6   17 1   
    12    7    8 1   
    13    8    9 1   
    14    8   18 1   
    15    8   19 1   
    16    9   10 1   
    17    9   11 1   
    18    9   20 1   
    19   10   21 1   
    20   11   12 1   
    21   11   13 1   
@<TRIPOS>SUBSTRUCTURE
     1 ISA         1 TEMP              0 ****  ****    0 ROOT
