@<TRIPOS>MOLECULE
ISA
   21    21     1     0     0
SMALL
bcc


@<TRIPOS>ATOM
      1 I           0.0590    0.4980   -0.4590 i         1 ISA     -0.194900
      2 CZ          2.0430    0.2390   -0.1570 ca        1 ISA      0.007900
      3 CE1         2.5440    0.1290    1.1400 ca        1 ISA     -0.104000
      4 CD1         3.9110   -0.0440    1.3480 ca        1 ISA     -0.134500
      5 CE2         2.9130    0.1680   -1.2450 ca        1 ISA     -0.104000
      6 CD2         4.2790   -0.0060   -1.0360 ca        1 ISA     -0.134500
      7 CG          4.7940   -0.1110    0.2640 ca        1 ISA     -0.021300
      8 C4          6.2600   -0.2670    0.4730 c3        1 ISA     -0.038100
      9 C3          6.7890   -1.6050    0.0020 c3        1 ISA     -0.058600
     10 S3          6.5910   -2.8180    1.3020 sh        1 ISA     -0.533900
     11 C2          8.2460   -1.4450   -0.5190 c         1 ISA      0.916600
     12 O3          8.4330   -0.5460   -1.3840 o         1 ISA     -0.823300
     13 O2          9.1420   -2.2150   -0.0790 o         1 ISA     -0.823300
     14 HE1         1.8670    0.1740    2.0060 ha        1 ISA      0.129000
     15 HD1         4.3000   -0.1420    2.3730 ha        1 ISA      0.148000
     16 HE2         2.5300    0.2470   -2.2740 ha        1 ISA      0.129000
     17 HD2         4.9710   -0.0650   -1.8930 ha        1 ISA      0.148000
     18 H41         6.7910    0.5400   -0.1120 hc        1 ISA      0.072200
     19 H42         6.5130   -0.1250    1.5580 hc        1 ISA      0.072200
     20 H3          6.1870   -1.9760   -0.8650 h1        1 ISA      0.064700
     21 HS3         7.8640   -3.2400    1.3620 hs        1 ISA      0.282800
@<TRIPOS>BOND
     1    1    2 1   
     2    2    3 ar  
     3    2    5 ar  
     4    3    4 ar  
     5    3   14 1   
     6    4    7 ar  
     7    4   15 1   
     8    5    6 ar  
     9    5   16 1   
    10    6    7 ar  
    11    6   17 1   
    12    7    8 1   
    13    8    9 1   
    14    8   18 1   
    15    8   19 1   
    16    9   10 1   
    17    9   11 1   
    18    9   20 1   
    19   10   21 1   
    20   11   12 1   
    21   11   13 1   
@<TRIPOS>SUBSTRUCTURE
     1 ISA         1 TEMP              0 ****  ****    0 ROOT
