@<TRIPOS>MOLECULE
ISA
   21    21     1     0     0
SMALL
bcc


@<TRIPOS>ATOM
      1 I           0.1230   -0.1860   -3.5030 i         1 ISA     -0.195900
      2 CZ          0.3220    0.0910   -1.5080 ca        1 ISA      0.008900
      3 CE1        -0.6820    0.7410   -0.7880 ca        1 ISA     -0.106500
      4 CD1        -0.5410    0.9380    0.5830 ca        1 ISA     -0.134500
      5 CE2         1.4610   -0.3690   -0.8490 ca        1 ISA     -0.106500
      6 CD2         1.6000   -0.1730    0.5240 ca        1 ISA     -0.134500
      7 CG          0.6040    0.4870    1.2550 ca        1 ISA     -0.028300
      8 C4          0.7700    0.7250    2.7160 c3        1 ISA     -0.036100
      9 C3         -0.1930   -0.0630    3.5760 c3        1 ISA     -0.054600
     10 S3         -1.8250    0.6750    3.5090 sh        1 ISA     -0.549900
     11 C2          0.3910   -0.2010    5.0120 c         1 ISA      0.917600
     12 O3         -0.3160    0.1480    5.9960 o         1 ISA     -0.822800
     13 O2          1.5550   -0.6780    5.0970 o         1 ISA     -0.822800
     14 HE1        -1.5910    1.0990   -1.2950 ha        1 ISA      0.129000
     15 HD1        -1.3390    1.4350    1.1640 ha        1 ISA      0.154500
     16 HE2         2.2550   -0.8910   -1.4030 ha        1 ISA      0.129000
     17 HD2         2.4980   -0.5450    1.0420 ha        1 ISA      0.154500
     18 H41         0.6400    1.8220    2.9210 hc        1 ISA      0.071200
     19 H42         1.8160    0.4420    3.0310 hc        1 ISA      0.071200
     20 H3         -0.3090   -1.1010    3.1770 h1        1 ISA      0.068700
     21 HS3        -2.0000    0.8690    4.8270 hs        1 ISA      0.286800
@<TRIPOS>BOND
     1    1    2 1   
     2    2    3 ar  
     3    2    5 ar  
     4    3    4 ar  
     5    3   14 1   
     6    4    7 ar  
     7    4   15 1   
     8    5    6 ar  
     9    5   16 1   
    10    6    7 ar  
    11    6   17 1   
    12    7    8 1   
    13    8    9 1   
    14    8   18 1   
    15    8   19 1   
    16    9   10 1   
    17    9   11 1   
    18    9   20 1   
    19   10   21 1   
    20   11   12 1   
    21   11   13 1   
@<TRIPOS>SUBSTRUCTURE
     1 ISA         1 TEMP              0 ****  ****    0 ROOT
