@<TRIPOS>MOLECULE
ISB
   13    12     1     0     0
SMALL
bcc


@<TRIPOS>ATOM
      1 CA         -0.0090    0.0420   -0.0330 c3        1 ISB     -0.193700
      2 C           1.5420    0.0180   -0.0370 c         1 ISB      0.914600
      3 O1          2.1600    0.9150    0.6040 o         1 ISB     -0.849800
      4 O2          2.1100   -0.9040   -0.6880 o         1 ISB     -0.849800
      5 CB1        -0.5160   -0.1120    1.3810 c3        1 ISB     -0.064100
      6 CB2        -0.5010    1.3300   -0.6480 c3        1 ISB     -0.064100
      7 HCA        -0.3700   -0.8240   -0.6500 hc        1 ISB      0.029700
      8 HB11       -1.6300   -0.0230    1.4220 hc        1 ISB      0.012700
      9 HB12       -0.2250   -1.1090    1.7880 hc        1 ISB      0.012700
     10 HB13       -0.0680    0.6790    2.0310 hc        1 ISB      0.012700
     11 HB21       -0.0510    2.2000   -0.1110 hc        1 ISB      0.012700
     12 HB22       -1.6150    1.4050   -0.5900 hc        1 ISB      0.012700
     13 HB23       -0.1980    1.3840   -1.7210 hc        1 ISB      0.012700
@<TRIPOS>BOND
     1    1    2 1   
     2    1    5 1   
     3    1    6 1   
     4    1    7 1   
     5    2    3 1   
     6    2    4 1   
     7    5    8 1   
     8    5    9 1   
     9    5   10 1   
    10    6   11 1   
    11    6   12 1   
    12    6   13 1   
@<TRIPOS>SUBSTRUCTURE
     1 ISB         1 TEMP              0 ****  ****    0 ROOT
