@<TRIPOS>MOLECULE
ISB
   13    12     1     0     0
SMALL
bcc


@<TRIPOS>ATOM
      1 CA         -0.2410   -0.3960    0.7290 c3        1 ISB     -0.193700
      2 C           0.1140   -0.0300   -0.7350 c         1 ISB      0.914600
      3 O1          0.5540    1.1300   -0.9770 o         1 ISB     -0.849800
      4 O2         -0.0560   -0.9190   -1.6170 o         1 ISB     -0.849800
      5 CB1         0.9910   -0.2900    1.5950 c3        1 ISB     -0.064100
      6 CB2        -1.3350    0.5150    1.2310 c3        1 ISB     -0.064100
      7 HCA        -0.6110   -1.4570    0.7410 hc        1 ISB      0.029700
      8 HB11        0.7470   -0.4760    2.6700 hc        1 ISB      0.012700
      9 HB12        1.7540   -1.0370    1.2700 hc        1 ISB      0.012700
     10 HB13        1.4340    0.7310    1.4970 hc        1 ISB      0.012700
     11 HB21       -1.0220    1.5810    1.1130 hc        1 ISB      0.012700
     12 HB22       -2.2700    0.3560    0.6410 hc        1 ISB      0.012700
     13 HB23       -1.5600    0.3220    2.3090 hc        1 ISB      0.012700
@<TRIPOS>BOND
     1    1    2 1   
     2    1    5 1   
     3    1    6 1   
     4    1    7 1   
     5    2    3 1   
     6    2    4 1   
     7    5    8 1   
     8    5    9 1   
     9    5   10 1   
    10    6   11 1   
    11    6   12 1   
    12    6   13 1   
@<TRIPOS>SUBSTRUCTURE
     1 ISB         1 TEMP              0 ****  ****    0 ROOT
