@<TRIPOS>MOLECULE
ISB
   13    12     1     0     0
SMALL
bcc


@<TRIPOS>ATOM
      1 CA         -0.0060    0.0700   -0.0680 c3        1 ISB     -0.193700
      2 C           1.5440    0.0370   -0.0500 c         1 ISB      0.914600
      3 O1          2.1550    0.8570    0.6950 o         1 ISB     -0.849800
      4 O2          2.1200   -0.8130   -0.7860 o         1 ISB     -0.849800
      5 CB1        -0.5390   -0.2290    1.3120 c3        1 ISB     -0.064100
      6 CB2        -0.4820    1.4180   -0.5520 c3        1 ISB     -0.064100
      7 HCA        -0.3600   -0.7240   -0.7800 hc        1 ISB      0.029700
      8 HB11       -1.6530   -0.1390    1.3440 hc        1 ISB      0.012700
      9 HB12       -0.2590   -1.2660    1.6170 hc        1 ISB      0.012700
     10 HB13       -0.0980    0.4860    2.0490 hc        1 ISB      0.012700
     11 HB21       -0.0380    2.2240    0.0820 hc        1 ISB      0.012700
     12 HB22       -1.5960    1.4940   -0.5050 hc        1 ISB      0.012700
     13 HB23       -0.1600    1.5840   -1.6080 hc        1 ISB      0.012700
@<TRIPOS>BOND
     1    1    2 1   
     2    1    5 1   
     3    1    6 1   
     4    1    7 1   
     5    2    3 1   
     6    2    4 1   
     7    5    8 1   
     8    5    9 1   
     9    5   10 1   
    10    6   11 1   
    11    6   12 1   
    12    6   13 1   
@<TRIPOS>SUBSTRUCTURE
     1 ISB         1 TEMP              0 ****  ****    0 ROOT
