@<TRIPOS>MOLECULE
ISB
   13    12     1     0     0
SMALL
bcc


@<TRIPOS>ATOM
      1 CA         -0.1020    0.0590    0.4270 c3        1 ISB     -0.193700
      2 C           1.4010   -0.0040    0.5820 c         1 ISB      0.914600
      3 O1          2.1320   -0.1770   -0.4290 o         1 ISB     -0.849800
      4 O2          1.9230    0.1170    1.7220 o         1 ISB     -0.849800
      5 CB1        -0.4690    1.2120   -0.4800 c3        1 ISB     -0.064100
      6 CB2        -0.6010   -1.2360   -0.1760 c3        1 ISB     -0.064100
      7 HCA        -0.5140    0.1890    1.3030 hc        1 ISB      0.029700
      8 HB11       -1.4400    1.3460   -0.4630 hc        1 ISB      0.012700
      9 HB12       -0.1820    1.0120   -1.3960 hc        1 ISB      0.012700
     10 HB13       -0.0220    2.0270   -0.1690 hc        1 ISB      0.012700
     11 HB21       -1.5790   -1.2680   -0.1190 hc        1 ISB      0.012700
     12 HB22       -0.3270   -1.2850   -1.1160 hc        1 ISB      0.012700
     13 HB23       -0.2200   -1.9940    0.3150 hc        1 ISB      0.012700
@<TRIPOS>BOND
     1    1    2 1   
     2    1    5 1   
     3    1    6 1   
     4    1    7 1   
     5    2    3 1   
     6    2    4 1   
     7    5    8 1   
     8    5    9 1   
     9    5   10 1   
    10    6   11 1   
    11    6   12 1   
    12    6   13 1   
@<TRIPOS>SUBSTRUCTURE
     1 ISB         1 TEMP              0 ****  ****    0 ROOT
