@<TRIPOS>MOLECULE
ISC
   24    20     1     0     0
SMALL
bcc


@<TRIPOS>ATOM
      1 C          -3.4450   -0.5910   -1.0340 c1        1 ISC      0.353000
      2 C1         -1.9340   -0.6380   -1.0350 c1        1 ISC     -0.162000
      3 O1         -4.0410    0.5080   -1.1910 o         1 ISC     -0.588500
      4 C2         -1.1790   -0.6120    0.2670 c3        1 ISC      0.085000
      5 O2         -4.1080   -1.6440   -0.8460 o         1 ISC     -0.588500
      6 C3          0.2920   -0.1040    0.1190 c3        1 ISC      0.052000
      7 O3         -1.9090    0.1560    1.2920 oh        1 ISC     -0.364000
      8 C4          1.0800   -0.8560   -0.9200 c2        1 ISC     -0.170000
      9 C5          0.3650   -1.2770   -2.2070 c1        1 ISC     -0.160000
     10 C6         -1.1810   -1.0660   -2.2990 c1        1 ISC     -0.142000
     11 C1'         1.5660    2.3480    1.6860 c1        1 ISC      0.347000
     12 O1'         0.9820    2.7280    2.7340 os        1 ISC     -0.557000
     13 C2'         1.9710    0.8980    1.5300 c2        1 ISC      0.037000
     14 O2'         1.7970    3.1690    0.7610 o         1 ISC     -0.576000
     15 C3'         3.2760    0.5620    1.4990 c1        1 ISC     -0.373000
     16 O3'         0.9870   -0.0980    1.4170 os        1 ISC     -0.231000
     17 H2         -1.1830   -1.5030    0.6700 h1        1 ISC      0.090000
     18 H3          0.2930    0.8510   -0.0920 h1        1 ISC      0.142000
     19 HO3        -2.4540   -0.3870    1.7370 ho        1 ISC      0.237000
     20 H4          2.0560   -0.8690   -0.8770 ha        1 ISC      0.166000
     21 H5          0.8810   -1.4610   -3.0140 ha        1 ISC      0.093000
     22 H6         -1.6130   -0.9960   -3.1710 ha        1 ISC      0.127000
     23 H3'         3.9620    1.2570    1.5780 DU        1 ISC      0.100000
     24 H3'A        3.5380   -0.3740    1.3980 ha        1 ISC      0.084000
@<TRIPOS>BOND
     1    1    3 1   
     2    1    5 1   
     3    2    4 1   
     4    2   10 1   
     5    4    6 1   
     6    4    7 1   
     7    4   17 1   
     8    6    8 1   
     9    6   16 1   
    10    6   18 1   
    11    7   19 1   
    12    8    9 1   
    13    8   20 1   
    14    9   21 1   
    15   10   22 1   
    16   11   13 1   
    17   11   14 1   
    18   13   15 1   
    19   13   16 1   
    20   15   24 1   
@<TRIPOS>SUBSTRUCTURE
     1 ISC         1 TEMP              0 ****  ****    0 ROOT
