@<TRIPOS>MOLECULE
ISC
   24    24     1     0     0
SMALL
bcc


@<TRIPOS>ATOM
      1 C           3.5890    0.4060    0.2260 c         1 ISC      0.903800
      2 C1          2.2720   -0.1770   -0.2540 ce        1 ISC     -0.171400
      3 O1          4.5930    0.3500   -0.5410 o         1 ISC     -0.848300
      4 C2          1.0680   -0.0210    0.6300 c3        1 ISC      0.202300
      5 O2          3.6440    0.9290    1.3820 o         1 ISC     -0.848300
      6 C3         -0.1810   -0.8240    0.1880 c3        1 ISC      0.159300
      7 O3          1.3280   -0.4700    1.9570 oh        1 ISC     -0.639800
      8 C4         -0.1570   -1.3020   -1.2250 c2        1 ISC     -0.186200
      9 C5          0.9560   -1.2990   -1.9730 cf        1 ISC     -0.142000
     10 C6          2.1970   -0.7630   -1.4640 cf        1 ISC     -0.157000
     11 C1'        -3.6710    0.5320    0.5220 c         1 ISC      0.929800
     12 O1'        -4.1280    0.8190    1.6620 o         1 ISC     -0.828300
     13 O2'        -4.1070    1.0010   -0.5640 o         1 ISC     -0.828300
     14 C3'        -2.8210   -1.8360    0.4150 c2        1 ISC     -0.420000
     15 O3'        -1.3060    0.0560    0.3920 os        1 ISC     -0.306900
     16 H2          0.8050    1.0780    0.6630 h1        1 ISC      0.062700
     17 H3         -0.2800   -1.7170    0.8740 h1        1 ISC      0.062700
     18 HO3         2.1100    0.0150    2.2650 ho        1 ISC      0.443000
     19 H4         -1.1250   -1.6620   -1.6050 ha        1 ISC      0.129000
     20 H5          0.9570   -1.6880   -3.0020 ha        1 ISC      0.093000
     21 H6          3.0930   -0.8250   -2.1010 ha        1 ISC      0.133000
     22 H3'        -2.0670   -2.6230    0.3340 ha        1 ISC      0.093500
     23 H3'A       -3.8570   -2.1800    0.4830 ha        1 ISC      0.093500
     24 C2'        -2.5520   -0.5200    0.4410 ce        1 ISC      0.071900
@<TRIPOS>BOND
     1    1    2 1   
     2    1    3 1   
     3    1    5 1   
     4    2    4 1   
     5    2   10 2   
     6    4    6 1   
     7    4    7 1   
     8    4   16 1   
     9    6    8 1   
    10    6   15 1   
    11    6   17 1   
    12    7   18 1   
    13    8    9 2   
    14    8   19 1   
    15    9   10 1   
    16    9   20 1   
    17   10   21 1   
    18   11   12 1   
    19   11   13 1   
    20   11   24 1   
    21   14   22 1   
    22   14   23 1   
    23   14   24 2   
    24   15   24 1   
@<TRIPOS>SUBSTRUCTURE
     1 ISC         1 TEMP              0 ****  ****    0 ROOT
