@<TRIPOS>MOLECULE
ISC
   24    21     1     0     0
SMALL
bcc


@<TRIPOS>ATOM
      1 C       -1492.2470    0.8310 -448.7490 c2        1 ISC      0.380000
      2 C1      -1493.7130    0.5720 -448.3870 c2        1 ISC     -0.181000
      3 O1      -1491.4680    0.2770 -447.8670 o         1 ISC     -0.564500
      4 C2      -1494.5300    0.0910 -449.3500 c1        1 ISC     -0.004000
      5 O2      -1491.9050    0.5730 -449.9400 o         1 ISC     -0.564500
      6 C3       1268.9100-1390.2770  379.8600 c2        1 ISC     -0.001000
      7 O3      -1495.8660    0.7990 -449.2120 oh        1 ISC     -0.297000
      8 C4       1267.6880-1389.8320  379.5420 c2        1 ISC     -0.336000
      9 C5      -1494.5310    0.0680 -445.9660 c1        1 ISC     -0.320000
     10 C6      -1494.1560    0.8390 -447.0820 c1        1 ISC     -0.037000
     11 C1'      1270.5760-1393.4020  380.7920 c2        1 ISC      0.382000
     12 O1'      1271.1690-1393.7420  379.7360 o         1 ISC     -0.542000
     13 O2'      1270.2700-1394.1580  381.7480 o         1 ISC     -0.542000
     14 C3'      1270.9530-1391.0260  381.6460 c2        1 ISC     -0.372000
     15 O3'      1269.0600-1391.5900  380.2630 os        1 ISC     -0.155000
     16 H2       1269.8300-1389.6780  379.7790 h4        1 ISC      0.124000
     17 H3      -1494.1850    0.8800 -450.3770 DU        1 ISC      0.187000
     18 HO3     -1496.1300    0.9960 -448.3030 ho        1 ISC      0.202000
     19 H4       1267.5400-1388.8200  379.1530 ha        1 ISC      0.109500
     20 H5       1266.7920-1390.4540  379.6380 ha        1 ISC      0.109500
     21 H6      -1494.8270    0.2810 -444.9750 ha        1 ISC      0.198000
     22 H3'      1270.7070-1389.9640  381.7380 ha        1 ISC      0.102500
     23 H3'A     1271.8440-1391.3570  382.1890 ha        1 ISC      0.102500
     24 C2'      1270.2350-1391.9070  380.9380 c2        1 ISC      0.018000
@<TRIPOS>BOND
     1    1    2 1   
     2    1    3 1   
     3    1    5 1   
     4    2    4 1   
     5    2   10 1   
     6    4    7 1   
     7    6    8 1   
     8    6   15 1   
     9    6   16 1   
    10    7   18 1   
    11    8   19 1   
    12    8   20 1   
    13    9   10 1   
    14    9   21 1   
    15   11   12 1   
    16   11   13 1   
    17   11   24 1   
    18   14   22 1   
    19   14   23 1   
    20   14   24 1   
    21   15   24 1   
@<TRIPOS>SUBSTRUCTURE
     1 ISC         1 TEMP              0 ****  ****    0 ROOT
