@<TRIPOS>MOLECULE
ISC
   24    32     1     0     0
SMALL
bcc


@<TRIPOS>ATOM
      1 C           0.0000    0.0000    0.0000 c2        1 ISC      0.433000
      2 C1          1.4180    0.0000    0.0000 c2        1 ISC     -0.146000
      3 O1         -0.6080   -0.0000   -1.0530 o         1 ISC     -0.610000
      4 C2          2.1720    0.0000    1.3030 DU        1 ISC      0.278000
      5 O2         -0.6740   -0.0060    1.1690 o         1 ISC     -0.610000
      6 C3          3.4530   -0.8220    1.1620 DU        1 ISC     -0.685000
      7 O3          2.5060    1.3430    1.6590 oh        1 ISC     -0.292000
      8 C4          4.2120   -0.3880   -0.0620 c3        1 ISC     -0.250000
      9 C5          3.5580   -0.0020   -1.1600 c3        1 ISC     -0.308000
     10 C6          2.0950   -0.0060   -1.1720 c2        1 ISC     -0.361000
     11 C1'         3.7570   -4.5440    1.4340 c2        1 ISC      0.435000
     12 O1'         4.7040   -5.4350    1.7940 o         1 ISC     -0.601000
     13 O2'         2.6460   -4.9280    1.1290 o         1 ISC     -0.601000
     14 C3'         5.2930   -2.6820    1.7460 c2        1 ISC     -0.411000
     15 O3'         3.1180   -2.2060    1.0470 os        1 ISC     -0.143000
     16 H2          2.6990   -0.9460    1.3460 DU        1 ISC      0.260000
     17 H3          2.4920   -0.6290    1.6250 DU        1 ISC      0.260000
     18 HO3         3.0800    0.6080    1.7990 DU        1 ISC      0.257000
     19 H4          3.6530    0.1550    0.6910 DU        1 ISC      0.267000
     20 H5          4.4570   -0.1980   -0.5880 DU        1 ISC      0.159000
     21 H6          3.0790    0.1060   -1.6110 DU        1 ISC      0.292000
     22 H3'         4.6120   -2.2180    1.0420 DU        1 ISC      0.228000
     23 H3'A        6.2210   -3.1330    2.0760 ha        1 ISC      0.165000
     24 C2'         4.0720   -3.1040    1.4100 c3        1 ISC     -0.015000
@<TRIPOS>BOND
     1    1    2 1   
     2    1    3 1   
     3    1    5 1   
     4    2    4 1   
     5    2   10 1   
     6    4    6 1   
     7    4    7 1   
     8    4   16 1   
     9    4   17 1   
    10    4   18 1   
    11    6    8 1   
    12    6   15 1   
    13    6   16 1   
    14    6   17 1   
    15    6   19 1   
    16    7   18 1   
    17    8    9 1   
    18    8   19 1   
    19    8   20 1   
    20    9   10 1   
    21    9   20 1   
    22    9   21 1   
    23   10   21 1   
    24   11   12 1   
    25   11   13 1   
    26   11   24 1   
    27   14   22 1   
    28   14   23 1   
    29   14   24 1   
    30   15   24 1   
    31   16   17 1   
    32   22   24 1   
@<TRIPOS>SUBSTRUCTURE
     1 ISC         1 TEMP              0 ****  ****    0 ROOT
