@<TRIPOS>MOLECULE
ISD
   20    18     1     0     0
SMALL
bcc


@<TRIPOS>ATOM
      1 O6         -3.1010    2.0800   -0.0120 o         1 ISD     -0.282000
      2 C5         -2.0250    1.4780    0.1180 c1        1 ISD      0.327000
      3 C4         -1.1920    1.5090    1.2470 c1        1 ISD     -0.153000
      4 O8         -1.7530    1.4020    2.5390 oh        1 ISD     -0.228000
      5 C3          0.0310    1.0790    1.0290 c1        1 ISD      0.019000
      6 O7          0.8130    0.6090    2.1070 o         1 ISD     -0.205000
      7 O1         -1.1010    0.9980   -1.0280 os        1 ISD     -0.241000
      8 C2          0.2620    0.5740   -0.3010 c3        1 ISD      0.065000
      9 C9          0.5670   -0.8690   -0.3600 c3        1 ISD      0.036000
     10 O11         1.7550   -1.1290    0.3710 oh        1 ISD     -0.328000
     11 C13         0.7610   -1.2880   -1.8120 c3        1 ISD     -0.055000
     12 O14         0.7370   -2.7250   -1.9020 oh        1 ISD     -0.342000
     13 HO8        -2.0060    2.2090    2.8210 ho        1 ISD      0.244000
     14 HO7         1.2430    1.2870    2.4770 ho        1 ISD      0.247000
     15 H2          1.0780    0.9810   -0.7380 h1        1 ISD      0.166000
     16 H9         -0.1900   -1.3880    0.0390 h1        1 ISD      0.111000
     17 HO11        1.7400   -1.9610    0.6760 ho        1 ISD      0.228000
     18 H131        1.6300   -0.9510   -2.1400 h1        1 ISD      0.089000
     19 H132        0.0480   -0.9190   -2.3520 h1        1 ISD      0.089000
     20 HO14        0.7050   -2.9760   -2.7790 ho        1 ISD      0.213000
@<TRIPOS>BOND
     1    1    2 1   
     2    2    7 1   
     3    3    4 1   
     4    3    5 1   
     5    4   13 1   
     6    5    8 1   
     7    6   14 1   
     8    7    8 1   
     9    8    9 1   
    10    8   15 1   
    11    9   10 1   
    12    9   11 1   
    13    9   16 1   
    14   10   17 1   
    15   11   12 1   
    16   11   18 1   
    17   11   19 1   
    18   12   20 1   
@<TRIPOS>SUBSTRUCTURE
     1 ISD         1 TEMP              0 ****  ****    0 ROOT
