@<TRIPOS>MOLECULE
ISD
   20    20     1     0     0
SMALL
bcc


@<TRIPOS>ATOM
      1 O6          2.8400   -1.5560   -1.0060 o         1 ISD     -0.554500
      2 C5          1.9400   -0.9280   -0.4670 c         1 ISD      0.719800
      3 C4          1.8250    0.4640    0.0240 ce        1 ISD     -0.104100
      4 O8          2.7950    1.4210   -0.0270 oh        1 ISD     -0.474100
      5 C3          0.5760    0.6260    0.5450 c2        1 ISD      0.047900
      6 O7         -0.0290    1.7030    1.1010 oh        1 ISD     -0.468100
      7 O1          0.7430   -1.5910   -0.2190 os        1 ISD     -0.395900
      8 C2         -0.1880   -0.6790    0.4400 c3        1 ISD      0.147300
      9 C9         -1.4780   -0.5990   -0.3890 c3        1 ISD      0.148100
     10 O11        -1.3580    0.3150   -1.4550 oh        1 ISD     -0.566800
     11 C13        -2.6320   -0.2440    0.5580 c3        1 ISD      0.089400
     12 O14        -3.7240    0.1370   -0.2580 oh        1 ISD     -0.586800
     13 HO8         3.5300    1.0440   -0.5410 ho        1 ISD      0.447000
     14 HO7         0.6080    2.4380    1.0800 ho        1 ISD      0.449000
     15 H2         -0.3870   -1.1200    1.4530 h1        1 ISD      0.096700
     16 H9         -1.6560   -1.5950   -0.8890 h1        1 ISD      0.111700
     17 HO11       -1.5470    1.1970   -1.1070 ho        1 ISD      0.411000
     18 H131       -2.8980   -1.1330    1.1880 h1        1 ISD      0.038700
     19 H132       -2.3340    0.6130    1.2230 h1        1 ISD      0.038700
     20 HO14       -4.4660    0.3030    0.3370 ho        1 ISD      0.407000
@<TRIPOS>BOND
     1    1    2 2   
     2    2    3 1   
     3    2    7 1   
     4    3    4 1   
     5    3    5 2   
     6    4   13 1   
     7    5    6 1   
     8    5    8 1   
     9    6   14 1   
    10    7    8 1   
    11    8    9 1   
    12    8   15 1   
    13    9   10 1   
    14    9   11 1   
    15    9   16 1   
    16   10   17 1   
    17   11   12 1   
    18   11   18 1   
    19   11   19 1   
    20   12   20 1   
@<TRIPOS>SUBSTRUCTURE
     1 ISD         1 TEMP              0 ****  ****    0 ROOT
