@<TRIPOS>MOLECULE
ISD
   20    20     1     0     0
SMALL
bcc


@<TRIPOS>ATOM
      1 O6          0.5460    1.0400   -0.8140 o         1 ISD     -0.557500
      2 C5          1.6140    0.6560   -0.3600 c         1 ISD      0.711800
      3 C4          2.0340    0.1450    0.9620 ce        1 ISD     -0.128100
      4 O8          1.2280   -0.0470    2.0470 oh        1 ISD     -0.473100
      5 C3          3.3690   -0.1270    0.9080 c2        1 ISD      0.058900
      6 O7          4.2160   -0.6180    1.8390 oh        1 ISD     -0.450100
      7 O1          2.7200    0.6750   -1.2050 os        1 ISD     -0.402900
      8 C2          3.8980    0.2180   -0.4720 c3        1 ISD      0.180300
      9 C9          4.5620   -0.9660   -1.1830 c3        1 ISD      0.147100
     10 O11         5.6780   -0.4230   -1.8740 oh        1 ISD     -0.600800
     11 C13         3.6160   -1.6780   -2.1540 c3        1 ISD      0.095400
     12 O14         4.3780   -2.7260   -2.7340 oh        1 ISD     -0.614800
     13 HO8         0.3730    0.3620    1.8330 ho        1 ISD      0.445000
     14 HO7         3.7090   -0.7350    2.6620 ho        1 ISD      0.448000
     15 H2          4.6060    1.0920   -0.4370 h1        1 ISD      0.126700
     16 H9          4.9340   -1.6950   -0.4060 h1        1 ISD      0.071700
     17 HO11        6.0210   -1.1270   -2.4430 ho        1 ISD      0.429000
     18 H131        2.7370   -2.1000   -1.6010 h1        1 ISD      0.049700
     19 H132        3.2610   -0.9640   -2.9430 h1        1 ISD      0.049700
     20 HO14        3.8440   -3.0960   -3.4460 ho        1 ISD      0.414000
@<TRIPOS>BOND
     1    1    2 2   
     2    2    3 1   
     3    2    7 1   
     4    3    4 1   
     5    3    5 2   
     6    4   13 1   
     7    5    6 1   
     8    5    8 1   
     9    6   14 1   
    10    7    8 1   
    11    8    9 1   
    12    8   15 1   
    13    9   10 1   
    14    9   11 1   
    15    9   16 1   
    16   10   17 1   
    17   11   12 1   
    18   11   18 1   
    19   11   19 1   
    20   12   20 1   
@<TRIPOS>SUBSTRUCTURE
     1 ISD         1 TEMP              0 ****  ****    0 ROOT
