@<TRIPOS>MOLECULE
ISE
   22    22     1     0     0
SMALL
bcc


@<TRIPOS>ATOM
      1 C1         -0.0350    0.0300    0.0570 c3        1 ISE      0.008600
      2 O1         -0.5680   -0.1900   -1.2380 oh        1 ISE     -0.591300
      3 C2          1.4720    0.0820    0.0750 c         1 ISE      0.516100
      4 O2          2.1490    0.0950   -0.9560 o         1 ISE     -0.514100
      5 C3          2.0860    0.1160    1.4520 c3        1 ISE      0.008600
      6 O3          3.4990    0.1390    1.4410 oh        1 ISE     -0.591300
      7 C4          1.5930   -1.1020    2.2510 c3        1 ISE      0.120600
      8 O4          2.0520   -1.0310    3.5900 oh        1 ISE     -0.589300
      9 C5          0.0560   -1.1330    2.3340 c3        1 ISE      0.152100
     10 O5         -0.3460   -2.3490    2.9390 oh        1 ISE     -0.580800
     11 C6         -0.5830   -1.1170    0.9360 c3        1 ISE      0.120600
     12 O6         -1.9680   -0.9020    1.1350 oh        1 ISE     -0.589300
     13 H1         -0.4340    1.0160    0.4380 h1        1 ISE      0.099700
     14 HO1         0.0820    0.1140   -1.8880 ho        1 ISE      0.427500
     15 H3          1.7870    1.0670    1.9830 h1        1 ISE      0.099700
     16 HO3         3.8020   -0.3500    0.6620 ho        1 ISE      0.427500
     17 H4          1.9740   -2.0510    1.7790 h1        1 ISE      0.066200
     18 HO4         3.0050   -0.8660    3.5510 ho        1 ISE      0.425500
     19 H5         -0.3130   -0.2580    2.9380 h1        1 ISE      0.069700
     20 HO5         0.0060   -2.3340    3.8390 ho        1 ISE      0.423000
     21 H6         -0.4100   -2.1030    0.4220 h1        1 ISE      0.066200
     22 HO6        -2.3860   -1.0050    0.2690 ho        1 ISE      0.425500
@<TRIPOS>BOND
     1    1    2 1   
     2    1    3 1   
     3    1   11 1   
     4    1   13 1   
     5    2   14 1   
     6    3    4 2   
     7    3    5 1   
     8    5    6 1   
     9    5    7 1   
    10    5   15 1   
    11    6   16 1   
    12    7    8 1   
    13    7    9 1   
    14    7   17 1   
    15    8   18 1   
    16    9   10 1   
    17    9   11 1   
    18    9   19 1   
    19   10   20 1   
    20   11   12 1   
    21   11   21 1   
    22   12   22 1   
@<TRIPOS>SUBSTRUCTURE
     1 ISE         1 TEMP              0 ****  ****    0 ROOT
