@<TRIPOS>MOLECULE
ISE
   22    22     1     0     0
SMALL
bcc


@<TRIPOS>ATOM
      1 C1         -1.1910    0.8460    0.5490 c3        1 ISE      0.008600
      2 O1         -2.3160    1.6500    0.2600 oh        1 ISE     -0.591300
      3 C2          0.1220    1.4910    0.1850 c         1 ISE      0.516100
      4 O2          0.1950    2.6230   -0.3010 o         1 ISE     -0.514100
      5 C3          1.3390    0.6440    0.4590 c3        1 ISE      0.008600
      6 O3          2.5330    1.2010   -0.0660 oh        1 ISE     -0.591300
      7 C4          1.2190   -0.7610   -0.1730 c3        1 ISE      0.120600
      8 O4          2.2180   -1.5900    0.3920 oh        1 ISE     -0.589300
      9 C5         -0.1290   -1.4270    0.1480 c3        1 ISE      0.152100
     10 O5         -0.2040   -2.5800   -0.6730 oh        1 ISE     -0.580800
     11 C6         -1.3100   -0.4990   -0.1860 c3        1 ISE      0.120600
     12 O6         -2.4750   -1.1880    0.2340 oh        1 ISE     -0.589300
     13 H1         -1.2380    0.6750    1.6650 h1        1 ISE      0.099700
     14 HO1        -2.1100    2.1880   -0.5180 ho        1 ISE      0.427500
     15 H3          1.4630    0.5410    1.5770 h1        1 ISE      0.099700
     16 HO3         2.4090    2.1570   -0.1520 ho        1 ISE      0.427500
     17 H4          1.3560   -0.6860   -1.2880 h1        1 ISE      0.066200
     18 HO4         3.0670   -1.2340    0.0940 ho        1 ISE      0.425500
     19 H5         -0.1660   -1.7210    1.2330 h1        1 ISE      0.069700
     20 HO5        -1.0240   -3.0320   -0.4300 ho        1 ISE      0.423000
     21 H6         -1.3640   -0.3250   -1.2980 h1        1 ISE      0.066200
     22 HO6        -3.2110   -0.5640    0.1640 ho        1 ISE      0.425500
@<TRIPOS>BOND
     1    1    2 1   
     2    1    3 1   
     3    1   11 1   
     4    1   13 1   
     5    2   14 1   
     6    3    4 2   
     7    3    5 1   
     8    5    6 1   
     9    5    7 1   
    10    5   15 1   
    11    6   16 1   
    12    7    8 1   
    13    7    9 1   
    14    7   17 1   
    15    8   18 1   
    16    9   10 1   
    17    9   11 1   
    18    9   19 1   
    19   10   20 1   
    20   11   12 1   
    21   11   21 1   
    22   12   22 1   
@<TRIPOS>SUBSTRUCTURE
     1 ISE         1 TEMP              0 ****  ****    0 ROOT
