@<TRIPOS>MOLECULE
ISE
   22    22     1     0     0
SMALL
bcc


@<TRIPOS>ATOM
      1 C1         -0.0260    0.0350    0.0470 c3        1 ISE      0.008600
      2 O1         -0.5690   -0.1860   -1.2440 oh        1 ISE     -0.591300
      3 C2          1.4810    0.0640    0.0570 c         1 ISE      0.516100
      4 O2          2.1530    0.0590   -0.9780 o         1 ISE     -0.514100
      5 C3          2.1030    0.0980    1.4300 c3        1 ISE      0.008600
      6 O3          3.5160    0.1000    1.4120 oh        1 ISE     -0.591300
      7 C4          1.5960   -1.1060    2.2400 c3        1 ISE      0.120600
      8 O4          2.0620   -1.0320    3.5770 oh        1 ISE     -0.589300
      9 C5          0.0590   -1.1140    2.3310 c3        1 ISE      0.152100
     10 O5         -0.3580   -2.3200    2.9460 oh        1 ISE     -0.580800
     11 C6         -0.5870   -1.0990    0.9370 c3        1 ISE      0.120600
     12 O6         -1.9680   -0.8620    1.1400 oh        1 ISE     -0.589300
     13 H1         -0.4090    1.0290    0.4230 h1        1 ISE      0.099700
     14 HO1         0.0830    0.1010   -1.9000 ho        1 ISE      0.427500
     15 H3          1.8200    1.0570    1.9560 h1        1 ISE      0.099700
     16 HO3         3.8080   -0.3990    0.6350 ho        1 ISE      0.427500
     17 H4          1.9610   -2.0640    1.7730 h1        1 ISE      0.066200
     18 HO4         3.0180   -0.8820    3.5320 ho        1 ISE      0.425500
     19 H5         -0.2940   -0.2300    2.9310 h1        1 ISE      0.069700
     20 HO5        -0.0010   -2.3040    3.8450 ho        1 ISE      0.423000
     21 H6         -0.4310   -2.0900    0.4280 h1        1 ISE      0.066200
     22 HO6        -2.3920   -0.9650    0.2770 ho        1 ISE      0.425500
@<TRIPOS>BOND
     1    1    2 1   
     2    1    3 1   
     3    1   11 1   
     4    1   13 1   
     5    2   14 1   
     6    3    4 2   
     7    3    5 1   
     8    5    6 1   
     9    5    7 1   
    10    5   15 1   
    11    6   16 1   
    12    7    8 1   
    13    7    9 1   
    14    7   17 1   
    15    8   18 1   
    16    9   10 1   
    17    9   11 1   
    18    9   19 1   
    19   10   20 1   
    20   11   12 1   
    21   11   21 1   
    22   12   22 1   
@<TRIPOS>SUBSTRUCTURE
     1 ISE         1 TEMP              0 ****  ****    0 ROOT
