@<TRIPOS>MOLECULE
ISF
   29    30     1     0     0
SMALL
bcc


@<TRIPOS>ATOM
      1 S1          0.2160   -0.4740   -0.1640 ss        1 ISF      0.238200
      2 C2          1.7820    0.0470    0.0390 cc        1 ISF     -0.222700
      3 C3          2.1450    0.0270    1.3850 cd        1 ISF     -0.119000
      4 C4          1.0810   -0.4290    2.2040 cd        1 ISF     -0.137000
      5 C5         -0.0420   -0.7410    1.4460 cc        1 ISF     -0.090200
      6 I1         -1.7620   -1.4190    2.1750 i         1 ISF     -0.096900
      7 C6          2.6960    0.4410   -1.0400 c         1 ISF      0.628300
      8 O7          3.8900    0.6800   -0.7990 o         1 ISF     -0.554100
      9 C8          2.1380    0.4900   -2.4010 ca        1 ISF     -0.213600
     10 C9          2.9320    0.0740   -3.4770 ca        1 ISF     -0.101500
     11 C10         2.4240    0.0850   -4.7730 ca        1 ISF     -0.143000
     12 C11         1.1190    0.5290   -5.0270 ca        1 ISF      0.022700
     13 C12         0.3300    0.9590   -3.9450 ca        1 ISF     -0.143000
     14 C13         0.8320    0.9400   -2.6510 ca        1 ISF     -0.101500
     15 C14         0.5750    0.5510   -6.4110 c3        1 ISF     -0.179400
     16 C15         0.4340    1.9700   -6.9180 c3        1 ISF     -0.061100
     17 C16        -0.8220   -0.1490   -6.4840 c         1 ISF      0.923600
     18 O17        -1.7910    0.3890   -5.8790 o         1 ISF     -0.829300
     19 O18        -0.8920   -1.2040   -7.1670 o         1 ISF     -0.829300
     20 H3          3.1290    0.3240    1.7540 ha        1 ISF      0.166000
     21 H4          1.1540   -0.5180    3.2900 ha        1 ISF      0.152000
     22 H9          3.9620   -0.2640   -3.2850 ha        1 ISF      0.124000
     23 H10         3.0510   -0.2640   -5.6070 ha        1 ISF      0.161500
     24 H12        -0.7120    1.2730   -4.1570 ha        1 ISF      0.161500
     25 H13         0.2030    1.3050   -1.8240 ha        1 ISF      0.124000
     26 H14         1.2670   -0.0180   -7.0910 hc        1 ISF      0.049700
     27 H151        0.0960    1.9520   -7.9820 hc        1 ISF      0.023367
     28 H152       -0.3320    2.5130   -6.3140 hc        1 ISF      0.023367
     29 H153        1.4040    2.5190   -6.8590 hc        1 ISF      0.023367
@<TRIPOS>BOND
     1    1    2 1   
     2    1    5 1   
     3    2    3 2   
     4    2    7 1   
     5    3    4 1   
     6    3   20 1   
     7    4    5 2   
     8    4   21 1   
     9    5    6 1   
    10    7    8 2   
    11    7    9 1   
    12    9   10 ar  
    13    9   14 ar  
    14   10   11 ar  
    15   10   22 1   
    16   11   12 ar  
    17   11   23 1   
    18   12   13 ar  
    19   12   15 1   
    20   13   14 ar  
    21   13   24 1   
    22   14   25 1   
    23   15   16 1   
    24   15   17 1   
    25   15   26 1   
    26   16   27 1   
    27   16   28 1   
    28   16   29 1   
    29   17   18 1   
    30   17   19 1   
@<TRIPOS>SUBSTRUCTURE
     1 ISF         1 TEMP              0 ****  ****    0 ROOT
