@<TRIPOS>MOLECULE
ISF
   29    24     1     0     0
SMALL
bcc


@<TRIPOS>ATOM
      1 S1         -0.0470    3.7380    0.0950 ss        1 ISF      0.738000
      2 C2         -1.2690    2.9290    0.6040 c1        1 ISF     -0.548500
      3 C3         -2.4710    3.6090    0.1590 c1        1 ISF     -0.125000
      4 C4         -2.0390    4.9010   -0.6650 c1        1 ISF     -0.125000
      5 C5         -0.5890    4.9610   -0.6920 c1        1 ISF     -0.548500
      6 I1          0.5710    6.4980   -1.5460 i         1 ISF      0.185000
      7 C6         -1.2170    1.7020    1.4880 c1        1 ISF      0.345000
      8 O7         -1.7350    1.7230    2.5860 o         1 ISF     -0.305000
      9 C8         -0.4820    0.4640    1.0220 c2        1 ISF     -0.193000
     10 C9         -1.1760   -0.5620    0.4000 c1        1 ISF     -0.081000
     11 C10        -0.5050   -1.7000   -0.0160 c1        1 ISF     -0.131000
     12 C11         0.8620   -1.8130    0.1890 c1        1 ISF      0.032000
     13 C12         1.5560   -0.7870    0.8100 c1        1 ISF     -0.157000
     14 C13         0.8840    0.3520    1.2270 c2        1 ISF     -0.121000
     15 C14         1.5940   -3.0590   -0.2590 c3        1 ISF     -0.177000
     16 C15         1.7400   -3.0440   -1.7650 c3        1 ISF     -0.179000
     17 C16         0.8090   -4.2830    0.1580 c2        1 ISF      0.345000
     18 O17         0.6840   -4.5640    1.3790 o         1 ISF     -0.562500
     19 O18         0.3060   -5.0370   -0.7160 o         1 ISF     -0.562500
     20 H3         -3.3880    3.3240    0.3350 DU        1 ISF      0.161500
     21 H4         -2.6450    5.5440   -1.0800 DU        1 ISF      0.161500
     22 H9         -2.1380   -0.4830    0.2560 ha        1 ISF      0.136000
     23 H10        -0.9940   -2.4250   -0.4500 ha        1 ISF      0.195000
     24 H12         2.5220   -0.8570    0.9350 ha        1 ISF      0.129000
     25 H13         1.3730    1.0740    1.6640 ha        1 ISF      0.115000
     26 H14         2.4780   -3.0830    0.1530 hc        1 ISF      0.088000
     27 H151        0.8540   -2.9860   -2.1790 hc        1 ISF      0.062333
     28 H152        2.2770   -2.2690   -2.0330 hc        1 ISF      0.062333
     29 H153        2.1850   -3.8670   -2.0580 hc        1 ISF      0.062333
@<TRIPOS>BOND
     1    1    2 1   
     2    1    5 1   
     3    2    3 1   
     4    3    4 1   
     5    4    5 1   
     6    7    8 1   
     7    7    9 1   
     8    9   10 1   
     9    9   14 1   
    10   10   22 1   
    11   11   12 1   
    12   11   23 1   
    13   12   15 1   
    14   13   14 1   
    15   13   24 1   
    16   14   25 1   
    17   15   16 1   
    18   15   17 1   
    19   15   26 1   
    20   16   27 1   
    21   16   28 1   
    22   16   29 1   
    23   17   18 1   
    24   17   19 1   
@<TRIPOS>SUBSTRUCTURE
     1 ISF         1 TEMP              0 ****  ****    0 ROOT
