@<TRIPOS>MOLECULE
ISF
   29    30     1     0     0
SMALL
bcc


@<TRIPOS>ATOM
      1 S1          0.2120   -0.4380   -0.1540 ss        1 ISF      0.238200
      2 C2          1.7730    0.0980    0.0470 cc        1 ISF     -0.222700
      3 C3          2.1310    0.1010    1.3940 cd        1 ISF     -0.119000
      4 C4          1.0680   -0.3520    2.2160 cd        1 ISF     -0.137000
      5 C5         -0.0500   -0.6830    1.4580 cc        1 ISF     -0.090200
      6 I1         -1.7670   -1.3640    2.1900 i         1 ISF     -0.096900
      7 C6          2.6890    0.4840   -1.0340 c         1 ISF      0.628300
      8 O7          3.8790    0.7370   -0.7930 o         1 ISF     -0.554100
      9 C8          2.1350    0.5090   -2.3990 ca        1 ISF     -0.213600
     10 C9          2.9370    0.0830   -3.4660 ca        1 ISF     -0.101500
     11 C10         2.4330    0.0710   -4.7630 ca        1 ISF     -0.143000
     12 C11         1.1260    0.5020   -5.0280 ca        1 ISF      0.022700
     13 C12         0.3290    0.9410   -3.9560 ca        1 ISF     -0.143000
     14 C13         0.8270    0.9450   -2.6600 ca        1 ISF     -0.101500
     15 C14         0.5860    0.4980   -6.4140 c3        1 ISF     -0.179400
     16 C15         0.4370    1.9080   -6.9430 c3        1 ISF     -0.061100
     17 C16        -0.8040   -0.2140   -6.4810 c         1 ISF      0.923600
     18 O17        -1.7800    0.3260   -5.8880 o         1 ISF     -0.829300
     19 O18        -0.8640   -1.2800   -7.1490 o         1 ISF     -0.829300
     20 H3          3.1120    0.4110    1.7620 ha        1 ISF      0.166000
     21 H4          1.1380   -0.4250    3.3030 ha        1 ISF      0.152000
     22 H9          3.9680   -0.2430   -3.2640 ha        1 ISF      0.124000
     23 H10         3.0660   -0.2850   -5.5900 ha        1 ISF      0.161500
     24 H12        -0.7140    1.2430   -4.1760 ha        1 ISF      0.161500
     25 H13         0.1910    1.3170   -1.8400 ha        1 ISF      0.124000
     26 H14         1.2850   -0.0750   -7.0830 hc        1 ISF      0.049700
     27 H151        1.4020    2.4660   -6.8890 hc        1 ISF      0.023367
     28 H152       -0.3360    2.4550   -6.3500 hc        1 ISF      0.023367
     29 H153        0.1030    1.8720   -8.0080 hc        1 ISF      0.023367
@<TRIPOS>BOND
     1    1    2 1   
     2    1    5 1   
     3    2    3 2   
     4    2    7 1   
     5    3    4 1   
     6    3   20 1   
     7    4    5 2   
     8    4   21 1   
     9    5    6 1   
    10    7    8 2   
    11    7    9 1   
    12    9   10 ar  
    13    9   14 ar  
    14   10   11 ar  
    15   10   22 1   
    16   11   12 ar  
    17   11   23 1   
    18   12   13 ar  
    19   12   15 1   
    20   13   14 ar  
    21   13   24 1   
    22   14   25 1   
    23   15   16 1   
    24   15   17 1   
    25   15   26 1   
    26   16   27 1   
    27   16   28 1   
    28   16   29 1   
    29   17   18 1   
    30   17   19 1   
@<TRIPOS>SUBSTRUCTURE
     1 ISF         1 TEMP              0 ****  ****    0 ROOT
