@<TRIPOS>MOLECULE
ISF
   29    30     1     0     0
SMALL
bcc


@<TRIPOS>ATOM
      1 S1         -0.4320    0.4960    0.8010 ss        1 ISF      0.238200
      2 C2         -2.0030   -0.0030    0.5850 cc        1 ISF     -0.222700
      3 C3         -2.6900   -0.0280    1.7970 cd        1 ISF     -0.119000
      4 C4         -1.8610    0.3770    2.8740 cd        1 ISF     -0.137000
      5 C5         -0.5820    0.6960    2.4330 cc        1 ISF     -0.090200
      6 I1          0.9080    1.3130    3.5950 i         1 ISF     -0.096900
      7 C6         -2.6230   -0.3380   -0.7030 c         1 ISF      0.628300
      8 O7         -3.8400   -0.5640   -0.7780 o         1 ISF     -0.554100
      9 C8         -1.7420   -0.3450   -1.8840 ca        1 ISF     -0.213600
     10 C9         -2.2390    0.1270   -3.1050 ca        1 ISF     -0.101500
     11 C10        -1.4230    0.1570   -4.2330 ca        1 ISF     -0.143000
     12 C11        -0.1010   -0.3020   -4.1710 ca        1 ISF      0.022700
     13 C12         0.3900   -0.7880   -2.9470 ca        1 ISF     -0.143000
     14 C13        -0.4190   -0.8090   -1.8190 ca        1 ISF     -0.101500
     15 C14         0.7720   -0.2800   -5.3760 c3        1 ISF     -0.179400
     16 C15         1.0230   -1.6800   -5.8920 c3        1 ISF     -0.061100
     17 C16         2.1490    0.3960   -5.0690 c         1 ISF      0.923600
     18 O17         2.9310   -0.1830   -4.2650 o         1 ISF     -0.829300
     19 O18         2.3970    1.4760   -5.6670 o         1 ISF     -0.829300
     20 H3         -3.7390   -0.3200    1.8970 ha        1 ISF      0.166000
     21 H4         -2.2020    0.4250    3.9100 ha        1 ISF      0.152000
     22 H9         -3.2810    0.4760   -3.1610 ha        1 ISF      0.124000
     23 H10        -1.8190    0.5500   -5.1810 ha        1 ISF      0.161500
     24 H12         1.4490   -1.1130   -2.9050 ha        1 ISF      0.161500
     25 H13        -0.0190   -1.2180   -0.8770 ha        1 ISF      0.124000
     26 H14         0.2770    0.3280   -6.1820 hc        1 ISF      0.049700
     27 H151        1.6100   -2.2610   -5.1390 hc        1 ISF      0.023367
     28 H152        0.0640   -2.2130   -6.1000 hc        1 ISF      0.023367
     29 H153        1.6160   -1.6280   -6.8370 hc        1 ISF      0.023367
@<TRIPOS>BOND
     1    1    2 1   
     2    1    5 1   
     3    2    3 2   
     4    2    7 1   
     5    3    4 1   
     6    3   20 1   
     7    4    5 2   
     8    4   21 1   
     9    5    6 1   
    10    7    8 2   
    11    7    9 1   
    12    9   10 ar  
    13    9   14 ar  
    14   10   11 ar  
    15   10   22 1   
    16   11   12 ar  
    17   11   23 1   
    18   12   13 ar  
    19   12   15 1   
    20   13   14 ar  
    21   13   24 1   
    22   14   25 1   
    23   15   16 1   
    24   15   17 1   
    25   15   26 1   
    26   16   27 1   
    27   16   28 1   
    28   16   29 1   
    29   17   18 1   
    30   17   19 1   
@<TRIPOS>SUBSTRUCTURE
     1 ISF         1 TEMP              0 ****  ****    0 ROOT
