@<TRIPOS>MOLECULE
ISH
   52    54     1     0     0
SMALL
bcc


@<TRIPOS>ATOM
      1 C1          0.1840   -0.1590    0.5780 ca        1 ISH     -0.140000
      2 C2          1.4890   -0.4920    0.9340 ca        1 ISH     -0.015000
      3 C3          1.8580   -0.4600    2.2850 ca        1 ISH      0.058400
      4 C4          0.8990   -0.1200    3.3330 ca        1 ISH     -0.010200
      5 C5         -0.4010    0.2150    2.9740 ca        1 ISH     -0.182300
      6 C6         -0.7040    0.1930    1.5940 ca        1 ISH      0.128100
      7 N7          3.1270   -0.6690    2.8590 nc        1 ISH     -0.538100
      8 C8          2.9700   -0.4730    4.1900 cd        1 ISH      0.526700
      9 N9          1.6000   -0.1840    4.5460 na        1 ISH     -0.202300
     10 C10        -1.6010    0.6760    3.7290 c3        1 ISH     -0.028100
     11 C11        -2.6100    1.0020    2.6000 c3        1 ISH      0.111100
     12 O12        -2.0130    0.6070    1.3360 os        1 ISH     -0.346900
     13 CA1         1.1120    0.1460    5.8470 c3        1 ISH      0.045300
     14 CA2        -3.9250    0.2280    2.7520 c3        1 ISH      0.094800
     15 CB1         0.7060   -1.0430    6.7270 c3        1 ISH     -0.129400
     16 CD1         3.7930   -3.2610    7.2000 c3        1 ISH      0.084100
     17 CE1         1.5890   -4.0640    6.5470 c3        1 ISH      0.084100
     18 CG1         1.8640   -1.7620    7.4030 c3        1 ISH      0.114800
     19 CG2        -5.8420   -0.7140    1.5360 c3        1 ISH      0.081600
     20 CG3        -5.4840    1.7040    1.5270 c3        1 ISH      0.081600
     21 NP1         3.9770   -0.5920    5.1860 nh        1 ISH     -0.880800
     22 NP2         2.4810   -2.8770    6.6100 n4        1 ISH     -0.675400
     23 NP3        -4.8260    0.3710    1.5610 n4        1 ISH     -0.676400
     24 H1         -0.1330   -0.1500   -0.4750 ha        1 ISH      0.176000
     25 H2          2.2310   -0.7570    0.1620 ha        1 ISH      0.184000
     26 H10        -1.9930   -0.1140    4.4170 hc        1 ISH      0.072700
     27 H11        -2.7920    2.1080    2.5280 h1        1 ISH      0.097700
     28 HA1         1.8850    0.7610    6.3940 h1        1 ISH      0.078700
     29 HA2        -4.4720    0.5970    3.6650 hx        1 ISH      0.109700
     30 HB1         0.0730   -0.6200    7.5590 hc        1 ISH      0.086200
     31 HD1         3.6440   -3.5960    8.2610 hx        1 ISH      0.105700
     32 HE1         2.0770   -4.8590    5.9200 hx        1 ISH      0.105700
     33 HG1         2.6830   -1.0200    7.6350 hx        1 ISH      0.106700
     34 HG2        -6.4590   -0.6730    2.4730 hx        1 ISH      0.109033
     35 HG3        -6.1100    1.7830    0.5960 hx        1 ISH      0.109033
     36 HNP1        4.0750    0.2730    5.6910 hn        1 ISH      0.410800
     37 H10A       -1.3920    1.5990    4.3280 hc        1 ISH      0.072700
     38 HA1A        0.1930    0.7930    5.7170 h1        1 ISH      0.078700
     39 HA2A       -3.6970   -0.8710    2.8750 hx        1 ISH      0.109700
     40 HB1A        0.0570   -1.7530    6.1520 hc        1 ISH      0.086200
     41 HD1A        4.2360   -4.1000    6.5980 hx        1 ISH      0.105700
     42 HD1B        4.4890   -2.3790    7.1770 hx        1 ISH      0.105700
     43 HE1A        0.6080   -3.7770    6.0860 hx        1 ISH      0.105700
     44 HE1B        1.4150   -4.4630    7.5820 hx        1 ISH      0.105700
     45 HG1A        1.5080   -2.2100    8.3770 hx        1 ISH      0.106700
     46 HG2A       -5.3270   -1.7090    1.4630 hx        1 ISH      0.109033
     47 HG2B       -6.5090   -0.5740    0.6420 hx        1 ISH      0.109033
     48 HG3A       -6.1410    1.8260    2.4290 hx        1 ISH      0.109033
     49 HG3B       -4.6990    2.5080    1.5150 hx        1 ISH      0.109033
     50 HNPA        4.8580   -0.8390    4.7640 hn        1 ISH      0.410800
     51 HP21        2.6410   -2.5440    5.6470 hn        1 ISH      0.468800
     52 HP31       -4.2320    0.2840    0.7170 hn        1 ISH      0.472800
@<TRIPOS>BOND
     1    1    2 ar  
     2    1    6 ar  
     3    1   24 1   
     4    2    3 ar  
     5    2   25 1   
     6    3    4 ar  
     7    3    7 1   
     8    4    5 ar  
     9    4    9 1   
    10    5    6 ar  
    11    5   10 1   
    12    6   12 1   
    13    7    8 2   
    14    8    9 1   
    15    8   21 1   
    16    9   13 1   
    17   10   11 1   
    18   10   26 1   
    19   10   37 1   
    20   11   12 1   
    21   11   14 1   
    22   11   27 1   
    23   13   15 1   
    24   13   28 1   
    25   13   38 1   
    26   14   23 1   
    27   14   29 1   
    28   14   39 1   
    29   15   18 1   
    30   15   30 1   
    31   15   40 1   
    32   16   22 1   
    33   16   31 1   
    34   16   41 1   
    35   16   42 1   
    36   17   22 1   
    37   17   32 1   
    38   17   43 1   
    39   17   44 1   
    40   18   22 1   
    41   18   33 1   
    42   18   45 1   
    43   19   23 1   
    44   19   34 1   
    45   19   46 1   
    46   19   47 1   
    47   20   23 1   
    48   20   35 1   
    49   20   48 1   
    50   20   49 1   
    51   21   36 1   
    52   21   50 1   
    53   22   51 1   
    54   23   52 1   
@<TRIPOS>SUBSTRUCTURE
     1 ISH         1 TEMP              0 ****  ****    0 ROOT
