@<TRIPOS>MOLECULE
ISH
   50    52     1     0     0
SMALL
bcc


@<TRIPOS>ATOM
      1 C1         -1.6560    2.9440   -1.0210 ca        1 ISH     -0.163000
      2 C2         -0.3770    3.4590   -1.2370 ca        1 ISH     -0.054000
      3 C3          0.7290    2.8180   -0.6750 ca        1 ISH      0.059400
      4 C4          0.5640    1.6180    0.1390 ca        1 ISH     -0.025200
      5 C5         -0.7040    1.1110    0.3570 ca        1 ISH     -0.173300
      6 C6         -1.7900    1.7980   -0.2390 ca        1 ISH      0.125100
      7 N7          2.0980    3.1560   -0.7450 nc        1 ISH     -0.603100
      8 C8          2.7470    2.2030   -0.0270 cd        1 ISH      0.579700
      9 N9          1.8430    1.2660    0.6160 na        1 ISH     -0.174300
     10 C10        -1.2300   -0.0580    1.1130 c3        1 ISH     -0.043100
     11 C11        -2.7600    0.0440    0.8960 c3        1 ISH      0.132100
     12 O12        -3.0110    1.2040    0.0430 os        1 ISH     -0.306900
     13 CA1         2.2140   -0.0580    1.0250 c3        1 ISH      0.042300
     14 CA2        -3.3190   -1.1980    0.1860 c3        1 ISH      0.168800
     15 CB1         2.6170   -1.0190   -0.0960 c3        1 ISH     -0.116400
     16 CD1         3.8620   -4.5750    0.2650 c3        1 ISH      0.155100
     17 CE1         2.8090   -3.5330   -1.6360 c3        1 ISH      0.155100
     18 CG1         2.8720   -2.3970    0.5100 c3        1 ISH      0.175800
     19 CG2        -5.4090   -1.8380   -0.8630 c3        1 ISH      0.164100
     20 CG3        -5.1690   -1.9860    1.5340 c3        1 ISH      0.164100
     21 NP1         4.1440    2.0740    0.0910 nh        1 ISH     -0.851800
     22 NP2         3.5220   -3.3340   -0.3950 n3        1 ISH     -0.736600
     23 NP3        -4.7600   -1.3230    0.3190 n3        1 ISH     -0.744600
     24 H1         -2.5420    3.4280   -1.4520 ha        1 ISH      0.153000
     25 H2         -0.2400    4.3670   -1.8440 ha        1 ISH      0.151000
     26 H10        -0.8220   -1.0210    0.7160 hc        1 ISH      0.058200
     27 H11        -3.2960    0.2630    1.8560 h1        1 ISH      0.077700
     28 HA1         3.0730    0.0370    1.7500 h1        1 ISH      0.056200
     29 HA2        -3.0460   -1.1170   -0.9040 h1        1 ISH      0.043700
     30 HB1         1.7970   -1.0810   -0.8580 hc        1 ISH      0.068700
     31 HD1         2.9630   -5.1540    0.6160 h1        1 ISH      0.032533
     32 HE1         3.3650   -4.2790   -2.2640 h1        1 ISH      0.032533
     33 HG1         3.5520   -2.2780    1.4030 h1        1 ISH      0.026200
     34 HG2        -5.1630   -1.1740   -1.7330 h1        1 ISH      0.031033
     35 HG3        -4.6910   -1.4740    2.4090 h1        1 ISH      0.031033
     36 HNP1        4.4350    1.7650    0.9960 hn        1 ISH      0.402300
     37 H10A       -0.9850    0.0060    2.2020 hc        1 ISH      0.058200
     38 HA1A        1.3330   -0.4920    1.5830 h1        1 ISH      0.056200
     39 HA2A       -2.7870   -2.1010    0.6090 h1        1 ISH      0.043700
     40 HB1A        3.5360   -0.6400   -0.6140 hc        1 ISH      0.068700
     41 HD1A        4.4420   -5.2170   -0.4490 h1        1 ISH      0.032533
     42 HD1B        4.5100   -4.3520    1.1530 h1        1 ISH      0.032533
     43 HE1A        1.7580   -3.9050   -1.4900 h1        1 ISH      0.032533
     44 HE1B        2.7720   -2.5600   -2.1920 h1        1 ISH      0.032533
     45 HG1A        1.8870   -2.8050    0.8900 h1        1 ISH      0.026200
     46 HG2A       -5.1030   -2.8910   -1.1150 h1        1 ISH      0.031033
     47 HG2B       -6.5190   -1.8210   -0.7020 h1        1 ISH      0.031033
     48 HG3A       -6.2830   -1.9050    1.6340 h1        1 ISH      0.031033
     49 HG3B       -4.8870   -3.0760    1.5620 h1        1 ISH      0.031033
     50 HNPA        4.6280    2.8980   -0.2040 hn        1 ISH      0.402300
@<TRIPOS>BOND
     1    1    2 ar  
     2    1    6 ar  
     3    1   24 1   
     4    2    3 ar  
     5    2   25 1   
     6    3    4 ar  
     7    3    7 1   
     8    4    5 ar  
     9    4    9 1   
    10    5    6 ar  
    11    5   10 1   
    12    6   12 1   
    13    7    8 2   
    14    8    9 1   
    15    8   21 1   
    16    9   13 1   
    17   10   11 1   
    18   10   26 1   
    19   10   37 1   
    20   11   12 1   
    21   11   14 1   
    22   11   27 1   
    23   13   15 1   
    24   13   28 1   
    25   13   38 1   
    26   14   23 1   
    27   14   29 1   
    28   14   39 1   
    29   15   18 1   
    30   15   30 1   
    31   15   40 1   
    32   16   22 1   
    33   16   31 1   
    34   16   41 1   
    35   16   42 1   
    36   17   22 1   
    37   17   32 1   
    38   17   43 1   
    39   17   44 1   
    40   18   22 1   
    41   18   33 1   
    42   18   45 1   
    43   19   23 1   
    44   19   34 1   
    45   19   46 1   
    46   19   47 1   
    47   20   23 1   
    48   20   35 1   
    49   20   48 1   
    50   20   49 1   
    51   21   36 1   
    52   21   50 1   
@<TRIPOS>SUBSTRUCTURE
     1 ISH         1 TEMP              0 ****  ****    0 ROOT
