@<TRIPOS>MOLECULE
ISH
   53    55     1     0     0
SMALL
bcc


@<TRIPOS>ATOM
      1 C1         -0.2030   -0.3820    0.1240 ca        1 ISH     -0.132000
      2 C2          1.1710   -0.5910    0.1730 ca        1 ISH      0.030000
      3 C3          1.8410   -0.4040    1.3960 ca        1 ISH      0.020400
      4 C4          1.1310   -0.0620    2.6300 ca        1 ISH      0.006800
      5 C5         -0.2390    0.1520    2.5720 ca        1 ISH     -0.185300
      6 C6         -0.8520    0.0090    1.3000 ca        1 ISH      0.185100
      7 N7          3.2220   -0.4070    1.6330 nc        1 ISH     -0.404100
      8 C8          3.3610   -0.1070    2.9420 cd        1 ISH      0.349700
      9 N9          2.1090    0.1420    3.6380 na        1 ISH     -0.132300
     10 C10        -1.2690    0.6140    3.5500 c3        1 ISH     -0.033100
     11 C11        -2.4930    0.9010    2.6440 c3        1 ISH      0.107100
     12 O12        -2.1950    0.3530    1.3250 os        1 ISH     -0.325900
     13 CA1         1.9100   -0.1650    5.0270 c3        1 ISH      0.022300
     14 CA2        -3.7860    0.2410    3.1300 c3        1 ISH      0.098800
     15 CB1         2.1130   -1.6310    5.4490 c3        1 ISH     -0.140400
     16 CD1         2.2540   -3.0410    9.0010 c3        1 ISH      0.078600
     17 CE1         1.1030   -4.1130    7.1280 c3        1 ISH      0.078600
     18 CG1         1.8440   -1.7570    6.9470 c3        1 ISH      0.103800
     19 CG2        -6.0050   -0.5610    2.4390 c3        1 ISH      0.079100
     20 CG3        -5.5030    1.8290    2.3190 c3        1 ISH      0.079100
     21 NP1         4.6640    0.1930    3.5370 n4        1 ISH     -0.747600
     22 NP2         2.1380   -3.1140    7.5140 n4        1 ISH     -0.679400
     23 NP3        -4.9420    0.4550    2.1980 n4        1 ISH     -0.677400
     24 H1         -0.7630   -0.4880   -0.8200 ha        1 ISH      0.202000
     25 H2          1.7340   -0.8650   -0.7380 ha        1 ISH      0.205000
     26 H10        -1.5020   -0.1720    4.3110 hc        1 ISH      0.079200
     27 H11        -2.6240    2.0090    2.4970 h1        1 ISH      0.108700
     28 HA1         0.8510    0.1440    5.2790 h1        1 ISH      0.087200
     29 HA2        -3.6240   -0.8720    3.2230 hx        1 ISH      0.113700
     30 HB1         1.4160   -2.2930    4.8680 hc        1 ISH      0.074200
     31 HD1         2.4550   -4.0730    9.4050 hx        1 ISH      0.116367
     32 HE1         0.1130   -3.8220    7.5700 hx        1 ISH      0.116367
     33 HG1         2.4820   -1.0120    7.5080 hx        1 ISH      0.110700
     34 HG2        -5.5940   -1.5880    2.2470 hx        1 ISH      0.114367
     35 HG3        -6.3300    1.9560    1.5650 hx        1 ISH      0.114367
     36 HNP1        4.7620   -0.2760    4.4410 hn        1 ISH      0.486800
     37 H10A       -0.9560    1.5480    4.0820 hc        1 ISH      0.079200
     38 HA1A        2.6120    0.4880    5.6240 h1        1 ISH      0.087200
     39 HA2A       -4.0580    0.6610    4.1400 hx        1 ISH      0.113700
     40 HB1A        3.1610   -1.9560    5.2100 hc        1 ISH      0.074200
     41 HD1A        3.1020   -2.3600    9.2810 hx        1 ISH      0.116367
     42 HD1B        1.2940   -2.6530    9.4370 hx        1 ISH      0.116367
     43 HE1A        1.4000   -5.1240    7.5250 hx        1 ISH      0.116367
     44 HE1B        1.0260   -4.1600    6.0100 hx        1 ISH      0.116367
     45 HG1A        0.7620   -1.5240    7.1630 hx        1 ISH      0.110700
     46 HG2A       -6.8630   -0.3670    1.7380 hx        1 ISH      0.114367
     47 HG2B       -6.3670   -0.4850    3.4990 hx        1 ISH      0.114367
     48 HG3A       -4.6990    2.5840    2.1160 hx        1 ISH      0.114367
     49 HG3B       -5.9190    1.9800    3.3510 hx        1 ISH      0.114367
     50 HNPA        4.7520    1.2150    3.6600 hn        1 ISH      0.486800
     51 HP13        5.4120   -0.1300    2.8970 hn        1 ISH      0.486800
     52 HP21        3.0420   -3.4340    7.1400 hn        1 ISH      0.452800
     53 HP31       -4.5910    0.3340    1.2330 hn        1 ISH      0.469800
@<TRIPOS>BOND
     1    1    2 ar  
     2    1    6 ar  
     3    1   24 1   
     4    2    3 ar  
     5    2   25 1   
     6    3    4 ar  
     7    3    7 1   
     8    4    5 ar  
     9    4    9 1   
    10    5    6 ar  
    11    5   10 1   
    12    6   12 1   
    13    7    8 2   
    14    8    9 1   
    15    8   21 1   
    16    9   13 1   
    17   10   11 1   
    18   10   26 1   
    19   10   37 1   
    20   11   12 1   
    21   11   14 1   
    22   11   27 1   
    23   13   15 1   
    24   13   28 1   
    25   13   38 1   
    26   14   23 1   
    27   14   29 1   
    28   14   39 1   
    29   15   18 1   
    30   15   30 1   
    31   15   40 1   
    32   16   22 1   
    33   16   31 1   
    34   16   41 1   
    35   16   42 1   
    36   17   22 1   
    37   17   32 1   
    38   17   43 1   
    39   17   44 1   
    40   18   22 1   
    41   18   33 1   
    42   18   45 1   
    43   19   23 1   
    44   19   34 1   
    45   19   46 1   
    46   19   47 1   
    47   20   23 1   
    48   20   35 1   
    49   20   48 1   
    50   20   49 1   
    51   21   36 1   
    52   21   50 1   
    53   21   51 1   
    54   22   52 1   
    55   23   53 1   
@<TRIPOS>SUBSTRUCTURE
     1 ISH         1 TEMP              0 ****  ****    0 ROOT
