@<TRIPOS>MOLECULE
ISH
   52    54     1     0     0
SMALL
bcc


@<TRIPOS>ATOM
      1 C1         -0.0140   -0.3500    0.4460 ca        1 ISH     -0.141000
      2 C2          1.2700   -0.7890    0.7660 ca        1 ISH     -0.011000
      3 C3          1.6940   -0.7480    2.1000 ca        1 ISH      0.055400
      4 C4          0.8140   -0.2800    3.1680 ca        1 ISH     -0.007200
      5 C5         -0.4640    0.1600    2.8460 ca        1 ISH     -0.180300
      6 C6         -0.8250    0.1160    1.4800 ca        1 ISH      0.131100
      7 N7          2.9580   -1.0600    2.6370 nc        1 ISH     -0.526100
      8 C8          2.8690   -0.8060    3.9630 cd        1 ISH      0.519700
      9 N9          1.5690   -0.3140    4.3510 na        1 ISH     -0.184300
     10 C10        -1.5860    0.7520    3.6290 c3        1 ISH     -0.029100
     11 C11        -2.6130    1.1170    2.5290 c3        1 ISH      0.111100
     12 O12        -2.1030    0.6330    1.2580 os        1 ISH     -0.346900
     13 CA1         1.0800   -0.1820    5.6870 c3        1 ISH      0.044300
     14 CA2        -3.9750    0.4530    2.7650 c3        1 ISH      0.094800
     15 CB1         0.6090   -1.4730    6.3730 c3        1 ISH     -0.135400
     16 CD1         3.7750   -2.7560    8.0810 c3        1 ISH      0.086100
     17 CE1         2.4720   -4.0230    6.4610 c3        1 ISH      0.086100
     18 CG1         1.5400   -1.9740    7.4680 c3        1 ISH      0.109800
     19 CG2        -6.0070   -0.3860    1.6650 c3        1 ISH      0.081100
     20 CG3        -5.4690    1.9960    1.5390 c3        1 ISH      0.081100
     21 NP1         3.9090   -0.9770    4.9260 nv        1 ISH     -0.874800
     22 NP2         2.7750   -2.6670    6.9840 nx        1 ISH     -0.710400
     23 NP3        -4.9120    0.6190    1.6040 nx        1 ISH     -0.676400
     24 H1         -0.3710   -0.3500   -0.5940 ha        1 ISH      0.176000
     25 H2          1.9530   -1.1470   -0.0230 ha        1 ISH      0.184000
     26 H10        -2.0110    0.0260    4.3660 hc        1 ISH      0.074200
     27 H11        -2.7120    2.2310    2.4220 h1        1 ISH      0.097700
     28 HA1         0.1990    0.5270    5.6450 h1        1 ISH      0.076700
     29 HA2        -4.4540    0.8990    3.6810 hx        1 ISH      0.110200
     30 HB1        -0.3680   -1.2470    6.8860 hc        1 ISH      0.087700
     31 HD1         3.3400   -3.3160    8.9510 hx        1 ISH      0.102533
     32 HE1         3.4190   -4.4880    6.0740 hx        1 ISH      0.102533
     33 HG1         0.9780   -2.7000    8.1260 hx        1 ISH      0.102700
     34 HG2        -6.6990   -0.2300    0.7930 hx        1 ISH      0.109033
     35 HG3        -6.1250    2.0860    0.6310 hx        1 ISH      0.109033
     36 HNP1        4.7130   -1.4030    4.4900 hn        1 ISH      0.413800
     37 H10A       -1.2700    1.6740    4.1790 hc        1 ISH      0.074200
     38 HA1A        1.8810    0.3100    6.3120 h1        1 ISH      0.076700
     39 HA2A       -3.8250   -0.6540    2.9250 hx        1 ISH      0.110200
     40 HB1A        0.3970   -2.2800    5.6230 hc        1 ISH      0.087700
     41 HD1A        4.6850   -3.2980    7.7070 hx        1 ISH      0.102533
     42 HD1B        4.0660   -1.7220    8.4080 hx        1 ISH      0.102533
     43 HE1A        1.7290   -3.9470    5.6250 hx        1 ISH      0.102533
     44 HE1B        2.0520   -4.6650    7.2810 hx        1 ISH      0.102533
     45 HG1A        1.8670   -1.1030    8.1080 hx        1 ISH      0.102700
     46 HG2A       -6.5790   -0.2610    2.6230 hx        1 ISH      0.109033
     47 HG2B       -5.5710   -1.4190    1.6150 hx        1 ISH      0.109033
     48 HG3A       -4.6270    2.7350    1.4640 hx        1 ISH      0.109033
     49 HG3B       -6.0760    2.2030    2.4600 hx        1 ISH      0.109033
     50 HNPA        4.1720   -0.0810    5.3060 hn        1 ISH      0.413800
     51 HP21        3.1900   -2.0910    6.2010 hn        1 ISH      0.491800
     52 HP31       -4.3620    0.4530    0.7430 hn        1 ISH      0.472800
@<TRIPOS>BOND
     1    1    2 ar  
     2    1    6 ar  
     3    1   24 1   
     4    2    3 ar  
     5    2   25 1   
     6    3    4 ar  
     7    3    7 1   
     8    4    5 ar  
     9    4    9 1   
    10    5    6 ar  
    11    5   10 1   
    12    6   12 1   
    13    7    8 2   
    14    8    9 1   
    15    8   21 1   
    16    9   13 1   
    17   10   11 1   
    18   10   26 1   
    19   10   37 1   
    20   11   12 1   
    21   11   14 1   
    22   11   27 1   
    23   13   15 1   
    24   13   28 1   
    25   13   38 1   
    26   14   23 1   
    27   14   29 1   
    28   14   39 1   
    29   15   18 1   
    30   15   30 1   
    31   15   40 1   
    32   16   22 1   
    33   16   31 1   
    34   16   41 1   
    35   16   42 1   
    36   17   22 1   
    37   17   32 1   
    38   17   43 1   
    39   17   44 1   
    40   18   22 1   
    41   18   33 1   
    42   18   45 1   
    43   19   23 1   
    44   19   34 1   
    45   19   46 1   
    46   19   47 1   
    47   20   23 1   
    48   20   35 1   
    49   20   48 1   
    50   20   49 1   
    51   21   36 1   
    52   21   50 1   
    53   22   51 1   
    54   23   52 1   
@<TRIPOS>SUBSTRUCTURE
     1 ISH         1 TEMP              0 ****  ****    0 ROOT
