@<TRIPOS>MOLECULE
ISI
   52    54     1     0     0
SMALL
bcc


@<TRIPOS>ATOM
      1 C1          0.0820   -0.7380    0.7630 ca        1 ISI     -0.137000
      2 NP1         3.6740    0.7800    5.2970 nv        1 ISI     -0.867800
      3 C2          1.4090   -0.4790    1.1170 ca        1 ISI     -0.029000
      4 NP2         2.9130   -3.1520    7.2820 nx        1 ISI     -0.680400
      5 C3          1.7150   -0.1700    2.4450 ca        1 ISI      0.070400
      6 NP3        -4.8260    0.4140    1.3630 nx        1 ISI     -0.671400
      7 C4          0.6820   -0.1370    3.4760 ca        1 ISI     -0.035200
      8 C5         -0.6360   -0.3630    3.1170 ca        1 ISI     -0.168300
      9 C6         -0.8880   -0.6590    1.7560 ca        1 ISI      0.107100
     10 N7          2.9560    0.1950    3.0090 nc        1 ISI     -0.560100
     11 C8          2.7160    0.4260    4.3200 cd        1 ISI      0.560700
     12 N9          1.3090    0.2640    4.6760 na        1 ISI     -0.179300
     13 C10        -1.9290   -0.3220    3.8560 c3        1 ISI     -0.031100
     14 C11        -2.9680   -0.6180    2.7450 c3        1 ISI      0.113100
     15 O12        -2.2510   -0.8500    1.5060 os        1 ISI     -0.341900
     16 CA1         0.8670   -0.1260    5.9800 c3        1 ISI      0.050300
     17 CA2        -3.9160    0.5740    2.5450 c3        1 ISI      0.087800
     18 CB1         1.1290   -1.5790    6.4090 c3        1 ISI     -0.139400
     19 CD1         2.7370   -4.2810    6.3320 c3        1 ISI      0.081600
     20 CE1         4.2940   -3.1510    7.8380 c3        1 ISI      0.081600
     21 CG1         2.6130   -1.8310    6.6300 c3        1 ISI      0.105800
     22 CG2        -6.1620    1.0100    1.6300 c3        1 ISI      0.080100
     23 CG3        -4.2270    1.0050    0.1330 c3        1 ISI      0.080100
     24 H1         -0.1880   -0.9900   -0.2730 ha        1 ISI      0.172000
     25 HNP1        3.3750    1.5660    5.8450 hn        1 ISI      0.415300
     26 HNPA        4.5730    0.9550    4.8820 hn        1 ISI      0.415300
     27 H2          2.2040   -0.5030    0.3530 ha        1 ISI      0.182000
     28 H10        -1.9840   -1.1090    4.6500 hc        1 ISI      0.074700
     29 H10A       -2.1040    0.6740    4.3340 hc        1 ISI      0.074700
     30 H11        -3.5410   -1.5620    2.9500 h1        1 ISI      0.093700
     31 HA1        -0.2530    0.0290    6.0110 h1        1 ISI      0.081200
     32 HA1A        1.3390    0.5690    6.7330 h1        1 ISI      0.081200
     33 HA2        -3.3180    1.5200    2.4030 hx        1 ISI      0.113700
     34 HA2A       -4.5460    0.6800    3.4750 hx        1 ISI      0.113700
     35 HB1         0.7230   -2.2830    5.6360 hc        1 ISI      0.073700
     36 HB1A        0.5550   -1.7440    7.3610 hc        1 ISI      0.073700
     37 HD1         3.4710   -4.1830    5.4880 hx        1 ISI      0.108867
     38 HD1A        1.6910   -4.2650    5.9240 hx        1 ISI      0.108867
     39 HD1B        2.9160   -5.2520    6.8700 hx        1 ISI      0.108867
     40 HE1         4.3810   -2.3560    8.6260 hx        1 ISI      0.108867
     41 HE1A        4.5100   -4.1560    8.2930 hx        1 ISI      0.108867
     42 HE1B        5.0300   -2.9460    7.0150 hx        1 ISI      0.108867
     43 HG1         3.1640   -1.8100    5.6450 hx        1 ISI      0.118200
     44 HG1A        3.0390   -1.0220    7.2940 hx        1 ISI      0.118200
     45 HG2        -6.0450    2.1010    1.8690 hx        1 ISI      0.110700
     46 HG2A       -6.8070    0.8960    0.7160 hx        1 ISI      0.110700
     47 HG2B       -6.6440    0.4820    2.4960 hx        1 ISI      0.110700
     48 HG3        -3.2130    0.5460   -0.0350 hx        1 ISI      0.110700
     49 HG3A       -4.1280    2.1150    0.2580 hx        1 ISI      0.110700
     50 HG3B       -4.8950    0.7830   -0.7430 hx        1 ISI      0.110700
     51 HP21        2.2530   -3.2820    8.0610 hn        1 ISI      0.447800
     52 HP31       -4.9470   -0.5960    1.1940 hn        1 ISI      0.456800
@<TRIPOS>BOND
     1    1    3 ar  
     2    1    9 ar  
     3    1   24 1   
     4    2   11 1   
     5    2   25 1   
     6    2   26 1   
     7    3    5 ar  
     8    3   27 1   
     9    4   19 1   
    10    4   20 1   
    11    4   21 1   
    12    4   51 1   
    13    5    7 ar  
    14    5   10 1   
    15    6   17 1   
    16    6   22 1   
    17    6   23 1   
    18    6   52 1   
    19    7    8 ar  
    20    7   12 1   
    21    8    9 ar  
    22    8   13 1   
    23    9   15 1   
    24   10   11 2   
    25   11   12 1   
    26   12   16 1   
    27   13   14 1   
    28   13   28 1   
    29   13   29 1   
    30   14   15 1   
    31   14   17 1   
    32   14   30 1   
    33   16   18 1   
    34   16   31 1   
    35   16   32 1   
    36   17   33 1   
    37   17   34 1   
    38   18   21 1   
    39   18   35 1   
    40   18   36 1   
    41   19   37 1   
    42   19   38 1   
    43   19   39 1   
    44   20   40 1   
    45   20   41 1   
    46   20   42 1   
    47   21   43 1   
    48   21   44 1   
    49   22   45 1   
    50   22   46 1   
    51   22   47 1   
    52   23   48 1   
    53   23   49 1   
    54   23   50 1   
@<TRIPOS>SUBSTRUCTURE
     1 ISI         1 TEMP              0 ****  ****    0 ROOT
