@<TRIPOS>MOLECULE
ISI
   50    46     1     0     0
SMALL
bcc


@<TRIPOS>ATOM
      1 C1         -0.9590    0.3980   -3.9940 c1        1 ISI     -0.163000
      2 NP1         4.0840    0.5680   -1.4070 n3        1 ISI     -0.289000
      3 C2          0.4310    0.3890   -4.0260 c1        1 ISI     -0.054000
      4 NP2         3.9580   -2.4050    2.6380 n3        1 ISI     -0.262000
      5 C3          1.1800    0.3530   -2.7980 c1        1 ISI     -0.080000
      6 NP3        -5.3800    1.2360   -0.3330 n3        1 ISI     -0.265000
      7 C4          0.5250    0.3260   -1.5960 c1        1 ISI      0.020000
      8 C5         -0.9240    0.3360   -1.5620 c1        1 ISI     -0.161000
      9 C6         -1.6440    0.3710   -2.7440 c2        1 ISI      0.082000
     10 N7          2.5340    0.3180   -2.5440 n1        1 ISI     -0.186000
     11 C8          2.7110    0.2710   -1.1850 c2        1 ISI      0.097000
     12 N9          1.4750    0.2760   -0.5960 n1        1 ISI     -0.186000
     13 C10        -1.8940    0.3370   -0.4380 c2        1 ISI     -0.127000
     14 C11        -3.2310    0.3120   -1.0000 c3        1 ISI      0.021000
     15 O12        -3.1130    0.3170   -2.3980 os        1 ISI     -0.209000
     16 CA1         1.7030    0.1150    0.8220 c2        1 ISI     -0.017000
     17 CA2        -4.0230    1.5750   -0.5310 c3        1 ISI     -0.074000
     18 CB1         2.4150   -1.2450    1.0830 c3        1 ISI     -0.195000
     19 CD1         5.3140   -2.2770    2.2910 c3        1 ISI     -0.121000
     20 CE1         3.8500   -2.7650    4.0340 c3        1 ISI     -0.121000
     21 CG1         3.2800   -1.1440    2.4080 c3        1 ISI     -0.062000
     22 CG2        -5.7790    1.6230    0.9840 c3        1 ISI     -0.121000
     23 CG3        -6.2280    1.9510   -1.3430 c3        1 ISI     -0.121000
     24 H1         -1.4750    0.3160   -4.8450 ha        1 ISI      0.151000
     25 HNP1        4.6310    0.8130   -0.6900 hn        1 ISI      0.195500
     26 HNPA        4.4130    0.5480   -2.2270 hn        1 ISI      0.195500
     27 H2          0.9180    0.4470   -4.9180 ha        1 ISI      0.151000
     28 H10        -1.7570   -0.4500    0.1180 ha        1 ISI      0.101000
     29 H10A       -1.7820    1.1080    0.0730 ha        1 ISI      0.101000
     30 H11        -3.7220   -0.5440   -0.6940 h1        1 ISI      0.126000
     31 HA1         0.8180    0.1300    1.3080 ha        1 ISI      0.096000
     32 HA1A        2.2820    0.8660    1.1570 ha        1 ISI      0.096000
     33 HA2        -3.6330    1.9160    0.3340 h1        1 ISI      0.082500
     34 HA2A       -3.9570    2.2750   -1.2190 h1        1 ISI      0.082500
     35 HB1         1.7150   -1.9800    1.1890 hc        1 ISI      0.107500
     36 HB1A        3.0210   -1.4650    0.2990 hc        1 ISI      0.107500
     37 HD1         5.3850   -2.0020    1.3660 h1        1 ISI      0.071833
     38 HD1A        5.7620   -3.1350    2.4100 h1        1 ISI      0.071833
     39 HD1B        5.7520   -1.5830    2.8840 h1        1 ISI      0.071833
     40 HE1         4.0860   -2.0090    4.5780 h1        1 ISI      0.071833
     41 HE1A        2.9520   -3.0290    4.2260 h1        1 ISI      0.071833
     42 HE1B        4.4600   -3.5130    4.2270 h1        1 ISI      0.071833
     43 HG1         3.9530   -0.4170    2.3110 h1        1 ISI      0.066000
     44 HG1A        2.6890   -0.9440    3.1740 h1        1 ISI      0.066000
     45 HG2        -6.7190    1.4600    1.0940 h1        1 ISI      0.073333
     46 HG2A       -5.6010    2.5500    1.1110 h1        1 ISI      0.073333
     47 HG2B       -5.2620    1.0860    1.6640 h1        1 ISI      0.073333
     48 HG3        -6.0280    1.6070   -2.2430 h1        1 ISI      0.073333
     49 HG3A       -6.0360    2.9040   -1.3090 h1        1 ISI      0.073333
     50 HG3B       -7.1540    1.8060   -1.1430 h1        1 ISI      0.073333
@<TRIPOS>BOND
     1    1    9 1   
     2    1   24 1   
     3    2   11 1   
     4    2   25 1   
     5    2   26 1   
     6    3    5 1   
     7    3   27 1   
     8    4   19 1   
     9    4   20 1   
    10    4   21 1   
    11    6   17 1   
    12    6   22 1   
    13    6   23 1   
    14    7    8 1   
    15    8    9 1   
    16    9   15 1   
    17   10   11 1   
    18   11   12 1   
    19   13   14 1   
    20   13   28 1   
    21   13   29 1   
    22   14   15 1   
    23   14   17 1   
    24   14   30 1   
    25   16   18 1   
    26   16   31 1   
    27   16   32 1   
    28   17   33 1   
    29   17   34 1   
    30   18   21 1   
    31   18   35 1   
    32   18   36 1   
    33   19   37 1   
    34   19   38 1   
    35   19   39 1   
    36   20   40 1   
    37   20   41 1   
    38   20   42 1   
    39   21   43 1   
    40   21   44 1   
    41   22   45 1   
    42   22   46 1   
    43   22   47 1   
    44   23   48 1   
    45   23   49 1   
    46   23   50 1   
@<TRIPOS>SUBSTRUCTURE
     1 ISI         1 TEMP              0 ****  ****    0 ROOT
