@<TRIPOS>MOLECULE
ISI
   52    54     1     0     0
SMALL
bcc


@<TRIPOS>ATOM
      1 C1          0.0720   -0.7800    0.7620 ca        1 ISI     -0.137000
      2 NP1         3.6940    0.7550    5.2670 nh        1 ISI     -0.867800
      3 C2          1.4030   -0.5310    1.1080 ca        1 ISI     -0.029000
      4 NP2         2.8980   -3.1430    7.3020 n4        1 ISI     -0.680400
      5 C3          1.7160   -0.2080    2.4320 ca        1 ISI      0.070400
      6 NP3        -4.8210    0.4310    1.3620 n4        1 ISI     -0.671400
      7 C4          0.6870   -0.1520    3.4660 ca        1 ISI     -0.035200
      8 C5         -0.6340   -0.3680    3.1130 ca        1 ISI     -0.168300
      9 C6         -0.8940   -0.6780    1.7570 ca        1 ISI      0.107100
     10 N7          2.9630    0.1500    2.9870 nc        1 ISI     -0.560100
     11 C8          2.7290    0.4000    4.2970 cd        1 ISI      0.560700
     12 N9          1.3220    0.2570    4.6590 na        1 ISI     -0.179300
     13 C10        -1.9250   -0.3050    3.8560 c3        1 ISI     -0.031100
     14 C11        -2.9700   -0.6030    2.7510 c3        1 ISI      0.113100
     15 O12        -2.2590   -0.8580    1.5140 os        1 ISI     -0.341900
     16 CA1         0.8790   -0.1120    5.9680 c3        1 ISI      0.050300
     17 CA2        -3.9060    0.5960    2.5400 c3        1 ISI      0.087800
     18 CB1         1.1270   -1.5620    6.4150 c3        1 ISI     -0.139400
     19 CD1         2.7060   -4.2830    6.3670 c3        1 ISI      0.081600
     20 CE1         4.2800   -3.1510    7.8540 c3        1 ISI      0.081600
     21 CG1         2.6090   -1.8270    6.6340 c3        1 ISI      0.105800
     22 CG2        -6.1500    1.0440    1.6260 c3        1 ISI      0.080100
     23 CG3        -4.2200    1.0000    0.1240 c3        1 ISI      0.080100
     24 H1         -0.2030   -1.0420   -0.2700 ha        1 ISI      0.172000
     25 HNP1        3.4050    1.5510    5.8050 hn        1 ISI      0.415300
     26 HNPA        4.5930    0.9160    4.8460 hn        1 ISI      0.415300
     27 H2          2.1950   -0.5720    0.3430 ha        1 ISI      0.182000
     28 H10        -1.9860   -1.0810    4.6590 hc        1 ISI      0.074700
     29 H10A       -2.0880    0.6990    4.3220 hc        1 ISI      0.074700
     30 H11        -3.5520   -1.5390    2.9690 h1        1 ISI      0.093700
     31 HA1        -0.2380    0.0560    6.0010 h1        1 ISI      0.081200
     32 HA1A        1.3610    0.5870    6.7120 h1        1 ISI      0.081200
     33 HA2        -3.2980    1.5330    2.3840 hx        1 ISI      0.113700
     34 HA2A       -4.5320    0.7200    3.4700 hx        1 ISI      0.113700
     35 HB1         0.7110   -2.2720    5.6520 hc        1 ISI      0.073700
     36 HB1A        0.5550   -1.7090    7.3710 hc        1 ISI      0.073700
     37 HD1         1.6600   -4.2600    5.9620 hx        1 ISI      0.108867
     38 HD1A        3.4400   -4.2030    5.5200 hx        1 ISI      0.108867
     39 HD1B        2.8770   -5.2480    6.9170 hx        1 ISI      0.108867
     40 HE1         4.4870   -4.1520    8.3210 hx        1 ISI      0.108867
     41 HE1A        4.3780   -2.3460    8.6320 hx        1 ISI      0.108867
     42 HE1B        5.0160   -2.9630    7.0260 hx        1 ISI      0.108867
     43 HG1         3.0460   -1.0150    7.2870 hx        1 ISI      0.118200
     44 HG1A        3.1580   -1.8240    5.6480 hx        1 ISI      0.118200
     45 HG2        -6.0210    2.1370    1.8510 hx        1 ISI      0.110700
     46 HG2A       -6.7990    0.9260    0.7160 hx        1 ISI      0.110700
     47 HG2B       -6.6350    0.5320    2.5000 hx        1 ISI      0.110700
     48 HG3        -3.2120    0.5290   -0.0420 hx        1 ISI      0.110700
     49 HG3A       -4.8930    0.7750   -0.7480 hx        1 ISI      0.110700
     50 HG3B       -4.1090    2.1110    0.2340 hx        1 ISI      0.110700
     51 HP21        2.2390   -3.2570    8.0850 hn        1 ISI      0.447800
     52 HP31       -4.9540   -0.5800    1.2060 hn        1 ISI      0.456800
@<TRIPOS>BOND
     1    1    3 ar  
     2    1    9 ar  
     3    1   24 1   
     4    2   11 1   
     5    2   25 1   
     6    2   26 1   
     7    3    5 ar  
     8    3   27 1   
     9    4   19 1   
    10    4   20 1   
    11    4   21 1   
    12    4   51 1   
    13    5    7 ar  
    14    5   10 1   
    15    6   17 1   
    16    6   22 1   
    17    6   23 1   
    18    6   52 1   
    19    7    8 ar  
    20    7   12 1   
    21    8    9 ar  
    22    8   13 1   
    23    9   15 1   
    24   10   11 2   
    25   11   12 1   
    26   12   16 1   
    27   13   14 1   
    28   13   28 1   
    29   13   29 1   
    30   14   15 1   
    31   14   17 1   
    32   14   30 1   
    33   16   18 1   
    34   16   31 1   
    35   16   32 1   
    36   17   33 1   
    37   17   34 1   
    38   18   21 1   
    39   18   35 1   
    40   18   36 1   
    41   19   37 1   
    42   19   38 1   
    43   19   39 1   
    44   20   40 1   
    45   20   41 1   
    46   20   42 1   
    47   21   43 1   
    48   21   44 1   
    49   22   45 1   
    50   22   46 1   
    51   22   47 1   
    52   23   48 1   
    53   23   49 1   
    54   23   50 1   
@<TRIPOS>SUBSTRUCTURE
     1 ISI         1 TEMP              0 ****  ****    0 ROOT
