@<TRIPOS>MOLECULE
ISI
   50    52     1     0     0
SMALL
bcc


@<TRIPOS>ATOM
      1 C1          1.8050   -2.5790   -1.1170 ca        1 ISI     -0.163000
      2 NP1        -3.6710   -2.3160    1.2490 nh        1 ISI     -0.850800
      3 C2          0.6490   -3.3200   -0.8630 ca        1 ISI     -0.054000
      4 NP2        -3.9820    2.9300   -0.8030 n3        1 ISI     -0.736600
      5 C3         -0.4210   -2.7220   -0.1930 ca        1 ISI      0.059400
      6 NP3         4.9170    1.7700    0.1970 n3        1 ISI     -0.739600
      7 C4         -0.3440   -1.3340    0.2500 ca        1 ISI     -0.025200
      8 C5          0.8010   -0.6010    0.0010 ca        1 ISI     -0.168300
      9 C6          1.8540   -1.2540   -0.6850 ca        1 ISI      0.127100
     10 N7         -1.6690   -3.2680    0.1770 nc        1 ISI     -0.601100
     11 C8         -2.3360   -2.2620    0.8000 cd        1 ISI      0.575700
     12 N9         -1.5350   -1.0600    0.9520 na        1 ISI     -0.172300
     13 C10         1.2150    0.7960    0.3040 c3        1 ISI     -0.041100
     14 C11         2.6340    0.8840   -0.3100 c3        1 ISI      0.132100
     15 O12         2.9460   -0.4230   -0.8890 os        1 ISI     -0.325900
     16 CA1        -2.0860    0.2550    1.1190 c3        1 ISI      0.042300
     17 CA2         3.6930    1.2090    0.7500 c3        1 ISI      0.162800
     18 CB1        -2.8590    0.8150   -0.0760 c3        1 ISI     -0.116400
     19 CD1        -4.9830    2.2320   -1.5770 c3        1 ISI      0.155100
     20 CE1        -4.4040    4.2540   -0.4010 c3        1 ISI      0.155100
     21 CG1        -3.4670    2.1590    0.3200 c3        1 ISI      0.174800
     22 CG2         5.7260    2.4170    1.2060 c3        1 ISI      0.155100
     23 CG3         5.6710    0.8350   -0.6080 c3        1 ISI      0.155100
     24 H1          2.6580   -3.0230   -1.6440 ha        1 ISI      0.151000
     25 HNP1       -4.0250   -3.2520    1.2640 hn        1 ISI      0.400300
     26 HNPA       -3.8060   -1.8480    2.1220 hn        1 ISI      0.400300
     27 H2          0.5820   -4.3690   -1.1880 ha        1 ISI      0.151000
     28 H10         0.5350    1.5440   -0.1740 hc        1 ISI      0.061700
     29 H10A        1.2320    0.9890    1.4060 hc        1 ISI      0.061700
     30 H11         2.6630    1.6020   -1.1710 h1        1 ISI      0.086700
     31 HA1        -2.7670    0.2290    2.0190 h1        1 ISI      0.056700
     32 HA1A       -1.2240    0.9460    1.3540 h1        1 ISI      0.056700
     33 HA2         3.8900    0.2720    1.3470 h1        1 ISI      0.043200
     34 HA2A        3.2480    1.9790    1.4440 h1        1 ISI      0.043200
     35 HB1        -2.1690    0.9390   -0.9510 hc        1 ISI      0.068200
     36 HB1A       -3.6690    0.1000   -0.3780 hc        1 ISI      0.068200
     37 HD1        -5.8780    1.9230   -0.9700 h1        1 ISI      0.032533
     38 HD1A       -5.3310    2.8960   -2.4110 h1        1 ISI      0.032533
     39 HD1B       -4.5190    1.3130   -2.0230 h1        1 ISI      0.032533
     40 HE1        -5.2710    4.2460    0.3160 h1        1 ISI      0.032533
     41 HE1A       -3.5430    4.7800    0.0890 h1        1 ISI      0.032533
     42 HE1B       -4.7030    4.8300   -1.3150 h1        1 ISI      0.032533
     43 HG1        -2.6670    2.7850    0.8110 h1        1 ISI      0.026700
     44 HG1A       -4.2690    1.9700    1.0950 h1        1 ISI      0.026700
     45 HG2         6.0890    1.7130    2.0040 h1        1 ISI      0.034033
     46 HG2A        6.6170    2.8820    0.7090 h1        1 ISI      0.034033
     47 HG2B        5.1250    3.2290    1.6940 h1        1 ISI      0.034033
     48 HG3         5.0040    0.4200   -1.4090 h1        1 ISI      0.034033
     49 HG3A        6.5230    1.3820   -1.0910 h1        1 ISI      0.034033
     50 HG3B        6.0870   -0.0230   -0.0120 h1        1 ISI      0.034033
@<TRIPOS>BOND
     1    1    3 ar  
     2    1    9 ar  
     3    1   24 1   
     4    2   11 1   
     5    2   25 1   
     6    2   26 1   
     7    3    5 ar  
     8    3   27 1   
     9    4   19 1   
    10    4   20 1   
    11    4   21 1   
    12    5    7 ar  
    13    5   10 1   
    14    6   17 1   
    15    6   22 1   
    16    6   23 1   
    17    7    8 ar  
    18    7   12 1   
    19    8    9 ar  
    20    8   13 1   
    21    9   15 1   
    22   10   11 2   
    23   11   12 1   
    24   12   16 1   
    25   13   14 1   
    26   13   28 1   
    27   13   29 1   
    28   14   15 1   
    29   14   17 1   
    30   14   30 1   
    31   16   18 1   
    32   16   31 1   
    33   16   32 1   
    34   17   33 1   
    35   17   34 1   
    36   18   21 1   
    37   18   35 1   
    38   18   36 1   
    39   19   37 1   
    40   19   38 1   
    41   19   39 1   
    42   20   40 1   
    43   20   41 1   
    44   20   42 1   
    45   21   43 1   
    46   21   44 1   
    47   22   45 1   
    48   22   46 1   
    49   22   47 1   
    50   23   48 1   
    51   23   49 1   
    52   23   50 1   
@<TRIPOS>SUBSTRUCTURE
     1 ISI         1 TEMP              0 ****  ****    0 ROOT
