@<TRIPOS>MOLECULE
ISI
   53    55     1     0     0
SMALL
bcc


@<TRIPOS>ATOM
      1 C1         -0.2730   -1.0170    0.3550 ca        1 ISI     -0.134000
      2 NP1         4.3630    0.8880    3.6200 n4        1 ISI     -0.748600
      3 C2          1.1070   -0.8380    0.3630 ca        1 ISI      0.030000
      4 NP2         2.3800   -3.2920    7.3770 n4        1 ISI     -0.679400
      5 C3          1.7290   -0.4240    1.5530 ca        1 ISI      0.018400
      6 NP3        -4.9800    0.4440    2.0780 n4        1 ISI     -0.673400
      7 C4          0.9790   -0.2220    2.7930 ca        1 ISI     -0.003200
      8 C5         -0.4000   -0.3600    2.7670 ca        1 ISI     -0.180300
      9 C6         -0.9800   -0.7560    1.5330 ca        1 ISI      0.177100
     10 N7          3.0750   -0.0830    1.7570 nc        1 ISI     -0.402100
     11 C8          3.1600    0.2740    3.0560 cd        1 ISI      0.349700
     12 N9          1.8940    0.2420    3.7800 na        1 ISI     -0.123300
     13 C10        -1.4920   -0.1180    3.7540 c3        1 ISI     -0.035100
     14 C11        -2.7730   -0.4640    2.9500 c3        1 ISI      0.111100
     15 O12        -2.3610   -0.8370    1.6050 os        1 ISI     -0.316900
     16 CA1         1.8180   -0.1800    5.1560 c3        1 ISI      0.017300
     17 CA2        -3.7280    0.7320    2.8520 c3        1 ISI      0.089800
     18 CB1         2.2460   -1.6250    5.4630 c3        1 ISI     -0.142400
     19 CD1         3.8290   -3.6280    7.3220 c3        1 ISI      0.078600
     20 CE1         1.8480   -3.5390    8.7500 c3        1 ISI      0.078600
     21 CG1         2.1160   -1.8750    6.9630 c3        1 ISI      0.104800
     22 CG2        -6.1270    1.2300    2.6150 c3        1 ISI      0.078600
     23 CG3        -4.8040    0.7190    0.6230 c3        1 ISI      0.078600
     24 H1         -0.8000   -1.3420   -0.5580 ha        1 ISI      0.201000
     25 HNP1        4.5980    0.4540    4.5170 hn        1 ISI      0.487800
     26 HNPA        4.1980    1.8990    3.7510 hn        1 ISI      0.487800
     27 H2          1.7030   -0.9980   -0.5550 ha        1 ISI      0.205000
     28 H10        -1.4120   -0.7850    4.6480 hc        1 ISI      0.081200
     29 H10A       -1.5010    0.9460    4.1040 hc        1 ISI      0.081200
     30 H11        -3.2880   -1.3710    3.3710 h1        1 ISI      0.104700
     31 HA1         2.4500    0.5290    5.7660 h1        1 ISI      0.086200
     32 HA1A        0.7410   -0.0420    5.4710 h1        1 ISI      0.086200
     33 HA2        -4.0180    1.0290    3.9020 hx        1 ISI      0.119200
     34 HA2A       -3.2060    1.6030    2.3610 hx        1 ISI      0.119200
     35 HB1         1.5970   -2.3380    4.8850 hc        1 ISI      0.077200
     36 HB1A        3.3040   -1.7910    5.1300 hc        1 ISI      0.077200
     37 HD1         4.2150   -3.4590    6.2830 hx        1 ISI      0.116367
     38 HD1A        3.9680   -4.7110    7.5990 hx        1 ISI      0.116367
     39 HD1B        4.3950   -2.9890    8.0530 hx        1 ISI      0.116367
     40 HE1         2.3430   -2.8420    9.4780 hx        1 ISI      0.116367
     41 HE1A        2.0690   -4.6030    9.0440 hx        1 ISI      0.116367
     42 HE1B        0.7370   -3.3730    8.7590 hx        1 ISI      0.116367
     43 HG1         1.0660   -1.6170    7.2930 hx        1 ISI      0.109700
     44 HG1A        2.8340   -1.2160    7.5320 hx        1 ISI      0.109700
     45 HG2        -5.8920    2.3270    2.5590 hx        1 ISI      0.115700
     46 HG2A       -7.0420    1.0150    1.9960 hx        1 ISI      0.115700
     47 HG2B       -6.3220    0.9350    3.6810 hx        1 ISI      0.115700
     48 HG3        -4.6310    1.8170    0.4640 hx        1 ISI      0.115700
     49 HG3A       -3.9250    0.1330    0.2400 hx        1 ISI      0.115700
     50 HG3B       -5.7350    0.4060    0.0760 hx        1 ISI      0.115700
     51 HP13        5.1520    0.7630    2.9590 hn        1 ISI      0.487800
     52 HP21        1.8840   -3.9170    6.7250 hn        1 ISI      0.454800
     53 HP31       -5.2000   -0.5570    2.1820 hn        1 ISI      0.455800
@<TRIPOS>BOND
     1    1    3 ar  
     2    1    9 ar  
     3    1   24 1   
     4    2   11 1   
     5    2   25 1   
     6    2   26 1   
     7    2   51 1   
     8    3    5 ar  
     9    3   27 1   
    10    4   19 1   
    11    4   20 1   
    12    4   21 1   
    13    4   52 1   
    14    5    7 ar  
    15    5   10 1   
    16    6   17 1   
    17    6   22 1   
    18    6   23 1   
    19    6   53 1   
    20    7    8 ar  
    21    7   12 1   
    22    8    9 ar  
    23    8   13 1   
    24    9   15 1   
    25   10   11 2   
    26   11   12 1   
    27   12   16 1   
    28   13   14 1   
    29   13   28 1   
    30   13   29 1   
    31   14   15 1   
    32   14   17 1   
    33   14   30 1   
    34   16   18 1   
    35   16   31 1   
    36   16   32 1   
    37   17   33 1   
    38   17   34 1   
    39   18   21 1   
    40   18   35 1   
    41   18   36 1   
    42   19   37 1   
    43   19   38 1   
    44   19   39 1   
    45   20   40 1   
    46   20   41 1   
    47   20   42 1   
    48   21   43 1   
    49   21   44 1   
    50   22   45 1   
    51   22   46 1   
    52   22   47 1   
    53   23   48 1   
    54   23   49 1   
    55   23   50 1   
@<TRIPOS>SUBSTRUCTURE
     1 ISI         1 TEMP              0 ****  ****    0 ROOT
