@<TRIPOS>MOLECULE
ISJ
   24    24     1     0     0
SMALL
bcc


@<TRIPOS>ATOM
      1 C1          0.4320   -0.5110    0.2250 c3        1 ISJ      0.136300
      2 C2          1.9000   -0.5890    0.4960 c2        1 ISJ     -0.156200
      3 C3          2.4860    0.2100    1.4080 ce        1 ISJ     -0.156200
      4 C4          1.6620    1.0950    2.2210 ce        1 ISJ     -0.095000
      5 C5          0.3250    0.9880    2.2380 c2        1 ISJ     -0.219200
      6 C6         -0.3730   -0.0930    1.4760 c3        1 ISJ      0.180300
      7 C7          3.9850    0.2560    1.6270 c         1 ISJ      0.907800
      8 O8          4.7270   -0.5280    0.9670 o         1 ISJ     -0.852800
      9 O9          4.4460    1.0920    2.4630 o         1 ISJ     -0.852800
     10 O10        -1.6670    0.3610    1.1090 oh        1 ISJ     -0.646800
     11 O11        -0.0900   -1.7950   -0.1640 os        1 ISJ     -0.347900
     12 C12        -0.6780   -1.8350   -1.4210 ce        1 ISJ      0.031900
     13 C13        -2.1060   -2.3690   -1.4010 c         1 ISJ      0.916800
     14 O14        -2.9170   -1.8330   -0.5900 o         1 ISJ     -0.835800
     15 O15        -2.4220   -3.2760   -2.2190 o         1 ISJ     -0.835800
     16 C16        -0.0360   -1.4460   -2.5310 c2        1 ISJ     -0.332000
     17 H1          0.2580    0.2470   -0.5920 h1        1 ISJ      0.055700
     18 H2          2.4860   -1.2870   -0.1200 ha        1 ISJ      0.148000
     19 H4          2.2110    1.8380    2.8220 ha        1 ISJ      0.141000
     20 H5         -0.3230    1.6450    2.8320 ha        1 ISJ      0.108000
     21 H6         -0.4840   -0.9980    2.1450 h1        1 ISJ      0.039700
     22 HO10       -2.0640   -0.3510    0.5710 ho        1 ISJ      0.458000
     23 H16         0.9650   -1.0030   -2.5160 ha        1 ISJ      0.103000
     24 H16A       -0.5050   -1.5700   -3.5120 ha        1 ISJ      0.103000
@<TRIPOS>BOND
     1    1    2 1   
     2    1    6 1   
     3    1   11 1   
     4    1   17 1   
     5    2    3 2   
     6    2   18 1   
     7    3    4 1   
     8    3    7 1   
     9    4    5 2   
    10    4   19 1   
    11    5    6 1   
    12    5   20 1   
    13    6   10 1   
    14    6   21 1   
    15    7    8 1   
    16    7    9 1   
    17   10   22 1   
    18   11   12 1   
    19   12   13 1   
    20   12   16 2   
    21   13   14 1   
    22   13   15 1   
    23   16   23 1   
    24   16   24 1   
@<TRIPOS>SUBSTRUCTURE
     1 ISJ         1 TEMP              0 ****  ****    0 ROOT
