@<TRIPOS>MOLECULE
ISJ
   24    24     1     0     0
SMALL
bcc


@<TRIPOS>ATOM
      1 C1          0.0210    0.3690    0.2290 c3        1 ISJ      0.136300
      2 C2         -0.9980   -0.7130    0.0590 c2        1 ISJ     -0.156200
      3 C3         -2.2780   -0.4240   -0.2430 ce        1 ISJ     -0.156200
      4 C4         -2.6590    0.9560   -0.5110 ce        1 ISJ     -0.095000
      5 C5         -1.7370    1.9180   -0.6740 c2        1 ISJ     -0.219200
      6 C6         -0.2770    1.5990   -0.6570 c3        1 ISJ      0.180300
      7 C7         -3.3710   -1.4730   -0.3020 c         1 ISJ      0.907800
      8 O8         -3.0680   -2.6870   -0.1140 o         1 ISJ     -0.852800
      9 O9         -4.5600   -1.0920   -0.5280 o         1 ISJ     -0.852800
     10 O10         0.4390    2.7330   -0.1920 oh        1 ISJ     -0.646800
     11 O11         1.3280   -0.0880   -0.1650 os        1 ISJ     -0.347900
     12 C12         2.2920   -0.0430    0.8330 ce        1 ISJ      0.031900
     13 C13         3.5370    0.7430    0.4340 c         1 ISJ      0.916800
     14 O14         3.3660    1.9130   -0.0180 o         1 ISJ     -0.835800
     15 O15         4.6680    0.2160    0.6170 o         1 ISJ     -0.835800
     16 C16         2.1320   -0.6450    2.0190 c2        1 ISJ     -0.332000
     17 H1          0.0270    0.6880    1.3100 h1        1 ISJ      0.055700
     18 H2         -0.6670   -1.7440    0.2440 ha        1 ISJ      0.148000
     19 H4         -3.7420    1.1460   -0.5840 ha        1 ISJ      0.141000
     20 H5         -1.9920    2.9680   -0.8680 ha        1 ISJ      0.108000
     21 H6          0.0590    1.3670   -1.7120 h1        1 ISJ      0.039700
     22 HO10        1.3770    2.4650   -0.1470 ho        1 ISJ      0.458000
     23 H16         2.9480   -0.6560    2.7490 ha        1 ISJ      0.103000
     24 H16A        1.2050   -1.1480    2.3120 ha        1 ISJ      0.103000
@<TRIPOS>BOND
     1    1    2 1   
     2    1    6 1   
     3    1   11 1   
     4    1   17 1   
     5    2    3 2   
     6    2   18 1   
     7    3    4 1   
     8    3    7 1   
     9    4    5 2   
    10    4   19 1   
    11    5    6 1   
    12    5   20 1   
    13    6   10 1   
    14    6   21 1   
    15    7    8 1   
    16    7    9 1   
    17   10   22 1   
    18   11   12 1   
    19   12   13 1   
    20   12   16 2   
    21   13   14 1   
    22   13   15 1   
    23   16   23 1   
    24   16   24 1   
@<TRIPOS>SUBSTRUCTURE
     1 ISJ         1 TEMP              0 ****  ****    0 ROOT
