@<TRIPOS>MOLECULE
ISJ
   24    21     1     0     0
SMALL
bcc


@<TRIPOS>ATOM
      1 C1         -0.3000   -0.1940   -0.0880 c3        1 ISJ      0.009000
      2 C2          1.1950   -0.2860   -0.0740 c2        1 ISJ     -0.132000
      3 C3          1.9100   -0.2740    1.2850 c1        1 ISJ     -0.143000
      4 C4          1.0370   -0.3500    2.5880 c1        1 ISJ     -0.153000
      5 C5         -0.4650   -0.6370    2.4440 c1        1 ISJ     -0.153000
      6 C6         -0.9890   -1.0020    1.0890 c2        1 ISJ      0.050000
      7 C7          3.3640    0.1340    1.3720 c2        1 ISJ      0.359000
      8 O8          4.2690   -0.7360    1.2810 o         1 ISJ     -0.584500
      9 O9          3.6690    1.3450    1.5340 o         1 ISJ     -0.584500
     10 O10        -2.4500   -0.8810    1.0330 oh        1 ISJ     -0.361000
     11 O11        -0.8450   -0.5860   -1.3920 os        1 ISJ     -0.196000
     12 C12        -1.1200    0.4970   -2.2430 c2        1 ISJ      0.034000
     13 C13        -0.0670    0.9800   -3.2160 c2        1 ISJ      0.381000
     14 O14         0.4070    2.1410   -3.1060 o         1 ISJ     -0.558500
     15 O15         0.3340    0.2210   -4.1370 o         1 ISJ     -0.558500
     16 C16        -2.3210    1.1060   -2.1920 c1        1 ISJ     -0.422000
     17 H1         -0.5750    0.7430   -0.0510 h1        1 ISJ      0.095000
     18 H2          1.7020   -0.1260   -0.8930 ha        1 ISJ      0.157000
     19 H4          1.4670   -0.4280    3.4600 ha        1 ISJ      0.126500
     20 H5         -1.0080   -0.8020    3.2380 ha        1 ISJ      0.126500
     21 H6         -0.8810   -1.9620    0.9390 h4        1 ISJ      0.089000
     22 HO10       -2.8210   -1.5570    1.4760 ho        1 ISJ      0.219000
     23 H16        -3.0010    0.7940   -1.5620 DU        1 ISJ      0.092000
     24 H16A       -2.5120    1.8600   -2.7840 ha        1 ISJ      0.108000
@<TRIPOS>BOND
     1    1    2 1   
     2    1    6 1   
     3    1   11 1   
     4    1   17 1   
     5    2    3 1   
     6    2   18 1   
     7    3    7 1   
     8    4    5 1   
     9    4   19 1   
    10    5   20 1   
    11    6   10 1   
    12    6   21 1   
    13    7    8 1   
    14    7    9 1   
    15   10   22 1   
    16   11   12 1   
    17   12   13 1   
    18   12   16 1   
    19   13   14 1   
    20   13   15 1   
    21   16   24 1   
@<TRIPOS>SUBSTRUCTURE
     1 ISJ         1 TEMP              0 ****  ****    0 ROOT
