@<TRIPOS>MOLECULE
ISL
   45    45     1     0     0
SMALL
bcc


@<TRIPOS>ATOM
      1 O2'         5.4780   -0.6590   -0.2550 o         1 ISL     -0.524100
      2 C2'         4.3780   -0.6390    0.3050 c         1 ISL      0.508100
      3 C1'         3.7560   -1.8770    0.8990 c3        1 ISL      0.031400
      4 O1'         4.2220   -3.0610    0.2920 oh        1 ISL     -0.586800
      5 C3'         3.5850    0.6420    0.4590 c3        1 ISL      0.017100
      6 O3'         4.4300    1.7750    0.4740 oh        1 ISL     -0.588800
      7 C4'         2.5530    0.7800   -0.6850 c3        1 ISL      0.088100
      8 O4'         2.8390    1.9240   -1.4640 oh        1 ISL     -0.589800
      9 C5'         1.1210    0.8500   -0.1150 c3        1 ISL      0.105100
     10 O5'         0.8640   -0.2930    0.6740 oh        1 ISL     -0.604800
     11 C6'         0.1300    1.0170   -1.2680 c3        1 ISL      0.103400
     12 O6'        -1.1550    1.2660   -0.6960 os        1 ISL     -0.459600
     13 C1         -2.2240    0.6490   -1.3940 c3        1 ISL      0.302900
     14 O5         -2.0730   -0.7420   -1.2310 os        1 ISL     -0.432600
     15 C5         -2.2360   -1.2140    0.1120 c3        1 ISL      0.129100
     16 C4         -3.6570   -0.8820    0.5940 c3        1 ISL      0.128100
     17 O4         -3.8000   -1.4020    1.9020 oh        1 ISL     -0.595800
     18 C3         -3.8140    0.6480    0.5890 c3        1 ISL      0.074100
     19 O3         -5.1470    0.9210    0.9880 oh        1 ISL     -0.606800
     20 C2         -3.5390    1.2050   -0.8160 c3        1 ISL      0.096100
     21 O2         -3.5360    2.6160   -0.7920 oh        1 ISL     -0.592800
     22 C6         -1.9880   -2.7200    0.0660 c3        1 ISL      0.137400
     23 O6         -0.5790   -2.8960    0.0260 oh        1 ISL     -0.617800
     24 H1          3.9780   -1.8890    2.0020 h1        1 ISL      0.082200
     25 H2          2.6410   -1.8760    0.7430 h1        1 ISL      0.082200
     26 H3          5.1840   -2.9900    0.2130 ho        1 ISL      0.418000
     27 H4          3.0670    0.6520    1.4610 h1        1 ISL      0.113700
     28 H5          5.0240    1.7050   -0.2890 ho        1 ISL      0.429000
     29 H6          2.6340   -0.0810   -1.4060 h1        1 ISL      0.086700
     30 H7          2.8930    2.6820   -0.8630 ho        1 ISL      0.419000
     31 H8          1.0310    1.7180    0.5990 h1        1 ISL      0.085700
     32 H9          0.5470   -1.0020    0.0920 ho        1 ISL      0.432000
     33 H10         0.4090    1.9100   -1.8870 h1        1 ISL      0.064200
     34 H11         0.1160    0.0950   -1.9060 h1        1 ISL      0.064200
     35 H12        -2.1550    0.8230   -2.5050 h2        1 ISL      0.090700
     36 H13        -1.4790   -0.7140    0.7810 h1        1 ISL      0.096700
     37 H14        -4.4260   -1.3450   -0.0840 h1        1 ISL      0.058700
     38 H15        -4.6270   -1.0430    2.2510 ho        1 ISL      0.427000
     39 H16        -3.0990    1.1080    1.3280 h1        1 ISL      0.066700
     40 H17        -5.2950    1.8630    0.8340 ho        1 ISL      0.424000
     41 H18        -4.3850    0.9290   -1.5080 h1        1 ISL      0.100700
     42 H19        -2.7350    2.9000   -0.3290 ho        1 ISL      0.423000
     43 H20        -2.4160   -3.1870    0.9930 h1        1 ISL      0.051200
     44 H21        -2.4560   -3.1700   -0.8490 h1        1 ISL      0.051200
     45 H22        -0.4170   -3.8460    0.0480 ho        1 ISL      0.412000
@<TRIPOS>BOND
     1    1    2 2   
     2    2    3 1   
     3    2    5 1   
     4    3    4 1   
     5    3   24 1   
     6    3   25 1   
     7    4   26 1   
     8    5    6 1   
     9    5    7 1   
    10    5   27 1   
    11    6   28 1   
    12    7    8 1   
    13    7    9 1   
    14    7   29 1   
    15    8   30 1   
    16    9   10 1   
    17    9   11 1   
    18    9   31 1   
    19   10   32 1   
    20   11   12 1   
    21   11   33 1   
    22   11   34 1   
    23   12   13 1   
    24   13   14 1   
    25   13   20 1   
    26   13   35 1   
    27   14   15 1   
    28   15   16 1   
    29   15   22 1   
    30   15   36 1   
    31   16   17 1   
    32   16   18 1   
    33   16   37 1   
    34   17   38 1   
    35   18   19 1   
    36   18   20 1   
    37   18   39 1   
    38   19   40 1   
    39   20   21 1   
    40   20   41 1   
    41   21   42 1   
    42   22   23 1   
    43   22   43 1   
    44   22   44 1   
    45   23   45 1   
@<TRIPOS>SUBSTRUCTURE
     1 ISL         1 TEMP              0 ****  ****    0 ROOT
