@<TRIPOS>MOLECULE
ISL
   45    44     1     0     0
SMALL
bcc


@<TRIPOS>ATOM
      1 O2'        -3.1570    2.2800   -4.1440 o         1 ISL     -0.286000
      2 C2'        -1.9640    2.4700   -4.2570 c1        1 ISL      0.172000
      3 C1'        -1.3990    2.9990   -5.5680 c2        1 ISL     -0.062000
      4 O1'        -2.4490    3.4900   -6.3680 oh        1 ISL     -0.310000
      5 C3'        -1.0590    2.3340   -3.0480 c3        1 ISL     -0.044000
      6 O3'        -1.2030    3.4630   -2.2280 oh        1 ISL     -0.316000
      7 C4'        -1.4380    1.0900   -2.2670 c3        1 ISL      0.012000
      8 O4'        -2.6700    1.2950   -1.6280 oh        1 ISL     -0.319000
      9 C5'        -0.3680    0.7990   -1.2250 c3        1 ISL      0.001000
     10 O5'         0.8660    0.6340   -1.8580 oh        1 ISL     -0.339000
     11 C6'        -0.7250   -0.4730   -0.4720 c3        1 ISL     -0.053000
     12 O6'         0.0300   -0.5320    0.7640 os        1 ISL     -0.306000
     13 C1         -0.3570   -1.5660    1.6120 c3        1 ISL      0.158000
     14 O5          0.6600   -2.6170    1.5730 os        1 ISL     -0.308000
     15 C5          1.9300   -2.2110    2.1990 c3        1 ISL     -0.003000
     16 C4          1.7370   -1.6540    3.6010 c3        1 ISL     -0.022000
     17 O4          2.9920   -1.1180    4.0650 oh        1 ISL     -0.318000
     18 C3          0.7140   -0.5860    3.6470 c3        1 ISL     -0.043000
     19 O3          0.4570   -0.2360    5.0430 oh        1 ISL     -0.333000
     20 C2         -0.5620   -1.0040    3.0140 c3        1 ISL      0.025000
     21 O2         -1.4330    0.1280    2.9360 oh        1 ISL     -0.310000
     22 C6          2.8300   -3.3900    2.2700 c3        1 ISL     -0.010000
     23 O6          2.8880   -4.0130    1.0100 oh        1 ISL     -0.319000
     24 H1         -0.9390    2.2750   -6.0420 h4        1 ISL      0.120500
     25 H2         -0.7640    3.7250   -5.3820 h4        1 ISL      0.120500
     26 H3         -2.1150    3.8350   -7.1190 ho        1 ISL      0.215000
     27 H4         -0.1310    2.2630   -3.3430 h1        1 ISL      0.155000
     28 H5         -0.7400    4.1390   -2.5720 ho        1 ISL      0.227000
     29 H6         -1.5110    0.3310   -2.8800 h1        1 ISL      0.126000
     30 H7         -3.2840    0.7570   -1.9870 ho        1 ISL      0.222000
     31 H8         -0.3140    1.5450   -0.5970 h1        1 ISL      0.100000
     32 H9          1.4640    1.1700   -1.4840 ho        1 ISL      0.225000
     33 H10        -0.5070   -1.2530   -1.0270 h1        1 ISL      0.098000
     34 H11        -1.6810   -0.4740   -0.2700 h1        1 ISL      0.098000
     35 H12        -1.2020   -1.9340    1.2940 h2        1 ISL      0.137000
     36 H13         2.3500   -1.5260    1.6430 h1        1 ISL      0.116000
     37 H14         1.4630   -2.3820    4.1970 h1        1 ISL      0.100000
     38 H15         3.1540   -1.4130    4.8900 ho        1 ISL      0.207000
     39 H16         1.0560    0.2000    3.1810 h1        1 ISL      0.118000
     40 H17         0.7520    0.5910    5.2020 ho        1 ISL      0.212000
     41 H18        -0.9820   -1.6880    3.5710 h1        1 ISL      0.103000
     42 H19        -2.0660    0.0580    3.5550 ho        1 ISL      0.223000
     43 H20         3.7270   -3.1000    2.5330 h1        1 ISL      0.101000
     44 H21         2.4850   -4.0230    2.9310 h1        1 ISL      0.101000
     45 H22         3.4660   -4.6790    1.0370 ho        1 ISL      0.208000
@<TRIPOS>BOND
     1    1    2 1   
     2    2    5 1   
     3    3    4 1   
     4    3   24 1   
     5    3   25 1   
     6    4   26 1   
     7    5    6 1   
     8    5    7 1   
     9    5   27 1   
    10    6   28 1   
    11    7    8 1   
    12    7    9 1   
    13    7   29 1   
    14    8   30 1   
    15    9   10 1   
    16    9   11 1   
    17    9   31 1   
    18   10   32 1   
    19   11   12 1   
    20   11   33 1   
    21   11   34 1   
    22   12   13 1   
    23   13   14 1   
    24   13   20 1   
    25   13   35 1   
    26   14   15 1   
    27   15   16 1   
    28   15   22 1   
    29   15   36 1   
    30   16   17 1   
    31   16   18 1   
    32   16   37 1   
    33   17   38 1   
    34   18   19 1   
    35   18   20 1   
    36   18   39 1   
    37   19   40 1   
    38   20   21 1   
    39   20   41 1   
    40   21   42 1   
    41   22   23 1   
    42   22   43 1   
    43   22   44 1   
    44   23   45 1   
@<TRIPOS>SUBSTRUCTURE
     1 ISL         1 TEMP              0 ****  ****    0 ROOT
