@<TRIPOS>MOLECULE
ISM
   26    26     1     0     0
SMALL
bcc


@<TRIPOS>ATOM
      1 O1          0.3790    1.1260   -0.4280 o         1 ISM     -0.789300
      2 C1          1.6150    1.0970   -0.2130 c         1 ISM      0.919200
      3 C2          2.1110    0.3780    1.0610 ca        1 ISM     -0.124600
      4 C3          3.4860    0.4550    1.2980 ca        1 ISM     -0.079000
      5 C4          4.0340   -0.1560    2.4320 ca        1 ISM     -0.126400
      6 N1          5.4740   -0.0610    2.6680 n4        1 ISM     -0.690000
      7 C5          3.2190   -0.8520    3.3430 ca        1 ISM     -0.129000
      8 C6          1.8560   -0.9230    3.0940 ca        1 ISM     -0.128000
      9 C7          1.2840   -0.3160    1.9610 ca        1 ISM      0.017700
     10 C8         -0.1700   -0.3890    1.6730 c3        1 ISM     -0.109100
     11 C9         -1.0080   -1.1020    2.6830 c         1 ISM      0.634100
     12 O2         -0.9770   -1.0740    3.9180 o         1 ISM     -0.569000
     13 O3         -1.9810   -1.8670    2.0980 os        1 ISM     -0.430900
     14 C10        -2.9060   -2.5160    2.9690 c3        1 ISM      0.125700
     15 OX0         2.5160    1.6020   -0.9320 o         1 ISM     -0.789300
     16 H3          4.0900    1.0120    0.5530 ha        1 ISM      0.187000
     17 H11N        5.9100    0.4630    1.9010 hn        1 ISM      0.447467
     18 H12N        5.8790   -0.9990    2.7120 hn        1 ISM      0.447467
     19 H5          3.6380   -1.3320    4.2390 ha        1 ISM      0.130000
     20 H6          1.2150   -1.4560    3.8180 ha        1 ISM      0.172000
     21 H81C       -0.5760    0.6650    1.5670 hc        1 ISM      0.144700
     22 H82C       -0.3180   -0.8510    0.6510 hc        1 ISM      0.144700
     23 H101       -2.3660   -3.2400    3.6250 h1        1 ISM      0.049033
     24 H102       -3.6060   -3.0380    2.2710 h1        1 ISM      0.049033
     25 H103       -3.4390   -1.7600    3.5940 h1        1 ISM      0.049033
     26 H13         5.6470    0.4230    3.5520 hn        1 ISM      0.447467
@<TRIPOS>BOND
     1    1    2 1   
     2    2    3 1   
     3    2   15 1   
     4    3    4 ar  
     5    3    9 ar  
     6    4    5 ar  
     7    4   16 1   
     8    5    6 1   
     9    5    7 ar  
    10    6   17 1   
    11    6   18 1   
    12    6   26 1   
    13    7    8 ar  
    14    7   19 1   
    15    8    9 ar  
    16    8   20 1   
    17    9   10 1   
    18   10   11 1   
    19   10   21 1   
    20   10   22 1   
    21   11   12 2   
    22   11   13 1   
    23   13   14 1   
    24   14   23 1   
    25   14   24 1   
    26   14   25 1   
@<TRIPOS>SUBSTRUCTURE
     1 ISM         1 TEMP              0 ****  ****    0 ROOT
