@<TRIPOS>MOLECULE
ISM
   25    22     1     0     0
SMALL
bcc


@<TRIPOS>ATOM
      1 O1         -0.3830    1.7850   -3.0250 o         1 ISM     -0.564000
      2 C1          0.0030    0.6980   -2.5220 c1        1 ISM      0.356000
      3 C2          0.7340    0.6950   -1.1970 c1        1 ISM     -0.073000
      4 C3          2.1180    0.7740   -1.1690 c2        1 ISM     -0.150000
      5 C4          2.7900    0.7310    0.0430 c1        1 ISM     -0.007000
      6 N1          4.2020    0.8670    0.0750 n2        1 ISM     -0.308000
      7 C5          2.0790    0.6100    1.2260 c2        1 ISM     -0.191000
      8 C6          0.6950    0.5310    1.1980 c1        1 ISM     -0.130000
      9 C7          0.0230    0.5740   -0.0140 c1        1 ISM     -0.073000
     10 C8         -1.4910    0.5790   -0.0380 c3        1 ISM     -0.108000
     11 C9         -2.0070   -0.7760    0.3940 c2        1 ISM      0.311000
     12 O2         -1.3270   -1.7670    0.2240 o         1 ISM     -0.388000
     13 O3         -3.2870   -0.8910    0.9630 os        1 ISM     -0.282000
     14 C10        -3.6790   -2.2200    1.2220 c3        1 ISM     -0.061000
     15 OX0        -0.2080   -0.3860   -3.1260 o         1 ISM     -0.564000
     16 H3          2.6180    0.8790   -2.0010 ha        1 ISM      0.156000
     17 H11N        4.7120    0.4990   -0.5890 hn        1 ISM      0.153000
     18 H12N        4.6000    1.3420    0.7470 hn        1 ISM      0.153000
     19 H5          2.5520    0.5790    2.0790 ha        1 ISM      0.109000
     20 H6          0.1940    0.4450    2.0310 ha        1 ISM      0.120000
     21 H81C       -1.8240    1.2650    0.5740 hc        1 ISM      0.156500
     22 H82C       -1.8010    0.7730   -0.9450 hc        1 ISM      0.156500
     23 H101       -4.6230   -2.2360    1.4920 h1        1 ISM      0.076000
     24 H102       -3.1260   -2.5890    1.9450 h1        1 ISM      0.076000
     25 H103       -3.5610   -2.7600    0.4120 h1        1 ISM      0.076000
@<TRIPOS>BOND
     1    1    2 1   
     2    2   15 1   
     3    3    4 1   
     4    3    9 1   
     5    4    5 1   
     6    4   16 1   
     7    5    7 1   
     8    6   17 1   
     9    6   18 1   
    10    7    8 1   
    11    7   19 1   
    12    8   20 1   
    13    9   10 1   
    14   10   11 1   
    15   10   21 1   
    16   10   22 1   
    17   11   12 1   
    18   11   13 1   
    19   13   14 1   
    20   14   23 1   
    21   14   24 1   
    22   14   25 1   
@<TRIPOS>SUBSTRUCTURE
     1 ISM         1 TEMP              0 ****  ****    0 ROOT
