@<TRIPOS>MOLECULE
ISM
   25    25     1     0     0
SMALL
bcc


@<TRIPOS>ATOM
      1 O1          0.5610    0.7360   -0.8400 o         1 ISM     -0.830300
      2 C1          1.7610    0.8240   -0.4520 c         1 ISM      0.907200
      3 C2          2.1390    0.2720    0.9200 ca        1 ISM     -0.096600
      4 C3          3.4260    0.5390    1.3870 ca        1 ISM     -0.149000
      5 C4          3.8730    0.0580    2.6350 ca        1 ISM      0.072600
      6 N1          5.1540    0.3960    3.1290 nh        1 ISM     -0.799200
      7 C5          2.9880   -0.7180    3.4110 ca        1 ISM     -0.188000
      8 C6          1.7040   -0.9780    2.9470 ca        1 ISM     -0.130000
      9 C7          1.2640   -0.4940    1.7120 ca        1 ISM     -0.077300
     10 C8         -0.1130   -0.7610    1.2200 c3        1 ISM     -0.072100
     11 C9         -0.9050   -1.6840    2.0920 c         1 ISM      0.639100
     12 O2         -0.8730   -2.9140    2.1980 o         1 ISM     -0.574000
     13 O3         -1.8470   -1.0290    2.8530 os        1 ISM     -0.445900
     14 C10        -2.6720   -1.8290    3.6900 c3        1 ISM      0.128700
     15 OX0         2.6810    1.3480   -1.1420 o         1 ISM     -0.830300
     16 H3          4.0850    1.1420    0.7380 ha        1 ISM      0.159000
     17 H11N        5.5580   -0.3510    3.6560 hn        1 ISM      0.357800
     18 H12N        5.7700    0.6810    2.3940 hn        1 ISM      0.357800
     19 H5          3.3020   -1.1150    4.3860 ha        1 ISM      0.109000
     20 H6          1.0280   -1.5850    3.5700 ha        1 ISM      0.114000
     21 H81C       -0.0600   -1.2150    0.1880 hc        1 ISM      0.118200
     22 H82C       -0.6560    0.2200    1.1060 hc        1 ISM      0.118200
     23 H101       -3.2580   -2.5540    3.0750 h1        1 ISM      0.036367
     24 H102       -2.0450   -2.3840    4.4300 h1        1 ISM      0.036367
     25 H103       -3.3420   -1.0930    4.1980 h1        1 ISM      0.036367
@<TRIPOS>BOND
     1    1    2 1   
     2    2    3 1   
     3    2   15 1   
     4    3    4 ar  
     5    3    9 ar  
     6    4    5 ar  
     7    4   16 1   
     8    5    6 1   
     9    5    7 ar  
    10    6   17 1   
    11    6   18 1   
    12    7    8 ar  
    13    7   19 1   
    14    8    9 ar  
    15    8   20 1   
    16    9   10 1   
    17   10   11 1   
    18   10   21 1   
    19   10   22 1   
    20   11   12 2   
    21   11   13 1   
    22   13   14 1   
    23   14   23 1   
    24   14   24 1   
    25   14   25 1   
@<TRIPOS>SUBSTRUCTURE
     1 ISM         1 TEMP              0 ****  ****    0 ROOT
