@<TRIPOS>MOLECULE
ISM
   25    25     1     0     0
SMALL
bcc


@<TRIPOS>ATOM
      1 O1         -0.3230   -2.7790   -0.9760 o         1 ISM     -0.830300
      2 C1          0.8710   -2.3890   -0.8320 c         1 ISM      0.907200
      3 C2          1.1330   -0.9490   -0.3980 ca        1 ISM     -0.096600
      4 C3          2.4550   -0.5030   -0.4170 ca        1 ISM     -0.149000
      5 C4          2.7990    0.8040   -0.0180 ca        1 ISM      0.072600
      6 N1          4.1320    1.2670   -0.1110 nh        1 ISM     -0.799200
      7 C5          1.7700    1.6660    0.4150 ca        1 ISM     -0.188000
      8 C6          0.4530    1.2220    0.4290 ca        1 ISM     -0.130000
      9 C7          0.1170   -0.0740    0.0280 ca        1 ISM     -0.077300
     10 C8         -1.2930   -0.5460    0.0300 c3        1 ISM     -0.072100
     11 C9         -2.2620    0.4320    0.6160 c         1 ISM      0.639100
     12 O2         -2.5180    0.7020    1.7930 o         1 ISM     -0.574000
     13 O3         -3.0100    1.0850   -0.3380 os        1 ISM     -0.445900
     14 C10        -3.9830    2.0110    0.1280 c3        1 ISM      0.128700
     15 OX0         1.8750   -3.1310   -1.0250 o         1 ISM     -0.830300
     16 H3          3.2250   -1.2180   -0.7550 ha        1 ISM      0.159000
     17 H11N        4.7840    0.5100   -0.1420 hn        1 ISM      0.357800
     18 H12N        4.3580    1.8970    0.6310 hn        1 ISM      0.357800
     19 H5          2.0000    2.6900    0.7390 ha        1 ISM      0.109000
     20 H6         -0.3350    1.9110    0.7710 ha        1 ISM      0.114000
     21 H81C       -1.5930   -0.7990   -1.0270 hc        1 ISM      0.118200
     22 H82C       -1.3650   -1.5060    0.6180 hc        1 ISM      0.118200
     23 H101       -4.4520    2.4070   -0.8060 h1        1 ISM      0.036367
     24 H102       -4.7350    1.4910    0.7690 h1        1 ISM      0.036367
     25 H103       -3.4910    2.8270    0.7110 h1        1 ISM      0.036367
@<TRIPOS>BOND
     1    1    2 1   
     2    2    3 1   
     3    2   15 1   
     4    3    4 ar  
     5    3    9 ar  
     6    4    5 ar  
     7    4   16 1   
     8    5    6 1   
     9    5    7 ar  
    10    6   17 1   
    11    6   18 1   
    12    7    8 ar  
    13    7   19 1   
    14    8    9 ar  
    15    8   20 1   
    16    9   10 1   
    17   10   11 1   
    18   10   21 1   
    19   10   22 1   
    20   11   12 2   
    21   11   13 1   
    22   13   14 1   
    23   14   23 1   
    24   14   24 1   
    25   14   25 1   
@<TRIPOS>SUBSTRUCTURE
     1 ISM         1 TEMP              0 ****  ****    0 ROOT
