@<TRIPOS>MOLECULE
ISM
   25    25     1     0     0
SMALL
bcc


@<TRIPOS>ATOM
      1 O1          0.7670    0.0730   -1.0840 o         1 ISM     -0.829300
      2 C1          1.7320    0.6320   -0.4880 c         1 ISM      0.907200
      3 C2          2.1640    0.0970    0.8750 ca        1 ISM     -0.093600
      4 C3          3.4430    0.4260    1.3210 ca        1 ISM     -0.150000
      5 C4          3.9260   -0.0220    2.5680 ca        1 ISM      0.074600
      6 N1          5.2490    0.2590    2.9790 nv        1 ISM     -0.799200
      7 C5          3.0800   -0.8160    3.3690 ca        1 ISM     -0.191000
      8 C6          1.8050   -1.1450    2.9210 ca        1 ISM     -0.130000
      9 C7          1.3310   -0.6950    1.6860 ca        1 ISM     -0.081300
     10 C8         -0.0310   -1.0380    1.1960 c3        1 ISM     -0.072100
     11 C9         -0.9000   -1.7090    2.2130 c         1 ISM      0.640100
     12 O2         -0.9080   -2.8740    2.6210 o         1 ISM     -0.577000
     13 O3         -1.8710   -0.8770    2.7210 os        1 ISM     -0.442900
     14 C10        -2.7670   -1.4350    3.6730 c3        1 ISM      0.128700
     15 OX0         2.3730    1.6140   -0.9570 o         1 ISM     -0.829300
     16 H3          4.0630    1.0590    0.6630 ha        1 ISM      0.156000
     17 H11N        5.3120    0.3850    3.9680 hn        1 ISM      0.357800
     18 H12N        5.6260    1.0500    2.4970 hn        1 ISM      0.357800
     19 H5          3.4220   -1.1870    4.3450 ha        1 ISM      0.109000
     20 H6          1.1670   -1.7790    3.5560 ha        1 ISM      0.120000
     21 H81C        0.0630   -1.7240    0.3050 hc        1 ISM      0.117200
     22 H82C       -0.5360   -0.1020    0.8230 hc        1 ISM      0.117200
     23 H101       -3.4480   -0.5890    3.9360 h1        1 ISM      0.036700
     24 H102       -2.2040   -1.7950    4.5680 h1        1 ISM      0.036700
     25 H103       -3.3330   -2.2840    3.2180 h1        1 ISM      0.036700
@<TRIPOS>BOND
     1    1    2 1   
     2    2    3 1   
     3    2   15 1   
     4    3    4 ar  
     5    3    9 ar  
     6    4    5 ar  
     7    4   16 1   
     8    5    6 1   
     9    5    7 ar  
    10    6   17 1   
    11    6   18 1   
    12    7    8 ar  
    13    7   19 1   
    14    8    9 ar  
    15    8   20 1   
    16    9   10 1   
    17   10   11 1   
    18   10   21 1   
    19   10   22 1   
    20   11   12 2   
    21   11   13 1   
    22   13   14 1   
    23   14   23 1   
    24   14   24 1   
    25   14   25 1   
@<TRIPOS>SUBSTRUCTURE
     1 ISM         1 TEMP              0 ****  ****    0 ROOT
