@<TRIPOS>MOLECULE
ISN
   16    17     1     0     0
SMALL
bcc


@<TRIPOS>ATOM
      1 C1         -0.5810   -0.0010    0.3020 ca        1 ISN     -0.245600
      2 C2         -1.3970   -0.0020    1.4170 ca        1 ISN     -0.014000
      3 C3         -0.8010   -0.0010    2.6860 ca        1 ISN     -0.183000
      4 C4          0.5850    0.0010    2.8220 ca        1 ISN     -0.058000
      5 C5          1.4350    0.0020    1.7090 ca        1 ISN     -0.186000
      6 N1          1.4680    0.0010   -0.8180 n         1 ISN     -0.487100
      7 C6          0.8520    0.0010    0.4430 ca        1 ISN      0.103600
      8 C7         -0.8970   -0.0010   -1.1380 c         1 ISN      0.530700
      9 C10         0.4910    0.0000   -1.8350 c         1 ISN      0.602500
     10 O8         -1.9710   -0.0030   -1.7190 o         1 ISN     -0.447100
     11 O11         0.7410    0.0000   -3.0390 o         1 ISN     -0.542500
     12 H2         -2.4920   -0.0030    1.3080 ha        1 ISN      0.153000
     13 H3         -1.4400   -0.0010    3.5820 ha        1 ISN      0.143000
     14 H4          1.0310    0.0010    3.8290 ha        1 ISN      0.139000
     15 H5          2.5250    0.0030    1.8380 ha        1 ISN      0.146000
     16 H1          2.4440    0.0020   -0.9610 hn        1 ISN      0.345500
@<TRIPOS>BOND
     1    1    2 ar  
     2    1    7 ar  
     3    1    8 1   
     4    2    3 ar  
     5    2   12 1   
     6    3    4 ar  
     7    3   13 1   
     8    4    5 ar  
     9    4   14 1   
    10    5    7 ar  
    11    5   15 1   
    12    6    7 1   
    13    6    9 1   
    14    6   16 1   
    15    8    9 1   
    16    8   10 2   
    17    9   11 2   
@<TRIPOS>SUBSTRUCTURE
     1 ISN         1 TEMP              0 ****  ****    0 ROOT
