@<TRIPOS>MOLECULE
ISN
   16    17     1     0     0
SMALL
bcc


@<TRIPOS>ATOM
      1 C1          0.0180   -0.0020   -0.0170 ca        1 ISN     -0.245600
      2 C2          1.3990   -0.0020   -0.0250 ca        1 ISN     -0.014000
      3 C3          2.0800   -0.0010    1.2000 ca        1 ISN     -0.183000
      4 C4          1.3790    0.0000    2.4040 ca        1 ISN     -0.058000
      5 C5         -0.0210    0.0000    2.4410 ca        1 ISN     -0.186000
      6 N1         -2.0890   -0.0010    0.9890 n         1 ISN     -0.487100
      7 C6         -0.7060   -0.0010    1.2270 ca        1 ISN      0.103600
      8 C7         -0.9640   -0.0030   -1.1150 c         1 ISN      0.530700
      9 C10        -2.3420   -0.0020   -0.3980 c         1 ISN      0.602500
     10 O8         -0.8060   -0.0050   -2.3260 o         1 ISN     -0.447100
     11 O11        -3.4640   -0.0030   -0.9010 o         1 ISN     -0.542500
     12 H2          1.9530   -0.0030   -0.9770 ha        1 ISN      0.153000
     13 H3          3.1800   -0.0010    1.2070 ha        1 ISN      0.143000
     14 H4          1.9340    0.0010    3.3560 ha        1 ISN      0.139000
     15 H5         -0.5550    0.0010    3.4010 ha        1 ISN      0.146000
     16 H1         -2.7770   -0.0000    1.6960 hn        1 ISN      0.345500
@<TRIPOS>BOND
     1    1    2 ar  
     2    1    7 ar  
     3    1    8 1   
     4    2    3 ar  
     5    2   12 1   
     6    3    4 ar  
     7    3   13 1   
     8    4    5 ar  
     9    4   14 1   
    10    5    7 ar  
    11    5   15 1   
    12    6    7 1   
    13    6    9 1   
    14    6   16 1   
    15    8    9 1   
    16    8   10 2   
    17    9   11 2   
@<TRIPOS>SUBSTRUCTURE
     1 ISN         1 TEMP              0 ****  ****    0 ROOT
