@<TRIPOS>MOLECULE
ISO
   23    23     1     0     0
SMALL
bcc


@<TRIPOS>ATOM
      1 C1         -0.0550    0.0430   -0.0410 ca        1 ISO      0.132600
      2 N1         -0.7610    0.1390   -1.2460 nv        1 ISO     -0.816200
      3 C2          1.3560    0.1260   -0.0190 ca        1 ISO     -0.188500
      4 C3          2.0430    0.1240    1.1890 ca        1 ISO     -0.089500
      5 C4          1.3620    0.0340    2.4070 ca        1 ISO     -0.116300
      6 C5         -0.0340   -0.0550    2.3900 ca        1 ISO     -0.089500
      7 C6         -0.7390   -0.0560    1.1930 ca        1 ISO     -0.188500
      8 C1'         2.1200    0.0340    3.6970 c3        1 ISO     -0.016400
      9 C2'         1.7400    1.2270    4.5530 c3        1 ISO     -0.087100
     10 C3'         1.8990   -1.2590    4.4600 c3        1 ISO     -0.087100
     11 HN11       -0.2380   -0.1390   -2.0470 hn        1 ISO      0.385800
     12 HN12       -1.6710   -0.2640   -1.2170 hn        1 ISO      0.385800
     13 H2          1.9200    0.2010   -0.9610 ha        1 ISO      0.130000
     14 H3          3.1420    0.1950    1.1810 ha        1 ISO      0.129500
     15 H5         -0.5850   -0.1270    3.3410 ha        1 ISO      0.129500
     16 H6         -1.8370   -0.1230    1.2130 ha        1 ISO      0.130000
     17 H1'         3.2220    0.1130    3.4650 hc        1 ISO      0.047700
     18 H2'1        2.3410    1.2290    5.4940 hc        1 ISO      0.034867
     19 H2'2        1.9330    2.1780    4.0030 hc        1 ISO      0.034867
     20 H2'3        0.6570    1.1880    4.8240 hc        1 ISO      0.034867
     21 H3'1        2.4990   -1.2540    5.4020 hc        1 ISO      0.034867
     22 H3'2        2.2090   -2.1340    3.8420 hc        1 ISO      0.034867
     23 H3'3        0.8210   -1.3780    4.7280 hc        1 ISO      0.034867
@<TRIPOS>BOND
     1    1    2 1   
     2    1    3 ar  
     3    1    7 ar  
     4    2   11 1   
     5    2   12 1   
     6    3    4 ar  
     7    3   13 1   
     8    4    5 ar  
     9    4   14 1   
    10    5    6 ar  
    11    5    8 1   
    12    6    7 ar  
    13    6   15 1   
    14    7   16 1   
    15    8    9 1   
    16    8   10 1   
    17    8   17 1   
    18    9   18 1   
    19    9   19 1   
    20    9   20 1   
    21   10   21 1   
    22   10   22 1   
    23   10   23 1   
@<TRIPOS>SUBSTRUCTURE
     1 ISO         1 TEMP              0 ****  ****    0 ROOT
