@<TRIPOS>MOLECULE
ISO
   23    23     1     0     0
SMALL
bcc


@<TRIPOS>ATOM
      1 C1         -2.1530   -0.0850    0.0510 ca        1 ISO      0.132600
      2 N1         -3.5410   -0.2300    0.1610 nh        1 ISO     -0.816200
      3 C2         -1.5580    1.1970    0.0360 ca        1 ISO     -0.188500
      4 C3         -0.1750    1.3320    0.0210 ca        1 ISO     -0.089500
      5 C4          0.6600    0.2090    0.0130 ca        1 ISO     -0.116300
      6 C5          0.0750   -1.0620    0.0200 ca        1 ISO     -0.089500
      7 C6         -1.3050   -1.2170    0.0350 ca        1 ISO     -0.188500
      8 C1'         2.1460    0.3750   -0.0040 c3        1 ISO     -0.016400
      9 C2'         2.7770   -0.2310    1.2360 c3        1 ISO     -0.087100
     10 C3'         2.7500   -0.2330   -1.2560 c3        1 ISO     -0.087100
     11 HN11       -4.0600    0.5510   -0.1750 hn        1 ISO      0.385800
     12 HN12       -3.8870   -1.1010   -0.1770 hn        1 ISO      0.385800
     13 H2         -2.1880    2.0990    0.0460 ha        1 ISO      0.130000
     14 H3          0.2660    2.3410    0.0150 ha        1 ISO      0.129500
     15 H5          0.7180   -1.9550    0.0130 ha        1 ISO      0.129500
     16 H6         -1.7350   -2.2290    0.0440 ha        1 ISO      0.130000
     17 H1'         2.3840    1.4790   -0.0070 hc        1 ISO      0.047700
     18 H2'1        2.5830   -1.3300    1.2790 hc        1 ISO      0.034867
     19 H2'2        3.8810   -0.0650    1.2240 hc        1 ISO      0.034867
     20 H2'3        2.3550    0.2390    2.1560 hc        1 ISO      0.034867
     21 H3'1        3.8540   -0.0690   -1.2670 hc        1 ISO      0.034867
     22 H3'2        2.5540   -1.3320   -1.2940 hc        1 ISO      0.034867
     23 H3'3        2.3090    0.2360   -2.1680 hc        1 ISO      0.034867
@<TRIPOS>BOND
     1    1    2 1   
     2    1    3 ar  
     3    1    7 ar  
     4    2   11 1   
     5    2   12 1   
     6    3    4 ar  
     7    3   13 1   
     8    4    5 ar  
     9    4   14 1   
    10    5    6 ar  
    11    5    8 1   
    12    6    7 ar  
    13    6   15 1   
    14    7   16 1   
    15    8    9 1   
    16    8   10 1   
    17    8   17 1   
    18    9   18 1   
    19    9   19 1   
    20    9   20 1   
    21   10   21 1   
    22   10   22 1   
    23   10   23 1   
@<TRIPOS>SUBSTRUCTURE
     1 ISO         1 TEMP              0 ****  ****    0 ROOT
