@<TRIPOS>MOLECULE
ISO
   24    24     1     0     0
SMALL
bcc


@<TRIPOS>ATOM
      1 C1         -0.0040    0.0130   -0.0160 ca        1 ISO     -0.094400
      2 N1         -0.7260    0.0340   -1.2890 n4        1 ISO     -0.697000
      3 C2          1.4000   -0.0340   -0.0150 ca        1 ISO     -0.094000
      4 C3          2.0750   -0.0430    1.2020 ca        1 ISO     -0.106000
      5 C4          1.3740   -0.0050    2.4160 ca        1 ISO      0.006700
      6 C5         -0.0280    0.0410    2.3930 ca        1 ISO     -0.106000
      7 C6         -0.7250    0.0500    1.1910 ca        1 ISO     -0.094000
      8 C1'         2.1190   -0.0150    3.7150 c3        1 ISO     -0.042400
      9 C2'         1.8430    1.2520    4.5050 c3        1 ISO     -0.095100
     10 C3'         1.7620   -1.2430    4.5320 c3        1 ISO     -0.095100
     11 HN11       -1.6240   -0.4520   -1.1880 hn        1 ISO      0.462133
     12 HN12       -0.1700   -0.4310   -2.0140 hn        1 ISO      0.462133
     13 H2          1.9780   -0.0660   -0.9530 ha        1 ISO      0.156000
     14 H3          3.1780   -0.0800    1.2050 ha        1 ISO      0.174000
     15 H5         -0.5890    0.0690    3.3440 ha        1 ISO      0.174000
     16 H6         -1.8270    0.0840    1.2030 ha        1 ISO      0.156000
     17 H1'         3.2260   -0.0530    3.4940 hc        1 ISO      0.071700
     18 H2'1        2.4400    1.2410    5.4490 hc        1 ISO      0.050033
     19 H2'2        0.7610    1.3260    4.7720 hc        1 ISO      0.050033
     20 H2'3        2.1290    2.1550    3.9140 hc        1 ISO      0.050033
     21 H3'1        1.9890   -2.1750    3.9620 hc        1 ISO      0.050033
     22 H3'2        0.6780   -1.2420    4.8000 hc        1 ISO      0.050033
     23 H3'3        2.3590   -1.2500    5.4760 hc        1 ISO      0.050033
     24 H13        -0.8990    1.0060   -1.5690 hn        1 ISO      0.462133
@<TRIPOS>BOND
     1    1    2 1   
     2    1    3 ar  
     3    1    7 ar  
     4    2   11 1   
     5    2   12 1   
     6    2   24 1   
     7    3    4 ar  
     8    3   13 1   
     9    4    5 ar  
    10    4   14 1   
    11    5    6 ar  
    12    5    8 1   
    13    6    7 ar  
    14    6   15 1   
    15    7   16 1   
    16    8    9 1   
    17    8   10 1   
    18    8   17 1   
    19    9   18 1   
    20    9   19 1   
    21    9   20 1   
    22   10   21 1   
    23   10   22 1   
    24   10   23 1   
@<TRIPOS>SUBSTRUCTURE
     1 ISO         1 TEMP              0 ****  ****    0 ROOT
