@<TRIPOS>MOLECULE
ISO
   23    23     1     0     0
SMALL
bcc


@<TRIPOS>ATOM
      1 C1         -0.0400    0.0530   -0.0470 ca        1 ISO      0.132600
      2 N1         -0.7330    0.1640   -1.2590 nh        1 ISO     -0.816200
      3 C2          1.3730    0.0340   -0.0190 ca        1 ISO     -0.188500
      4 C3          2.0540    0.0190    1.1920 ca        1 ISO     -0.089500
      5 C4          1.3630    0.0140    2.4090 ca        1 ISO     -0.116300
      6 C5         -0.0360    0.0250    2.3850 ca        1 ISO     -0.089500
      7 C6         -0.7340    0.0400    1.1850 ca        1 ISO     -0.188500
      8 C1'         2.1140   -0.0030    3.7020 c3        1 ISO     -0.016400
      9 C2'         1.8160    1.2380    4.5220 c3        1 ISO     -0.087100
     10 C3'         1.7980   -1.2540    4.5000 c3        1 ISO     -0.087100
     11 HN11       -0.2280   -0.1750   -2.0490 hn        1 ISO      0.385800
     12 HN12       -1.6700   -0.1720   -1.2240 hn        1 ISO      0.385800
     13 H2          1.9440    0.0420   -0.9600 ha        1 ISO      0.130000
     14 H3          3.1550    0.0100    1.1880 ha        1 ISO      0.129500
     15 H5         -0.5940    0.0210    3.3340 ha        1 ISO      0.129500
     16 H6         -1.8340    0.0520    1.2000 ha        1 ISO      0.130000
     17 H1'         3.2200   -0.0090    3.4740 hc        1 ISO      0.047700
     18 H2'1        2.4130    1.2250    5.4660 hc        1 ISO      0.034867
     19 H2'2        2.0770    2.1570    3.9460 hc        1 ISO      0.034867
     20 H2'3        0.7320    1.2830    4.7890 hc        1 ISO      0.034867
     21 H3'1        2.3930   -1.2650    5.4450 hc        1 ISO      0.034867
     22 H3'2        2.0490   -2.1670    3.9090 hc        1 ISO      0.034867
     23 H3'3        0.7140   -1.2900    4.7640 hc        1 ISO      0.034867
@<TRIPOS>BOND
     1    1    2 1   
     2    1    3 ar  
     3    1    7 ar  
     4    2   11 1   
     5    2   12 1   
     6    3    4 ar  
     7    3   13 1   
     8    4    5 ar  
     9    4   14 1   
    10    5    6 ar  
    11    5    8 1   
    12    6    7 ar  
    13    6   15 1   
    14    7   16 1   
    15    8    9 1   
    16    8   10 1   
    17    8   17 1   
    18    9   18 1   
    19    9   19 1   
    20    9   20 1   
    21   10   21 1   
    22   10   22 1   
    23   10   23 1   
@<TRIPOS>SUBSTRUCTURE
     1 ISO         1 TEMP              0 ****  ****    0 ROOT
