@<TRIPOS>MOLECULE
ISP
   15    14     1     0     0
SMALL
bcc


@<TRIPOS>ATOM
      1 C1         -1.2490   -0.1620    2.3640 c3        1 ISP     -0.108100
      2 C2         -0.0120    0.1360    1.5080 c3        1 ISP      0.235100
      3 C3          1.2340    0.0240    2.3930 c3        1 ISP     -0.108100
      4 P           0.0230    0.0630   -1.1020 p5        1 ISP      1.312900
      5 O1P         0.0650   -0.7360    0.4490 os        1 ISP     -0.560200
      6 O2P         0.1210   -1.0930   -2.0580 o         1 ISP     -0.936167
      7 O3P        -1.3040    0.7740   -1.0320 o         1 ISP     -0.936167
      8 O4P         1.2280    0.9630   -1.0030 o         1 ISP     -0.936167
      9 H11        -1.2130   -1.2060    2.7530 hc        1 ISP      0.000033
     10 H12        -1.3080    0.5400    3.2310 hc        1 ISP      0.000033
     11 H13        -2.1600   -0.0450    1.7320 hc        1 ISP      0.000033
     12 H2         -0.0880    1.2030    1.1350 h1        1 ISP      0.037700
     13 H31         1.3450   -1.0160    2.7830 hc        1 ISP      0.000033
     14 H32         2.1320    0.2750    1.7820 hc        1 ISP      0.000033
     15 H33         1.1680    0.7240    3.2600 hc        1 ISP      0.000033
@<TRIPOS>BOND
     1    1    2 1   
     2    1    9 1   
     3    1   10 1   
     4    1   11 1   
     5    2    3 1   
     6    2    5 1   
     7    2   12 1   
     8    3   13 1   
     9    3   14 1   
    10    3   15 1   
    11    4    5 1   
    12    4    6 1   
    13    4    7 1   
    14    4    8 1   
@<TRIPOS>SUBSTRUCTURE
     1 ISP         1 TEMP              0 ****  ****    0 ROOT
