@<TRIPOS>MOLECULE
ISP
   15    13     1     0     0
SMALL
bcc


@<TRIPOS>ATOM
      1 C1         -1.6780   -0.2680    0.2330 c3        1 ISP     -0.226000
      2 C2         -0.1650   -0.2680    0.2330 c3        1 ISP      0.124000
      3 C3          0.3390   -0.2680    1.6600 c3        1 ISP     -0.226000
      4 P           1.2100    0.6930   -1.7110 p3        1 ISP      2.505000
      5 O1P         0.3040    0.8810   -0.4300 o         1 ISP     -0.722000
      6 O2P         1.6000    2.0470   -2.2540 o         1 ISP     -1.255667
      7 O3P         0.4420   -0.0690   -2.7640 o         1 ISP     -1.255667
      8 O4P         2.4550   -0.0770   -1.3390 o         1 ISP     -1.255667
      9 H11        -2.0030   -1.0670    0.6900 hc        1 ISP      0.039333
     10 H12        -2.0030    0.5270    0.6970 hc        1 ISP      0.039333
     11 H13        -2.0030   -0.2640   -0.6870 hc        1 ISP      0.039333
     12 H2          0.1600   -1.0650   -0.2270 h1        1 ISP      0.077000
     13 H31         0.0100    0.5270    2.1210 hc        1 ISP      0.039333
     14 H32         0.0180   -1.0670    2.1180 hc        1 ISP      0.039333
     15 H33         1.3150   -0.2630    1.6600 hc        1 ISP      0.039333
@<TRIPOS>BOND
     1    1    2 1   
     2    1    9 1   
     3    1   10 1   
     4    1   11 1   
     5    2    3 1   
     6    2    5 1   
     7    2   12 1   
     8    3   13 1   
     9    3   14 1   
    10    3   15 1   
    11    4    6 1   
    12    4    7 1   
    13    4    8 1   
@<TRIPOS>SUBSTRUCTURE
     1 ISP         1 TEMP              0 ****  ****    0 ROOT
