@<TRIPOS>MOLECULE
ISP
   15    14     1     0     0
SMALL
bcc


@<TRIPOS>ATOM
      1 C1         -0.0070   -0.0120    0.0090 c3        1 ISP     -0.108100
      2 C2          1.5260    0.0020   -0.0070 c3        1 ISP      0.235100
      3 C3          2.0310   -0.0130    1.4400 c3        1 ISP     -0.108100
      4 P           2.9840   -0.6240   -2.0810 p5        1 ISP      1.312900
      5 O1P         2.0140   -1.0770   -0.7030 os        1 ISP     -0.560200
      6 O2P         3.3780   -1.9610   -2.6450 o         1 ISP     -0.936167
      7 O3P         1.9970    0.1850   -2.8830 o         1 ISP     -0.936167
      8 O4P         4.0750    0.1810   -1.4230 o         1 ISP     -0.936167
      9 H11        -0.3830   -0.9500    0.4800 hc        1 ISP      0.000033
     10 H12        -0.3770    0.0360   -1.0420 hc        1 ISP      0.000033
     11 H13        -0.4050    0.8600    0.5830 hc        1 ISP      0.000033
     12 H2          1.8660    0.9690   -0.4910 h1        1 ISP      0.037700
     13 H31         1.7160   -0.9520    1.9540 hc        1 ISP      0.000033
     14 H32         3.1460    0.0340    1.4320 hc        1 ISP      0.000033
     15 H33         1.6270    0.8580    2.0100 hc        1 ISP      0.000033
@<TRIPOS>BOND
     1    1    2 1   
     2    1    9 1   
     3    1   10 1   
     4    1   11 1   
     5    2    3 1   
     6    2    5 1   
     7    2   12 1   
     8    3   13 1   
     9    3   14 1   
    10    3   15 1   
    11    4    5 1   
    12    4    6 1   
    13    4    7 1   
    14    4    8 1   
@<TRIPOS>SUBSTRUCTURE
     1 ISP         1 TEMP              0 ****  ****    0 ROOT
