@<TRIPOS>MOLECULE
ISQ
   17    13     1     0     0
SMALL
bcc


@<TRIPOS>ATOM
      1 C1          0.5030   -0.0000   -1.9620 c1        1 ISQ      0.340300
      2 N2          1.8700   -0.0000   -1.9620 n1        1 ISQ     -0.463800
      3 C3          2.5570   -0.0000   -0.7760 c1        1 ISQ     -0.065250
      4 C4          1.8650   -0.0000    0.4290 c1        1 ISQ     -0.065250
      5 C4A         0.4790   -0.0000    0.4320 cg        1 ISQ     -0.054500
      6 C5         -0.2270   -0.0000    1.6550 c1        1 ISQ     -0.055000
      7 C6         -1.6120   -0.0000    1.6550 c1        1 ISQ     -0.065250
      8 C7         -2.3040    0.0000    0.4570 c1        1 ISQ     -0.065250
      9 C8         -1.6120    0.0000   -0.7430 c1        1 ISQ     -0.055000
     10 C8A        -0.2010   -0.0000   -0.7440 cg        1 ISQ     -0.054500
     11 H1          0.0150   -0.0000   -2.8070 ha        1 ISQ      0.101500
     12 H3          3.5330   -0.0000   -0.7780 ha        1 ISQ      0.085750
     13 H4          2.3550    0.0000    1.2730 ha        1 ISQ      0.085750
     14 H5          0.2620   -0.0000    2.5000 ha        1 ISQ      0.079000
     15 H6         -2.0990   -0.0000    2.5010 ha        1 ISQ      0.085750
     16 H7         -3.2800    0.0000    0.4580 ha        1 ISQ      0.085750
     17 H8         -2.1010    0.0000   -1.5880 ha        1 ISQ      0.079000
@<TRIPOS>BOND
     1    1    2 3   
     2    1   11 1   
     3    3    4 3   
     4    3   12 1   
     5    4   13 1   
     6    5    6 3   
     7    5   10 1   
     8    6   14 1   
     9    7    8 3   
    10    7   15 1   
    11    8   16 1   
    12    9   10 3   
    13    9   17 1   
@<TRIPOS>SUBSTRUCTURE
     1 ISQ         1 TEMP              0 ****  ****    0 ROOT
