@<TRIPOS>MOLECULE
ISQ
   17    18     1     0     0
SMALL
bcc


@<TRIPOS>ATOM
      1 C1         -1.3540    0.0000    1.2600 ca        1 ISQ      0.422200
      2 N2         -0.7190    0.0000    2.4210 nb        1 ISQ     -0.664000
      3 C3          0.6520    0.0000    2.3970 ca        1 ISQ      0.382200
      4 C4          1.4000   -0.0000    1.2340 ca        1 ISQ     -0.229300
      5 C4A         0.7270   -0.0000   -0.0190 ca        1 ISQ     -0.013000
      6 C5          1.4130   -0.0010   -1.2630 ca        1 ISQ     -0.125000
      7 C6          0.7060   -0.0010   -2.4410 ca        1 ISQ     -0.112000
      8 C7         -0.7100   -0.0010   -2.4330 ca        1 ISQ     -0.132000
      9 C8         -1.3980   -0.0000   -1.2430 ca        1 ISQ     -0.100000
     10 C8A        -0.6920   -0.0000   -0.0140 ca        1 ISQ     -0.161300
     11 H1         -2.4590    0.0000    1.2960 h4        1 ISQ      0.022100
     12 H3          1.1290    0.0000    3.3930 h4        1 ISQ      0.022100
     13 H4          2.4980   -0.0000    1.2620 ha        1 ISQ      0.143000
     14 H5          2.5130   -0.0010   -1.2610 ha        1 ISQ      0.137000
     15 H6          1.2320   -0.0010   -3.4080 ha        1 ISQ      0.135000
     16 H7         -1.2490   -0.0010   -3.3920 ha        1 ISQ      0.136000
     17 H8         -2.4980   -0.0000   -1.2240 ha        1 ISQ      0.136000
@<TRIPOS>BOND
     1    1    2 ar  
     2    1   10 ar  
     3    1   11 1   
     4    2    3 ar  
     5    3    4 ar  
     6    3   12 1   
     7    4    5 ar  
     8    4   13 1   
     9    5    6 ar  
    10    5   10 ar  
    11    6    7 ar  
    12    6   14 1   
    13    7    8 ar  
    14    7   15 1   
    15    8    9 ar  
    16    8   16 1   
    17    9   10 ar  
    18    9   17 1   
@<TRIPOS>SUBSTRUCTURE
     1 ISQ         1 TEMP              0 ****  ****    0 ROOT
