@<TRIPOS>MOLECULE
ISS
   23    22     1     0     0
SMALL
bcc


@<TRIPOS>ATOM
      1 CAG        -0.5280   -0.3290   -0.5150 c         1 ISS      0.554100
      2 OAH        -0.9080    0.6280   -1.1830 o         1 ISS     -0.455100
      3 CAI        -1.0890   -0.6150    0.8370 ce        1 ISS     -0.170200
      4 CAJ        -1.7950    0.3220    1.4860 c2        1 ISS     -0.084000
      5 NAK        -2.3610    0.1410    2.8160 ny        1 ISS     -0.640800
      6 CAL        -3.8300    0.4230    2.8370 c3        1 ISS     -0.023200
      7 CAM        -4.5080   -0.0630    4.1220 c         1 ISS      0.570100
      8 OAN        -3.8740   -0.7380    4.9330 o         1 ISS     -0.500100
      9 CAO        -5.9290    0.3590    4.2310 c3        1 ISS     -0.184400
     10 CAP        -6.6320   -0.3050    5.4110 c3        1 ISS      0.143400
     11 OAQ        -7.9410    0.2340    5.4200 oh        1 ISS     -0.596800
     12 HAG         0.2470   -1.0490   -0.8560 h4        1 ISS      0.061200
     13 HAI        -0.8740   -1.6220    1.2360 ha        1 ISS      0.171000
     14 HAJ        -2.0040    1.3260    1.0540 hx        1 ISS      0.218000
     15 HNAK       -2.2090   -0.8210    3.1620 hn        1 ISS      0.467800
     16 HAL        -3.9860    1.5340    2.7220 hx        1 ISS      0.134200
     17 HALA       -4.3110   -0.0980    1.9570 hx        1 ISS      0.134200
     18 HAO        -5.9760    1.4760    4.3600 hc        1 ISS      0.105700
     19 HAOA       -6.4800    0.1120    3.2840 hc        1 ISS      0.105700
     20 HAP        -6.6650   -1.4180    5.2720 h1        1 ISS      0.046200
     21 HAPA       -6.0970   -0.0690    6.3690 h1        1 ISS      0.046200
     22 HOAQ       -8.4020   -0.1600    6.1730 ho        1 ISS      0.428000
     23 HAK2       -1.8880    0.7810    3.4710 hn        1 ISS      0.467800
@<TRIPOS>BOND
     1    1    2 2   
     2    1    3 1   
     3    1   12 1   
     4    3    4 2   
     5    3   13 1   
     6    4    5 1   
     7    4   14 1   
     8    5    6 1   
     9    5   15 1   
    10    5   23 1   
    11    6    7 1   
    12    6   16 1   
    13    6   17 1   
    14    7    8 2   
    15    7    9 1   
    16    9   10 1   
    17    9   18 1   
    18    9   19 1   
    19   10   11 1   
    20   10   20 1   
    21   10   21 1   
    22   11   22 1   
@<TRIPOS>SUBSTRUCTURE
     1 ISS         1 TEMP              0 ****  ****    0 ROOT
