@<TRIPOS>MOLECULE
ISS
   23    22     1     0     0
SMALL
bcc


@<TRIPOS>ATOM
      1 CAG        -0.5270    0.3100   -0.5170 c         1 ISS      0.554100
      2 OAH        -0.9170   -0.6420   -1.1870 o         1 ISS     -0.455100
      3 CAI        -1.0850    0.5970    0.8370 ce        1 ISS     -0.170200
      4 CAJ        -1.7990   -0.3360    1.4830 c2        1 ISS     -0.084000
      5 NAK        -2.3630   -0.1540    2.8140 n4        1 ISS     -0.639800
      6 CAL        -3.8350   -0.4210    2.8340 c3        1 ISS     -0.023200
      7 CAM        -4.5060    0.0650    4.1220 c         1 ISS      0.570100
      8 OAN        -3.8650    0.7280    4.9380 o         1 ISS     -0.500100
      9 CAO        -5.9320   -0.3420    4.2310 c3        1 ISS     -0.184400
     10 CAP        -6.6260    0.3200    5.4160 c3        1 ISS      0.143400
     11 OAQ        -7.9420   -0.2020    5.4220 oh        1 ISS     -0.596800
     12 HAG         0.2530    1.0240   -0.8560 h4        1 ISS      0.061200
     13 HAI        -0.8600    1.6000    1.2390 ha        1 ISS      0.171000
     14 HAJ        -2.0180   -1.3350    1.0470 hx        1 ISS      0.218000
     15 HNAK       -1.8960   -0.8010    3.4660 hn        1 ISS      0.467800
     16 HAL        -4.3100    0.1100    1.9580 hx        1 ISS      0.134200
     17 HALA       -4.0020   -1.5300    2.7150 hx        1 ISS      0.134200
     18 HAO        -5.9920   -1.4600    4.3500 hc        1 ISS      0.105200
     19 HAOA       -6.4810   -0.0810    3.2860 hc        1 ISS      0.105200
     20 HAP        -6.0940    0.0690    6.3720 h1        1 ISS      0.046200
     21 HAPA       -6.6450    1.4350    5.2880 h1        1 ISS      0.046200
     22 HOAQ       -8.3970    0.1910    6.1780 ho        1 ISS      0.428000
     23 HAK2       -2.2010    0.8050    3.1630 hn        1 ISS      0.467800
@<TRIPOS>BOND
     1    1    2 2   
     2    1    3 1   
     3    1   12 1   
     4    3    4 2   
     5    3   13 1   
     6    4    5 1   
     7    4   14 1   
     8    5    6 1   
     9    5   15 1   
    10    5   23 1   
    11    6    7 1   
    12    6   16 1   
    13    6   17 1   
    14    7    8 2   
    15    7    9 1   
    16    9   10 1   
    17    9   18 1   
    18    9   19 1   
    19   10   11 1   
    20   10   20 1   
    21   10   21 1   
    22   11   22 1   
@<TRIPOS>SUBSTRUCTURE
     1 ISS         1 TEMP              0 ****  ****    0 ROOT
