@<TRIPOS>MOLECULE
ISS
   22    19     1     0     0
SMALL
bcc


@<TRIPOS>ATOM
      1 CAG         1.0240    3.8250   -1.4780 c1        1 ISS      0.224000
      2 OAH         2.2370    3.8260   -1.5990 o         1 ISS     -0.303000
      3 CAI         0.4040    3.8190   -0.1000 c1        1 ISS     -0.159000
      4 CAJ        -0.0310    2.6390    0.4550 c1        1 ISS     -0.159000
      5 NAK         0.1050    1.3960   -0.2830 n2        1 ISS     -0.284000
      6 CAL         0.5640    0.2010    0.3960 c3        1 ISS     -0.098000
      7 CAM        -0.4020   -0.9280    0.1420 c2        1 ISS      0.196000
      8 OAN        -1.5600   -0.6850   -0.1250 o         1 ISS     -0.283000
      9 CAO         0.1060   -2.3830    0.1150 c3        1 ISS     -0.216000
     10 CAP        -1.0450   -3.3270    0.4080 c3        1 ISS     -0.012000
     11 OAQ        -0.5580   -4.6470    0.4950 oh        1 ISS     -0.333000
     12 HAG         0.4520    3.9020   -2.2710 ha        1 ISS      0.072000
     13 HAI         0.3130    4.6560    0.3980 ha        1 ISS      0.146000
     14 HAJ        -0.4320    2.6370    1.3480 ha        1 ISS      0.146000
     15 HNAK       -0.1870    1.3440   -1.1410 hn        1 ISS      0.216000
     16 HAL         0.6170    0.3730    1.3580 h1        1 ISS      0.119500
     17 HALA        1.4430   -0.0450    0.0610 h1        1 ISS      0.119500
     18 HAO         0.8090   -2.4990    0.8000 hc        1 ISS      0.123000
     19 HAOA        0.4790   -2.5840   -0.7740 hc        1 ISS      0.123000
     20 HAP        -1.4610   -3.0800    1.2470 h1        1 ISS      0.078000
     21 HAPA       -1.6980   -3.2700   -0.3060 h1        1 ISS      0.078000
     22 HOAQ       -1.1810   -5.1690    0.8530 ho        1 ISS      0.207000
@<TRIPOS>BOND
     1    1    2 1   
     2    1   12 1   
     3    3    4 1   
     4    3   13 1   
     5    4   14 1   
     6    5    6 1   
     7    5   15 1   
     8    6    7 1   
     9    6   16 1   
    10    6   17 1   
    11    7    8 1   
    12    7    9 1   
    13    9   10 1   
    14    9   18 1   
    15    9   19 1   
    16   10   11 1   
    17   10   20 1   
    18   10   21 1   
    19   11   22 1   
@<TRIPOS>SUBSTRUCTURE
     1 ISS         1 TEMP              0 ****  ****    0 ROOT
