@<TRIPOS>MOLECULE
ISS
   22    21     1     0     0
SMALL
bcc


@<TRIPOS>ATOM
      1 CAG        -4.0700   -0.2440    1.0140 c         1 ISS      0.577100
      2 OAH        -5.0900    0.4000    1.2790 o         1 ISS     -0.541100
      3 CAI        -3.0510    0.2200    0.0810 ce        1 ISS     -0.371200
      4 CAJ        -1.9440   -0.5190   -0.1730 c2        1 ISS      0.112000
      5 NAK        -0.9960   -0.2200   -1.1370 nh        1 ISS     -0.726000
      6 CAL         0.3290   -0.7650   -1.0170 c3        1 ISS      0.088800
      7 CAM         1.3810    0.1540   -0.4080 c         1 ISS      0.534100
      8 OAN         1.2210    1.3730   -0.3180 o         1 ISS     -0.521100
      9 CAO         2.6190   -0.5590    0.0390 c3        1 ISS     -0.187400
     10 CAP         3.7380    0.4070    0.3900 c3        1 ISS      0.138400
     11 OAQ         4.8260   -0.3830    0.8420 oh        1 ISS     -0.605800
     12 HAG        -3.8810   -1.2340    1.4920 h4        1 ISS     -0.021800
     13 HAI        -3.2410    1.1910   -0.4030 ha        1 ISS      0.154000
     14 HAJ        -1.7830   -1.4860    0.3480 h4        1 ISS      0.135000
     15 HNAK       -1.0130    0.7200   -1.4840 hn        1 ISS      0.423800
     16 HAL         0.3040   -1.7250   -0.4280 h1        1 ISS      0.079700
     17 HALA        0.6860   -1.0090   -2.0620 h1        1 ISS      0.079700
     18 HAO         2.3740   -1.1860    0.9390 hc        1 ISS      0.083700
     19 HAOA        2.9640   -1.2580   -0.7680 hc        1 ISS      0.083700
     20 HAP         4.0400    1.0020   -0.5130 h1        1 ISS      0.038700
     21 HAPA        3.4050    1.1140    1.1950 h1        1 ISS      0.038700
     22 HOAQ        5.5250    0.2310    1.0960 ho        1 ISS      0.408000
@<TRIPOS>BOND
     1    1    2 2   
     2    1    3 1   
     3    1   12 1   
     4    3    4 2   
     5    3   13 1   
     6    4    5 1   
     7    4   14 1   
     8    5    6 1   
     9    5   15 1   
    10    6    7 1   
    11    6   16 1   
    12    6   17 1   
    13    7    8 2   
    14    7    9 1   
    15    9   10 1   
    16    9   18 1   
    17    9   19 1   
    18   10   11 1   
    19   10   20 1   
    20   10   21 1   
    21   11   22 1   
@<TRIPOS>SUBSTRUCTURE
     1 ISS         1 TEMP              0 ****  ****    0 ROOT
