@<TRIPOS>MOLECULE
ISS
   23    22     1     0     0
SMALL
bcc


@<TRIPOS>ATOM
      1 CAG        -0.4820   -0.3710   -0.4660 c         1 ISS      0.554100
      2 OAH        -0.9340    0.4860   -1.2190 o         1 ISS     -0.455100
      3 CAI        -1.0300   -0.5780    0.9060 ce        1 ISS     -0.170200
      4 CAJ        -1.8150    0.3530    1.4670 c2        1 ISS     -0.084000
      5 NAK        -2.3760    0.2480    2.8070 n4        1 ISS     -0.640800
      6 CAL        -3.8630    0.4100    2.8000 c3        1 ISS     -0.023200
      7 CAM        -4.5100   -0.0160    4.1220 c         1 ISS      0.570100
      8 OAN        -3.8310   -0.5650    4.9900 o         1 ISS     -0.500100
      9 CAO        -5.9610    0.2990    4.1930 c3        1 ISS     -0.184400
     10 CAP        -6.6200   -0.3210    5.4200 c3        1 ISS      0.143400
     11 OAQ        -7.9660    0.1150    5.3850 oh        1 ISS     -0.596800
     12 HAG         0.3520   -1.0530   -0.7380 h4        1 ISS      0.061200
     13 HAI        -0.7370   -1.5240    1.3960 ha        1 ISS      0.171000
     14 HAJ        -2.1010    1.2930    0.9440 hx        1 ISS      0.218000
     15 HNAK       -2.1490   -0.6620    3.2390 hn        1 ISS      0.467800
     16 HAL        -4.1080    1.4900    2.5880 hx        1 ISS      0.134200
     17 HALA       -4.2910   -0.2240    1.9700 hx        1 ISS      0.134200
     18 HAO        -6.0970    1.4160    4.2300 hc        1 ISS      0.105700
     19 HAOA       -6.4820   -0.0660    3.2670 hc        1 ISS      0.105700
     20 HAP        -6.5670   -1.4410    5.3710 h1        1 ISS      0.046200
     21 HAPA       -6.1120    0.0310    6.3580 h1        1 ISS      0.046200
     22 HOAQ       -8.4010   -0.2520    6.1660 ho        1 ISS      0.428000
     23 HAK2       -1.9610    0.9820    3.4010 hn        1 ISS      0.467800
@<TRIPOS>BOND
     1    1    2 2   
     2    1    3 1   
     3    1   12 1   
     4    3    4 2   
     5    3   13 1   
     6    4    5 1   
     7    4   14 1   
     8    5    6 1   
     9    5   15 1   
    10    5   23 1   
    11    6    7 1   
    12    6   16 1   
    13    6   17 1   
    14    7    8 2   
    15    7    9 1   
    16    9   10 1   
    17    9   18 1   
    18    9   19 1   
    19   10   11 1   
    20   10   20 1   
    21   10   21 1   
    22   11   22 1   
@<TRIPOS>SUBSTRUCTURE
     1 ISS         1 TEMP              0 ****  ****    0 ROOT
