@<TRIPOS>MOLECULE
IST
   29    28     1     0     0
SMALL
bcc


@<TRIPOS>ATOM
      1 C2          0.0620    0.4960    0.3570 c3        1 IST     -0.096100
      2 C5          1.4620    0.0060    0.0860 c3        1 IST     -0.076400
      3 C8          2.3180   -0.0580    1.3430 c3        1 IST     -0.104700
      4 C10         3.7850   -0.0180    0.9720 c3        1 IST     -0.094100
      5 CA1         1.9650   -1.2960    2.1980 c3        1 IST      0.120500
      6 C16         2.3710   -1.0260    3.6740 c3        1 IST      0.156100
      7 O18         1.6920    0.1130    4.1650 oh        1 IST     -0.594800
      8 CA2         2.1050   -2.2390    4.5660 c3        1 IST     -0.201400
      9 C23         0.7100   -2.7510    4.3660 c         1 IST      0.634100
     10 O24         0.4970   -3.9560    3.7680 oh        1 IST     -0.576100
     11 O25        -0.3260   -2.1710    4.7040 o         1 IST     -0.518000
     12 N11         2.4960   -2.5620    1.7300 n3        1 IST     -0.915800
     13 H21        -0.5110    0.5640   -0.5990 hc        1 IST      0.037367
     14 H23        -0.4840   -0.1960    1.0430 hc        1 IST      0.037367
     15 H22         0.0830    1.5090    0.8280 hc        1 IST      0.037367
     16 H51         1.9530    0.7010   -0.6470 hc        1 IST      0.037700
     17 H52         1.4210   -1.0030   -0.4010 hc        1 IST      0.037700
     18 H8          2.0870    0.8480    1.9770 hc        1 IST      0.081700
     19 H101        4.4270   -0.2080    1.8660 hc        1 IST      0.034700
     20 H102        4.0260   -0.7780    0.1900 hc        1 IST      0.034700
     21 H103        4.0460    0.9890    0.5640 hc        1 IST      0.034700
     22 HA1         0.8350   -1.3990    2.1890 h1        1 IST      0.071700
     23 H16         3.4610   -0.7480    3.7360 h1        1 IST      0.080700
     24 H18         0.7540   -0.1140    4.2430 ho        1 IST      0.423000
     25 HA21        2.8590   -3.0400    4.3570 hc        1 IST      0.084200
     26 HA22        2.2120   -1.9250    5.6400 hc        1 IST      0.084200
     27 H11         2.1470   -2.7560    0.8110 hn        1 IST      0.353300
     28 H12         1.3260   -4.2900    3.3950 ho        1 IST      0.442000
     29 H113        3.4980   -2.5280    1.6890 hn        1 IST      0.353300
@<TRIPOS>BOND
     1    1    2 1   
     2    1   13 1   
     3    1   14 1   
     4    1   15 1   
     5    2    3 1   
     6    2   16 1   
     7    2   17 1   
     8    3    4 1   
     9    3    5 1   
    10    3   18 1   
    11    4   19 1   
    12    4   20 1   
    13    4   21 1   
    14    5    6 1   
    15    5   12 1   
    16    5   22 1   
    17    6    7 1   
    18    6    8 1   
    19    6   23 1   
    20    7   24 1   
    21    8    9 1   
    22    8   25 1   
    23    8   26 1   
    24    9   10 1   
    25    9   11 2   
    26   10   28 1   
    27   12   27 1   
    28   12   29 1   
@<TRIPOS>SUBSTRUCTURE
     1 IST         1 TEMP              0 ****  ****    0 ROOT
