@<TRIPOS>MOLECULE
IST
   29    28     1     0     0
SMALL
bcc


@<TRIPOS>ATOM
      1 C2          0.0980    0.5370    0.3600 c3        1 IST     -0.096100
      2 C5          1.4930    0.0320    0.0960 c3        1 IST     -0.076400
      3 C8          2.3370   -0.0570    1.3600 c3        1 IST     -0.104700
      4 C10         3.8080   -0.0310    1.0030 c3        1 IST     -0.094100
      5 CA1         1.9610   -1.2990    2.1980 c3        1 IST      0.120500
      6 C16         2.3560   -1.0500    3.6810 c3        1 IST      0.156100
      7 O18         1.6860    0.0910    4.1780 oh        1 IST     -0.594800
      8 CA2         2.0670   -2.2700    4.5570 c3        1 IST     -0.201400
      9 C23         0.6670   -2.7620    4.3380 c         1 IST      0.634100
     10 O24         0.4450   -3.9580    3.7250 oh        1 IST     -0.576100
     11 O25        -0.3650   -2.1740    4.6720 o         1 IST     -0.518000
     12 N11         2.4800   -2.5670    1.7210 n3        1 IST     -0.915800
     13 H21         0.1280    1.5450    0.8400 hc        1 IST      0.037367
     14 H23        -0.4630   -0.1540    1.0330 hc        1 IST      0.037367
     15 H22        -0.4660    0.6220   -0.6010 hc        1 IST      0.037367
     16 H51         2.0000    0.7280   -0.6260 hc        1 IST      0.037700
     17 H52         1.4430   -0.9720   -0.4020 hc        1 IST      0.037700
     18 H8          2.1120    0.8450    2.0020 hc        1 IST      0.081700
     19 H101        4.0460   -0.7860    0.2150 hc        1 IST      0.034700
     20 H102        4.0850    0.9770    0.6090 hc        1 IST      0.034700
     21 H103        4.4390   -0.2400    1.9010 hc        1 IST      0.034700
     22 HA1         0.8300   -1.3880    2.1770 h1        1 IST      0.071700
     23 H16         3.4480   -0.7860    3.7550 h1        1 IST      0.080700
     24 H18         0.7440   -0.1250    4.2450 ho        1 IST      0.423000
     25 HA21        2.8130   -3.0780    4.3460 hc        1 IST      0.084200
     26 HA22        2.1670   -1.9690    5.6350 hc        1 IST      0.084200
     27 H11         1.2740   -4.2990    3.3560 ho        1 IST      0.442000
     28 H12         3.4820   -2.5450    1.6900 hn        1 IST      0.353300
     29 H113        2.1370   -2.7470    0.7970 hn        1 IST      0.353300
@<TRIPOS>BOND
     1    1    2 1   
     2    1   13 1   
     3    1   14 1   
     4    1   15 1   
     5    2    3 1   
     6    2   16 1   
     7    2   17 1   
     8    3    4 1   
     9    3    5 1   
    10    3   18 1   
    11    4   19 1   
    12    4   20 1   
    13    4   21 1   
    14    5    6 1   
    15    5   12 1   
    16    5   22 1   
    17    6    7 1   
    18    6    8 1   
    19    6   23 1   
    20    7   24 1   
    21    8    9 1   
    22    8   25 1   
    23    8   26 1   
    24    9   10 1   
    25    9   11 2   
    26   10   27 1   
    27   12   28 1   
    28   12   29 1   
@<TRIPOS>SUBSTRUCTURE
     1 IST         1 TEMP              0 ****  ****    0 ROOT
