@<TRIPOS>MOLECULE
IST
   29    28     1     0     0
SMALL
bcc


@<TRIPOS>ATOM
      1 C2          0.1380    0.5580    0.3420 c3        1 IST     -0.096100
      2 C5          1.5330    0.0440    0.0980 c3        1 IST     -0.076400
      3 C8          2.3560   -0.0580    1.3750 c3        1 IST     -0.104700
      4 C10         3.8330   -0.0410    1.0420 c3        1 IST     -0.094100
      5 CA1         1.9580   -1.3020    2.2000 c3        1 IST      0.120500
      6 C16         2.3310   -1.0640    3.6900 c3        1 IST      0.156100
      7 O18         1.6620    0.0810    4.1830 oh        1 IST     -0.594800
      8 CA2         2.0190   -2.2860    4.5550 c3        1 IST     -0.201400
      9 C23         0.6190   -2.7660    4.3120 c         1 IST      0.634100
     10 O24         0.3980   -3.9570    3.6890 oh        1 IST     -0.576100
     11 O25        -0.4140   -2.1710    4.6330 o         1 IST     -0.518000
     12 N11         2.4750   -2.5710    1.7250 n8        1 IST     -0.915800
     13 H21         0.1660    1.5630    0.8290 hc        1 IST      0.037367
     14 H23        -0.4390   -0.1340    1.0030 hc        1 IST      0.037367
     15 H22        -0.4110    0.6510   -0.6270 hc        1 IST      0.037367
     16 H51         2.0560    0.7400   -0.6120 hc        1 IST      0.037700
     17 H52         1.4840   -0.9570   -0.4060 hc        1 IST      0.037700
     18 H8          2.1270    0.8420    2.0180 hc        1 IST      0.081700
     19 H101        4.4470   -0.2590    1.9480 hc        1 IST      0.034700
     20 H102        4.0780   -0.7930    0.2530 hc        1 IST      0.034700
     21 H103        4.1240    0.9670    0.6570 hc        1 IST      0.034700
     22 HA1         0.8260   -1.3820    2.1610 h1        1 IST      0.071700
     23 H16         3.4240   -0.8080    3.7840 h1        1 IST      0.080700
     24 H18         0.7180   -0.1290    4.2340 ho        1 IST      0.423000
     25 HA21        2.7620   -3.0980    4.3520 hc        1 IST      0.084200
     26 HA22        2.1040   -1.9910    5.6360 hc        1 IST      0.084200
     27 H11         3.4780   -2.5560    1.7100 hn        1 IST      0.353300
     28 H12         1.2300   -4.3020    3.3310 ho        1 IST      0.442000
     29 H113        2.1450   -2.7430    0.7940 hn        1 IST      0.353300
@<TRIPOS>BOND
     1    1    2 1   
     2    1   13 1   
     3    1   14 1   
     4    1   15 1   
     5    2    3 1   
     6    2   16 1   
     7    2   17 1   
     8    3    4 1   
     9    3    5 1   
    10    3   18 1   
    11    4   19 1   
    12    4   20 1   
    13    4   21 1   
    14    5    6 1   
    15    5   12 1   
    16    5   22 1   
    17    6    7 1   
    18    6    8 1   
    19    6   23 1   
    20    7   24 1   
    21    8    9 1   
    22    8   25 1   
    23    8   26 1   
    24    9   10 1   
    25    9   11 2   
    26   10   28 1   
    27   12   27 1   
    28   12   29 1   
@<TRIPOS>SUBSTRUCTURE
     1 IST         1 TEMP              0 ****  ****    0 ROOT
