@<TRIPOS>MOLECULE
IST
   28    27     1     0     0
SMALL
bcc


@<TRIPOS>ATOM
      1 C2          0.7260   -2.5200    1.5430 c3        1 IST     -0.091100
      2 C5          1.0010   -1.7480    2.8080 c3        1 IST     -0.071400
      3 C8          1.4910   -0.3330    2.5320 c3        1 IST     -0.058700
      4 C10         2.2770    0.1770    3.7210 c3        1 IST     -0.080100
      5 CA1         0.3200    0.6010    2.1510 c3        1 IST      0.138500
      6 C16         0.8900    1.7930    1.3230 c3        1 IST      0.136100
      7 O18         1.3080    1.3170    0.0530 oh        1 IST     -0.644800
      8 CA2        -0.1150    2.9250    1.1730 c3        1 IST     -0.242400
      9 C23        -1.4700    2.3880    0.6810 c         1 IST      0.904600
     10 O24        -2.4710    2.5100    1.4430 o         1 IST     -0.846300
     11 O25        -1.5020    1.8280   -0.4550 o         1 IST     -0.846300
     12 N11        -0.5000    0.9690    3.2880 n3        1 IST     -0.915800
     13 H21        -0.0620   -2.0150    0.9320 hc        1 IST      0.028367
     14 H23         1.6490   -2.6020    0.9200 hc        1 IST      0.028367
     15 H22         0.3740   -3.5520    1.7880 hc        1 IST      0.028367
     16 H51         1.7800   -2.2950    3.4050 hc        1 IST      0.033700
     17 H52         0.0720   -1.7060    3.4350 hc        1 IST      0.033700
     18 H8          2.1750   -0.3570    1.6350 hc        1 IST      0.056700
     19 H101        2.5200    1.2600    3.5980 hc        1 IST      0.022033
     20 H102        3.2350   -0.3890    3.8220 hc        1 IST      0.022033
     21 H103        1.6960    0.0510    4.6670 hc        1 IST      0.022033
     22 HA1        -0.3510    0.0290    1.4380 h1        1 IST      0.079700
     23 H16         1.8350    2.1740    1.8040 h1        1 IST      0.026700
     24 H18         0.5040    1.2290   -0.4910 ho        1 IST      0.445000
     25 HA21        0.2720    3.6540    0.4180 hc        1 IST      0.035700
     26 HA22       -0.2460    3.4620    2.1440 hc        1 IST      0.035700
     27 H11        -1.3800    1.3380    2.9590 hn        1 IST      0.358300
     28 H12        -0.0390    1.6810    3.8230 hn        1 IST      0.358300
@<TRIPOS>BOND
     1    1    2 1   
     2    1   13 1   
     3    1   14 1   
     4    1   15 1   
     5    2    3 1   
     6    2   16 1   
     7    2   17 1   
     8    3    4 1   
     9    3    5 1   
    10    3   18 1   
    11    4   19 1   
    12    4   20 1   
    13    4   21 1   
    14    5    6 1   
    15    5   12 1   
    16    5   22 1   
    17    6    7 1   
    18    6    8 1   
    19    6   23 1   
    20    7   24 1   
    21    8    9 1   
    22    8   25 1   
    23    8   26 1   
    24    9   10 1   
    25    9   11 1   
    26   12   27 1   
    27   12   28 1   
@<TRIPOS>SUBSTRUCTURE
     1 IST         1 TEMP              0 ****  ****    0 ROOT
