@<TRIPOS>MOLECULE
IST
   28    27     1     0     0
SMALL
bcc


@<TRIPOS>ATOM
      1 C2         -2.7590    0.7080   -1.7790 c3        1 IST     -0.090100
      2 C5         -1.2470    0.7080   -1.7790 c3        1 IST     -0.072400
      3 C8         -0.7420    0.7080   -0.3530 c3        1 IST     -0.056700
      4 C10        -0.6020    2.1350    0.1330 c3        1 IST     -0.085100
      5 CA1         0.6040    0.0220   -0.2940 c3        1 IST      0.153500
      6 C16         0.7140   -0.7600    0.9940 c3        1 IST      0.141100
      7 O18        -0.5160   -1.3860    1.2700 oh        1 IST     -0.655800
      8 CA2         1.7940   -1.8100    0.8550 c3        1 IST     -0.242400
      9 C23         1.9260   -2.5730    2.1550 c         1 IST      0.910600
     10 O24         1.3790   -3.7000    2.2810 o         1 IST     -0.844800
     11 O25         2.5820   -2.0810    3.1100 o         1 IST     -0.844800
     12 N11         1.6370    0.9980   -0.3460 n3        1 IST     -0.904800
     13 H21        -3.0850   -0.0840   -1.3110 hc        1 IST      0.022700
     14 H23        -3.0850    0.6990   -2.7000 hc        1 IST      0.022700
     15 H22        -3.0850    1.5100   -1.3280 hc        1 IST      0.022700
     16 H51        -0.9210   -0.0890   -2.2400 hc        1 IST      0.039200
     17 H52        -0.9210    1.5050   -2.2400 hc        1 IST      0.039200
     18 H8         -1.3760    0.2310    0.2160 hc        1 IST      0.074700
     19 H101       -0.1080    2.6560   -0.5270 hc        1 IST      0.027033
     20 H102       -1.4890    2.5240    0.2570 hc        1 IST      0.027033
     21 H103       -0.1210    2.1440    0.9820 hc        1 IST      0.027033
     22 HA1         0.6920   -0.5860   -1.0520 h1        1 IST      0.057700
     23 H16         0.9420   -0.1540    1.7240 h1        1 IST      0.024700
     24 H18        -0.6890   -1.3290    2.1390 ho        1 IST      0.459000
     25 HA21        2.6430   -1.3770    0.6440 hc        1 IST      0.034200
     26 HA22        1.5570   -2.4280    0.1380 hc        1 IST      0.034200
     27 H11         2.2980    0.7730    0.2400 hn        1 IST      0.340800
     28 H12         1.9790    1.0350   -1.1910 hn        1 IST      0.340800
@<TRIPOS>BOND
     1    1    2 1   
     2    1   13 1   
     3    1   14 1   
     4    1   15 1   
     5    2    3 1   
     6    2   16 1   
     7    2   17 1   
     8    3    4 1   
     9    3    5 1   
    10    3   18 1   
    11    4   19 1   
    12    4   20 1   
    13    4   21 1   
    14    5    6 1   
    15    5   12 1   
    16    5   22 1   
    17    6    7 1   
    18    6    8 1   
    19    6   23 1   
    20    7   24 1   
    21    8    9 1   
    22    8   25 1   
    23    8   26 1   
    24    9   10 1   
    25    9   11 1   
    26   12   27 1   
    27   12   28 1   
@<TRIPOS>SUBSTRUCTURE
     1 IST         1 TEMP              0 ****  ****    0 ROOT
