@<TRIPOS>MOLECULE
ISU
   15    14     1     0     0
SMALL
bcc


@<TRIPOS>ATOM
      1 C1          0.0780   -0.0960    0.2230 c3        1 ISU     -0.109100
      2 C2          1.5390    0.0270   -0.0990 c3        1 ISU     -0.003300
      3 SE          2.3450   -0.0920    1.4840 ss        1 ISU     -0.183300
      4 C3          4.0200    0.0500    1.1060 c2        1 ISU      0.522100
      5 N1          4.8440   -0.0330    2.3610 n4        1 ISU     -0.816600
      6 N2          4.6860    0.2050    0.0260 n2        1 ISU     -0.737100
      7 HC11       -0.5140   -0.0320   -0.7260 hc        1 ISU      0.077700
      8 HC12       -0.2600    0.7280    0.8990 hc        1 ISU      0.077700
      9 HC13       -0.1500   -1.0780    0.7080 hc        1 ISU      0.077700
     10 HC21        1.7630    1.0080   -0.5850 h1        1 ISU      0.088700
     11 HC22        1.8730   -0.7970   -0.7760 h1        1 ISU      0.088700
     12 HN11        4.5610    0.7290    2.9900 hn        1 ISU      0.476467
     13 HN12        4.6630   -0.9370    2.8130 hn        1 ISU      0.476467
     14 HN2         4.2130    0.2690   -0.8500 hn        1 ISU      0.488400
     15 H13         5.8520    0.0500    2.1630 hn        1 ISU      0.476467
@<TRIPOS>BOND
     1    1    2 1   
     2    1    7 1   
     3    1    8 1   
     4    1    9 1   
     5    2    3 1   
     6    2   10 1   
     7    2   11 1   
     8    3    4 1   
     9    4    5 1   
    10    4    6 2   
    11    5   12 1   
    12    5   13 1   
    13    5   15 1   
    14    6   14 1   
@<TRIPOS>SUBSTRUCTURE
     1 ISU         1 TEMP              0 ****  ****    0 ROOT
