@<TRIPOS>MOLECULE
ISU
   14    12     1     0     0
SMALL
bcc


@<TRIPOS>ATOM
      1 C1         -2.4400    0.1150   -0.8200 c3        1 ISU     -0.091100
      2 C2         -0.9280    0.0790   -0.8330 c3        1 ISU      0.006700
      3 SE         -0.2710    0.2680    0.9540 ss        1 ISU     -0.355700
      4 C3          1.6380    0.1330    0.9500 c2        1 ISU      0.299600
      5 N1          2.2590   -1.1430    0.9950 nh        1 ISU     -0.821600
      6 N2          2.3700    1.2140    0.9050 n1        1 ISU     -0.279000
      7 HC11       -2.7440    0.9270   -0.3650 hc        1 ISU      0.049700
      8 HC12       -2.7750    0.1120   -1.7420 hc        1 ISU      0.049700
      9 HC13       -2.7810   -0.6730   -0.3470 hc        1 ISU      0.049700
     10 HC21       -0.6240   -0.7740   -1.2030 h1        1 ISU      0.068700
     11 HC22       -0.5890    0.8130   -1.3840 h1        1 ISU      0.068700
     12 HN11        1.7730   -1.8790    1.2330 hn        1 ISU      0.392800
     13 HN12        3.1430   -1.2280    0.7810 hn        1 ISU      0.392800
     14 HN2         1.9700    2.0360    0.8760 DU        1 ISU      0.169000
@<TRIPOS>BOND
     1    1    2 1   
     2    1    7 1   
     3    1    8 1   
     4    1    9 1   
     5    2    3 1   
     6    2   10 1   
     7    2   11 1   
     8    3    4 1   
     9    4    5 1   
    10    4    6 2   
    11    5   12 1   
    12    5   13 1   
@<TRIPOS>SUBSTRUCTURE
     1 ISU         1 TEMP              0 ****  ****    0 ROOT
