@<TRIPOS>MOLECULE
ISU
   15    14     1     0     0
SMALL
bcc


@<TRIPOS>ATOM
      1 C1          0.0820    0.1460    0.2160 c3        1 ISU     -0.109100
      2 C2          1.5410   -0.0080   -0.1020 c3        1 ISU     -0.003300
      3 SE          2.3450    0.1020    1.4820 ss        1 ISU     -0.183300
      4 C3          4.0170   -0.0770    1.1090 c2        1 ISU      0.522100
      5 N1          4.8400   -0.0060    2.3670 n4        1 ISU     -0.816600
      6 N2          4.6830   -0.2500    0.0320 n2        1 ISU     -0.737100
      7 HC11       -0.5090    0.0900   -0.7340 hc        1 ISU      0.077700
      8 HC12       -0.2750   -0.6680    0.8950 hc        1 ISU      0.077700
      9 HC13       -0.1270    1.1350    0.6960 hc        1 ISU      0.077700
     10 HC21        1.7460   -0.9960   -0.5820 h1        1 ISU      0.088700
     11 HC22        1.8930    0.8060   -0.7820 h1        1 ISU      0.088700
     12 HN11        4.6810    0.9050    2.8120 hn        1 ISU      0.476467
     13 HN12        4.5360   -0.7550    2.9990 hn        1 ISU      0.476467
     14 HN2         4.2120   -0.3070   -0.8450 hn        1 ISU      0.488400
     15 H13         5.8460   -0.1160    2.1720 hn        1 ISU      0.476467
@<TRIPOS>BOND
     1    1    2 1   
     2    1    7 1   
     3    1    8 1   
     4    1    9 1   
     5    2    3 1   
     6    2   10 1   
     7    2   11 1   
     8    3    4 1   
     9    4    5 1   
    10    4    6 2   
    11    5   12 1   
    12    5   13 1   
    13    5   15 1   
    14    6   14 1   
@<TRIPOS>SUBSTRUCTURE
     1 ISU         1 TEMP              0 ****  ****    0 ROOT
