@<TRIPOS>MOLECULE
ISU
   14    13     1     0     0
SMALL
bcc


@<TRIPOS>ATOM
      1 C1          0.4250   -0.0050    2.7060 c3        1 ISU     -0.094100
      2 C2          1.0810   -0.0030    1.3570 c3        1 ISU      0.005700
      3 SE         -0.2390   -0.0020    0.1710 ss        1 ISU     -0.255300
      4 C3          0.5490    0.0330   -1.4020 c2        1 ISU      0.645100
      5 N1         -0.3790    0.1780   -2.4480 nh        1 ISU     -0.938800
      6 N2          1.8420   -0.0070   -1.4700 n2        1 ISU     -0.861100
      7 HC11        1.2070   -0.0110    3.5050 hc        1 ISU      0.048367
      8 HC12       -0.2110    0.9030    2.8450 hc        1 ISU      0.048367
      9 HC13       -0.2170   -0.9110    2.8390 hc        1 ISU      0.048367
     10 HC21        1.7250    0.8990    1.2210 h1        1 ISU      0.080200
     11 HC22        1.7260   -0.9040    1.2190 h1        1 ISU      0.080200
     12 HN11       -0.0980   -0.1570   -3.3410 hn        1 ISU      0.401800
     13 HN12       -1.3230   -0.0300   -2.2130 hn        1 ISU      0.401800
     14 HN2         2.2560    0.0160   -2.3770 hn        1 ISU      0.391400
@<TRIPOS>BOND
     1    1    2 1   
     2    1    7 1   
     3    1    8 1   
     4    1    9 1   
     5    2    3 1   
     6    2   10 1   
     7    2   11 1   
     8    3    4 1   
     9    4    5 1   
    10    4    6 2   
    11    5   12 1   
    12    5   13 1   
    13    6   14 1   
@<TRIPOS>SUBSTRUCTURE
     1 ISU         1 TEMP              0 ****  ****    0 ROOT
