@<TRIPOS>MOLECULE
ISU
   15    14     1     0     0
SMALL
bcc


@<TRIPOS>ATOM
      1 C1          0.0800   -0.1530    0.2260 c3        1 ISU     -0.109100
      2 C2          1.5380   -0.0040   -0.0990 c3        1 ISU     -0.003300
      3 SE          2.3470   -0.0910    1.4850 ss        1 ISU     -0.183300
      4 C3          4.0190    0.0810    1.1040 c2        1 ISU      0.522100
      5 N1          4.8450    0.0270    2.3600 nz        1 ISU     -0.816600
      6 N2          4.6810    0.2390    0.0220 n2        1 ISU     -0.737100
      7 HC11       -0.5140   -0.1090   -0.7230 hc        1 ISU      0.077700
      8 HC12       -0.2740    0.6720    0.8940 hc        1 ISU      0.077700
      9 HC13       -0.1280   -1.1340    0.7200 hc        1 ISU      0.077700
     10 HC21        1.7430    0.9770   -0.5940 h1        1 ISU      0.088700
     11 HC22        1.8880   -0.8270   -0.7680 h1        1 ISU      0.088700
     12 HN11        4.5450    0.7860    2.9820 hn        1 ISU      0.476467
     13 HN12        4.6850   -0.8780    2.8190 hn        1 ISU      0.476467
     14 HN2         4.2070    0.2840   -0.8540 hn        1 ISU      0.488400
     15 H13         5.8510    0.1320    2.1610 hn        1 ISU      0.476467
@<TRIPOS>BOND
     1    1    2 1   
     2    1    7 1   
     3    1    8 1   
     4    1    9 1   
     5    2    3 1   
     6    2   10 1   
     7    2   11 1   
     8    3    4 1   
     9    4    5 1   
    10    4    6 2   
    11    5   12 1   
    12    5   13 1   
    13    5   15 1   
    14    6   14 1   
@<TRIPOS>SUBSTRUCTURE
     1 ISU         1 TEMP              0 ****  ****    0 ROOT
