@<TRIPOS>MOLECULE
ISX
   44    45     1     0     0
SMALL
bcc


@<TRIPOS>ATOM
      1 O6         -4.6360   -3.1330   -2.2740 oh        1 ISX     -0.599800
      2 C5         -0.9500   -2.2160    0.9290 c3        1 ISX      0.133800
      3 N5         -2.3870   -2.4490    1.1650 n3        1 ISX     -0.816200
      4 C4         -0.6670   -0.9630   -0.0290 c3        1 ISX      0.119100
      5 O4          0.5330   -0.7980   -0.2300 os        1 ISX     -0.395600
      6 C3         -1.4050   -1.5430   -1.3080 c3        1 ISX      0.145100
      7 O3         -1.2600   -0.6340   -2.3610 oh        1 ISX     -0.599800
      8 C2         -2.8670   -1.7850   -1.0790 c3        1 ISX     -0.134700
      9 C1         -3.1530   -1.8550    0.2350 c3        1 ISX      0.161800
     10 C1A         0.9630    0.3400    0.4520 c3        1 ISX      0.341900
     11 C2A         2.3660    0.1150    0.9370 c3        1 ISX      0.131100
     12 O2A         2.3550   -0.9220    1.9390 oh        1 ISX     -0.590800
     13 C3A         2.9730    1.3580    1.5260 c3        1 ISX      0.073100
     14 O3A         4.3650    1.1150    1.8060 oh        1 ISX     -0.601800
     15 C4A         2.8610    2.5410    0.5960 c3        1 ISX      0.075100
     16 O4A         3.3020    3.7160    1.2820 oh        1 ISX     -0.588800
     17 C5A         1.4540    2.7570    0.1100 c3        1 ISX      0.079100
     18 C6         -3.2950   -3.2180   -1.7980 c3        1 ISX      0.136400
     19 C6A         1.4690    3.8100   -0.9260 c3        1 ISX      0.141400
     20 O6A         0.4690    4.7450   -0.6560 oh        1 ISX     -0.596800
     21 O5A         0.8560    1.5270   -0.4650 os        1 ISX     -0.437600
     22 H6         -4.8680   -3.9110   -2.6510 ho        1 ISX      0.406000
     23 H5C1       -0.5610   -3.0260    0.5160 h1        1 ISX      0.059200
     24 H5C2       -0.5350   -2.0690    1.7440 h1        1 ISX      0.059200
     25 H5         -2.6200   -2.1220    2.0180 hn        1 ISX      0.360800
     26 H4         -1.1190   -0.1170    0.3190 h1        1 ISX      0.075700
     27 H3         -0.9710   -2.4060   -1.5650 h1        1 ISX      0.062700
     28 HA         -1.2450   -1.0540   -3.0950 ho        1 ISX      0.404000
     29 H2         -3.3880   -1.0470   -1.4890 hc        1 ISX      0.070700
     30 H1C1       -3.2700   -0.9000    0.5420 h1        1 ISX      0.040200
     31 H1C2       -4.0570   -2.2930    0.2990 h1        1 ISX      0.040200
     32 H1A         0.3970    0.4790    1.2030 h2        1 ISX      0.057700
     33 H2A         2.8900   -0.1640    0.2210 h1        1 ISX      0.081700
     34 HB          3.0410   -1.4050    1.8500 ho        1 ISX      0.425000
     35 H3A         2.5140    1.5680    2.3630 h1        1 ISX      0.049700
     36 HC          4.5210    1.2360    2.7040 ho        1 ISX      0.424000
     37 H4A         3.4280    2.3940   -0.1640 h1        1 ISX      0.106700
     38 HD          3.3070    3.5680    2.1340 ho        1 ISX      0.404000
     39 H5A         0.8890    3.0640    0.8770 h1        1 ISX      0.050700
     40 H6C1       -2.6890   -3.3990   -2.5540 h1        1 ISX      0.051700
     41 H6C2       -3.2250   -3.9670   -1.1270 h1        1 ISX      0.051700
     42 H6A1        2.3770    4.2720   -0.9230 h1        1 ISX      0.063200
     43 H6A2        1.3020    3.3820   -1.8600 h1        1 ISX      0.063200
     44 H6A         0.5360    5.4080   -1.2130 ho        1 ISX      0.418000
@<TRIPOS>BOND
     1    1   18 1   
     2    1   22 1   
     3    2    3 1   
     4    2    4 1   
     5    2   23 1   
     6    2   24 1   
     7    3    9 1   
     8    3   25 1   
     9    4    5 1   
    10    4    6 1   
    11    4   26 1   
    12    5   10 1   
    13    6    7 1   
    14    6    8 1   
    15    6   27 1   
    16    7   28 1   
    17    8    9 1   
    18    8   18 1   
    19    8   29 1   
    20    9   30 1   
    21    9   31 1   
    22   10   11 1   
    23   10   21 1   
    24   10   32 1   
    25   11   12 1   
    26   11   13 1   
    27   11   33 1   
    28   12   34 1   
    29   13   14 1   
    30   13   15 1   
    31   13   35 1   
    32   14   36 1   
    33   15   16 1   
    34   15   17 1   
    35   15   37 1   
    36   16   38 1   
    37   17   19 1   
    38   17   21 1   
    39   17   39 1   
    40   18   40 1   
    41   18   41 1   
    42   19   20 1   
    43   19   42 1   
    44   19   43 1   
    45   20   44 1   
@<TRIPOS>SUBSTRUCTURE
     1 ISX         1 TEMP              0 ****  ****    0 ROOT
