@<TRIPOS>MOLECULE
ISX
   44    45     1     0     0
SMALL
bcc


@<TRIPOS>ATOM
      1 O6          0.1000    0.4510    0.0710 oh        1 ISX     -0.604800
      2 C5          3.4460   -0.8110    3.7070 c3        1 ISX      0.150800
      3 N5          2.0510   -1.1230    3.4840 n3        1 ISX     -0.819200
      4 C4          3.7910    0.6230    3.2650 c3        1 ISX      0.111100
      5 O4          5.2220    0.7410    3.3340 os        1 ISX     -0.429600
      6 C3          3.3750    0.8610    1.8020 c3        1 ISX      0.140100
      7 O3          3.5480    2.2240    1.4480 oh        1 ISX     -0.609800
      8 C2          1.8920    0.5260    1.6300 c3        1 ISX     -0.063700
      9 C1          1.6130   -0.8990    2.1200 c3        1 ISX      0.161800
     10 C1A         5.6840    1.7440    4.2130 c3        1 ISX      0.309900
     11 C2A         7.2150    1.6010    4.3130 c3        1 ISX      0.088100
     12 O2A         7.5590    0.4940    5.1260 oh        1 ISX     -0.601800
     13 C3A         7.7840    2.8500    5.0020 c3        1 ISX      0.108100
     14 O3A         9.2000    2.8530    4.9520 oh        1 ISX     -0.604800
     15 C4A         7.3200    4.1150    4.2580 c3        1 ISX      0.122100
     16 O4A         7.6900    5.2740    4.9830 oh        1 ISX     -0.592800
     17 C5A         5.7880    4.1290    4.1440 c3        1 ISX      0.111100
     18 C6          1.5010    0.6620    0.1620 c3        1 ISX      0.134400
     19 C6A         5.3070    5.2660    3.2350 c3        1 ISX      0.143400
     20 O6A         3.9050    5.2540    3.1040 oh        1 ISX     -0.595800
     21 O5A         5.3250    2.9310    3.5190 os        1 ISX     -0.463600
     22 H6         -0.1720    0.7830   -0.7920 ho        1 ISX      0.402000
     23 H5C2        3.6510   -0.9080    4.8090 h1        1 ISX      0.037700
     24 H5          1.8650   -2.0700    3.7550 hn        1 ISX      0.370800
     25 H4          3.2900    1.3820    3.9240 h1        1 ISX      0.082700
     26 H3          4.0070    0.2170    1.1280 h1        1 ISX      0.044700
     27 HA          4.4740    2.4400    1.6310 ho        1 ISX      0.423000
     28 H2          1.2800    1.2550    2.2290 hc        1 ISX      0.090700
     29 H1C1        2.0940   -1.6220    1.3960 h1        1 ISX      0.043200
     30 H1C2        0.4990   -1.0680    2.0840 h1        1 ISX      0.043200
     31 H1A         5.1880    1.6990    5.2200 h2        1 ISX      0.062700
     32 H2A         7.6560    1.4830    3.2860 h1        1 ISX      0.076700
     33 HB          7.2110   -0.2910    4.6840 ho        1 ISX      0.424000
     34 H3A         7.4450    2.8820    6.0750 h1        1 ISX      0.065700
     35 HC          9.4930    2.0300    5.3650 ho        1 ISX      0.428000
     36 H4A         7.7900    4.1370    3.2350 h1        1 ISX      0.062700
     37 HD          8.6460    5.2170    5.1190 ho        1 ISX      0.426000
     38 H5A         5.3250    4.2210    5.1650 h1        1 ISX      0.071700
     39 H6C1        2.0310   -0.1050   -0.4650 h1        1 ISX      0.034200
     40 H6C2        1.7740    1.6890   -0.2010 h1        1 ISX      0.034200
     41 H6A1        5.7980    5.1830    2.2290 h1        1 ISX      0.061200
     42 H6A2        5.5630    6.2490    3.7130 h1        1 ISX      0.061200
     43 H6A         3.6590    4.4100    2.6970 ho        1 ISX      0.421000
     44 H5C1        4.1460   -1.5150    3.1660 h1        1 ISX      0.037700
@<TRIPOS>BOND
     1    1   18 1   
     2    1   22 1   
     3    2    3 1   
     4    2    4 1   
     5    2   23 1   
     6    2   44 1   
     7    3    9 1   
     8    3   24 1   
     9    4    5 1   
    10    4    6 1   
    11    4   25 1   
    12    5   10 1   
    13    6    7 1   
    14    6    8 1   
    15    6   26 1   
    16    7   27 1   
    17    8    9 1   
    18    8   18 1   
    19    8   28 1   
    20    9   29 1   
    21    9   30 1   
    22   10   11 1   
    23   10   21 1   
    24   10   31 1   
    25   11   12 1   
    26   11   13 1   
    27   11   32 1   
    28   12   33 1   
    29   13   14 1   
    30   13   15 1   
    31   13   34 1   
    32   14   35 1   
    33   15   16 1   
    34   15   17 1   
    35   15   36 1   
    36   16   37 1   
    37   17   19 1   
    38   17   21 1   
    39   17   38 1   
    40   18   39 1   
    41   18   40 1   
    42   19   20 1   
    43   19   41 1   
    44   19   42 1   
    45   20   43 1   
@<TRIPOS>SUBSTRUCTURE
     1 ISX         1 TEMP              0 ****  ****    0 ROOT
