@<TRIPOS>MOLECULE
ISX
   44    45     1     0     0
SMALL
bcc


@<TRIPOS>ATOM
      1 O6          0.1090    0.4830    0.0440 oh        1 ISX     -0.604800
      2 C5          3.4370   -0.8120    3.6850 c3        1 ISX      0.150800
      3 N5          2.0420   -1.1180    3.4540 n3        1 ISX     -0.819200
      4 C4          3.7880    0.6240    3.2540 c3        1 ISX      0.111100
      5 O4          5.2180    0.7380    3.3300 os        1 ISX     -0.429600
      6 C3          3.3780    0.8730    1.7910 c3        1 ISX      0.140100
      7 O3          3.5570    2.2380    1.4460 oh        1 ISX     -0.609800
      8 C2          1.8950    0.5430    1.6100 c3        1 ISX     -0.063700
      9 C1          1.6100   -0.8840    2.0910 c3        1 ISX      0.161800
     10 C1A         5.6790    1.7340    4.2160 c3        1 ISX      0.309900
     11 C2A         7.2100    1.5860    4.3220 c3        1 ISX      0.088100
     12 O2A         7.5480    0.4730    5.1290 oh        1 ISX     -0.601800
     13 C3A         7.7790    2.8290    5.0220 c3        1 ISX      0.108100
     14 O3A         9.1950    2.8280    4.9770 oh        1 ISX     -0.604800
     15 C4A         7.3220    4.1010    4.2840 c3        1 ISX      0.122100
     16 O4A         7.6930    5.2530    5.0180 oh        1 ISX     -0.592800
     17 C5A         5.7910    4.1190    4.1630 c3        1 ISX      0.111100
     18 C6          1.5100    0.6890    0.1410 c3        1 ISX      0.134400
     19 C6A         5.3170    5.2630    3.2600 c3        1 ISX      0.143400
     20 O6A         3.9150    5.2560    3.1230 oh        1 ISX     -0.595800
     21 O5A         5.3270    2.9270    3.5290 os        1 ISX     -0.463600
     22 H6         -0.1590    0.8210   -0.8180 ho        1 ISX      0.402000
     23 H5C2        3.6360   -0.9150    4.7880 h1        1 ISX      0.037700
     24 H5          1.8520   -2.0670    3.7190 hn        1 ISX      0.370800
     25 H4          3.2860    1.3800    3.9150 h1        1 ISX      0.082700
     26 H3          4.0110    0.2320    1.1150 h1        1 ISX      0.044700
     27 HA          4.4820    2.4500    1.6340 ho        1 ISX      0.423000
     28 H2          1.2830    1.2700    2.2120 hc        1 ISX      0.090700
     29 H1C1        2.0920   -1.6040    1.3640 h1        1 ISX      0.043200
     30 H1C2        0.4960   -1.0500    2.0490 h1        1 ISX      0.043200
     31 H1A         5.1790    1.6840    5.2220 h2        1 ISX      0.062700
     32 H2A         7.6550    1.4730    3.2960 h1        1 ISX      0.076700
     33 HB          7.1990   -0.3080    4.6800 ho        1 ISX      0.424000
     34 H3A         7.4360    2.8550    6.0930 h1        1 ISX      0.065700
     35 HC          9.4840    2.0020    5.3860 ho        1 ISX      0.428000
     36 H4A         7.7970    4.1280    3.2630 h1        1 ISX      0.062700
     37 HD          8.6480    5.1920    5.1570 ho        1 ISX      0.426000
     38 H5A         5.3240    4.2060    5.1830 h1        1 ISX      0.071700
     39 H6C1        2.0410   -0.0750   -0.4880 h1        1 ISX      0.034200
     40 H6C2        1.7880    1.7180   -0.2140 h1        1 ISX      0.034200
     41 H6A1        5.8120    5.1850    2.2560 h1        1 ISX      0.061200
     42 H6A2        5.5730    6.2420    3.7460 h1        1 ISX      0.061200
     43 H6A         3.6680    4.4160    2.7090 ho        1 ISX      0.421000
     44 H5C1        4.1380   -1.5140    3.1430 h1        1 ISX      0.037700
@<TRIPOS>BOND
     1    1   18 1   
     2    1   22 1   
     3    2    3 1   
     4    2    4 1   
     5    2   23 1   
     6    2   44 1   
     7    3    9 1   
     8    3   24 1   
     9    4    5 1   
    10    4    6 1   
    11    4   25 1   
    12    5   10 1   
    13    6    7 1   
    14    6    8 1   
    15    6   26 1   
    16    7   27 1   
    17    8    9 1   
    18    8   18 1   
    19    8   28 1   
    20    9   29 1   
    21    9   30 1   
    22   10   11 1   
    23   10   21 1   
    24   10   31 1   
    25   11   12 1   
    26   11   13 1   
    27   11   32 1   
    28   12   33 1   
    29   13   14 1   
    30   13   15 1   
    31   13   34 1   
    32   14   35 1   
    33   15   16 1   
    34   15   17 1   
    35   15   36 1   
    36   16   37 1   
    37   17   19 1   
    38   17   21 1   
    39   17   38 1   
    40   18   39 1   
    41   18   40 1   
    42   19   20 1   
    43   19   41 1   
    44   19   42 1   
    45   20   43 1   
@<TRIPOS>SUBSTRUCTURE
     1 ISX         1 TEMP              0 ****  ****    0 ROOT
