@<TRIPOS>MOLECULE
ISX
   44    45     1     0     0
SMALL
bcc


@<TRIPOS>ATOM
      1 O6          0.0870    0.4910    0.0720 oh        1 ISX     -0.604800
      2 C5          3.4420   -0.8140    3.6840 c3        1 ISX      0.150800
      3 N5          2.0460   -1.1200    3.4630 n7        1 ISX     -0.819200
      4 C4          3.7890    0.6230    3.2560 c3        1 ISX      0.111100
      5 O4          5.2200    0.7380    3.3210 os        1 ISX     -0.429600
      6 C3          3.3690    0.8770    1.7970 c3        1 ISX      0.140100
      7 O3          3.5430    2.2440    1.4560 oh        1 ISX     -0.609800
      8 C2          1.8840    0.5470    1.6260 c3        1 ISX     -0.063700
      9 C1          1.6040   -0.8820    2.1030 c3        1 ISX      0.161800
     10 C1A         5.6870    1.7300    4.2080 c3        1 ISX      0.309900
     11 C2A         7.2180    1.5830    4.3020 c3        1 ISX      0.088100
     12 O2A         7.5630    0.4680    5.1020 oh        1 ISX     -0.601800
     13 C3A         7.7930    2.8240    5.0010 c3        1 ISX      0.108100
     14 O3A         9.2080    2.8240    4.9460 oh        1 ISX     -0.604800
     15 C4A         7.3300    4.0980    4.2720 c3        1 ISX      0.122100
     16 O4A         7.7050    5.2480    5.0080 oh        1 ISX     -0.592800
     17 C5A         5.7970    4.1170    4.1630 c3        1 ISX      0.111100
     18 C6          1.4880    0.6980    0.1610 c3        1 ISX      0.134400
     19 C6A         5.3160    5.2640    3.2680 c3        1 ISX      0.143400
     20 O6A         3.9130    5.2560    3.1410 oh        1 ISX     -0.595800
     21 O5A         5.3290    2.9260    3.5280 os        1 ISX     -0.463600
     22 H6         -0.1880    0.8330   -0.7860 ho        1 ISX      0.402000
     23 H5C2        4.1390   -1.5140    3.1350 h1        1 ISX      0.037700
     24 H5          1.8580   -2.0700    3.7250 hn        1 ISX      0.370800
     25 H4          3.2920    1.3770    3.9240 h1        1 ISX      0.082700
     26 H3          3.9970    0.2390    1.1140 h1        1 ISX      0.044700
     27 HA          4.4700    2.4550    1.6370 ho        1 ISX      0.423000
     28 H2          1.2760    1.2720    2.2350 hc        1 ISX      0.090700
     29 H1C1        2.0810   -1.5990    1.3700 h1        1 ISX      0.043200
     30 H1C2        0.4890   -1.0490    2.0690 h1        1 ISX      0.043200
     31 H1A         5.1950    1.6770    5.2170 h2        1 ISX      0.062700
     32 H2A         7.6560    1.4750    3.2710 h1        1 ISX      0.076700
     33 HB          7.2120   -0.3120    4.6520 ho        1 ISX      0.424000
     34 H3A         7.4570    2.8450    6.0760 h1        1 ISX      0.065700
     35 HC          9.5010    1.9960    5.3500 ho        1 ISX      0.428000
     36 H4A         7.7960    4.1290    3.2480 h1        1 ISX      0.062700
     37 HD          8.6610    5.1880    5.1390 ho        1 ISX      0.426000
     38 H5A         5.3380    4.1990    5.1860 h1        1 ISX      0.071700
     39 H6C1        1.7630    1.7280   -0.1930 h1        1 ISX      0.034200
     40 H6C2        2.0150   -0.0640   -0.4750 h1        1 ISX      0.034200
     41 H6A1        5.5750    6.2410    3.7550 h1        1 ISX      0.061200
     42 H6A2        5.8030    5.1890    2.2600 h1        1 ISX      0.061200
     43 H6A         3.6630    4.4170    2.7260 ho        1 ISX      0.421000
     44 H5C1        3.6500   -0.9220    4.7850 h1        1 ISX      0.037700
@<TRIPOS>BOND
     1    1   18 1   
     2    1   22 1   
     3    2    3 1   
     4    2    4 1   
     5    2   23 1   
     6    2   44 1   
     7    3    9 1   
     8    3   24 1   
     9    4    5 1   
    10    4    6 1   
    11    4   25 1   
    12    5   10 1   
    13    6    7 1   
    14    6    8 1   
    15    6   26 1   
    16    7   27 1   
    17    8    9 1   
    18    8   18 1   
    19    8   28 1   
    20    9   29 1   
    21    9   30 1   
    22   10   11 1   
    23   10   21 1   
    24   10   31 1   
    25   11   12 1   
    26   11   13 1   
    27   11   32 1   
    28   12   33 1   
    29   13   14 1   
    30   13   15 1   
    31   13   34 1   
    32   14   35 1   
    33   15   16 1   
    34   15   17 1   
    35   15   36 1   
    36   16   37 1   
    37   17   19 1   
    38   17   21 1   
    39   17   38 1   
    40   18   39 1   
    41   18   40 1   
    42   19   20 1   
    43   19   41 1   
    44   19   42 1   
    45   20   43 1   
@<TRIPOS>SUBSTRUCTURE
     1 ISX         1 TEMP              0 ****  ****    0 ROOT
