@<TRIPOS>MOLECULE
ISX
   44    45     1     0     0
SMALL
bcc


@<TRIPOS>ATOM
      1 O6          1.2120    0.5000    5.6430 oh        1 ISX     -0.604800
      2 C5         -1.6360   -1.6420    1.9940 c3        1 ISX      0.150800
      3 N5         -1.1830   -2.0860    3.2950 n3        1 ISX     -0.819200
      4 C4         -0.5780   -0.7800    1.2820 c3        1 ISX      0.111100
      5 O4         -1.2130   -0.2310    0.1160 os        1 ISX     -0.429600
      6 C3         -0.1420    0.3990    2.1720 c3        1 ISX      0.140100
      7 O3          0.9420    1.0980    1.5810 oh        1 ISX     -0.609800
      8 C2          0.3360   -0.1300    3.5260 c3        1 ISX     -0.063700
      9 C1         -0.7490   -1.0070    4.1620 c3        1 ISX      0.161800
     10 C1A        -0.6020   -0.5870   -1.1050 c3        1 ISX      0.309900
     11 C2A        -1.5130   -0.0850   -2.2420 c3        1 ISX      0.088100
     12 O2A        -2.6490   -0.9190   -2.3740 oh        1 ISX     -0.601800
     13 C3A        -0.7430   -0.1730   -3.5680 c3        1 ISX      0.108100
     14 O3A        -1.4680    0.4490   -4.6140 oh        1 ISX     -0.604800
     15 C4A         0.5900    0.5890   -3.4510 c3        1 ISX      0.122100
     16 O4A         1.3840    0.3670   -4.6020 oh        1 ISX     -0.592800
     17 C5A         1.3910    0.0690   -2.2480 c3        1 ISX      0.111100
     18 C6          0.6710    1.0390    4.4460 c3        1 ISX      0.134400
     19 C6A         2.6250    0.9400   -1.9810 c3        1 ISX      0.143400
     20 O6A         3.3370    0.4810   -0.8560 oh        1 ISX     -0.595800
     21 O5A         0.6100    0.1550   -1.0550 os        1 ISX     -0.463600
     22 H6          1.6470    1.2280    6.1000 ho        1 ISX      0.402000
     23 H5C2       -2.5930   -1.0430    2.0420 h1        1 ISX      0.037700
     24 H5         -1.9030   -2.6200    3.7440 hn        1 ISX      0.370800
     25 H4          0.3220   -1.3890    1.0030 h1        1 ISX      0.082700
     26 H3         -1.0110    1.1030    2.3060 h1        1 ISX      0.044700
     27 HA          0.6490    1.3630    0.6980 ho        1 ISX      0.423000
     28 H2          1.2680   -0.7400    3.3720 hc        1 ISX      0.090700
     29 H1C1       -0.3210   -1.4680    5.0970 h1        1 ISX      0.043200
     30 H1C2       -1.6080   -0.3390    4.4690 h1        1 ISX      0.043200
     31 H1A        -0.3970   -1.6890   -1.1820 h2        1 ISX      0.062700
     32 H2A        -1.8280    0.9750   -2.0400 h1        1 ISX      0.076700
     33 HB         -3.1380   -0.8520   -1.5430 ho        1 ISX      0.424000
     34 H3A        -0.5540   -1.2520   -3.8290 h1        1 ISX      0.065700
     35 HC         -2.3290    0.0120   -4.6510 ho        1 ISX      0.428000
     36 H4A         0.3800    1.6890   -3.3370 h1        1 ISX      0.062700
     37 HD          0.8420    0.6240   -5.3610 ho        1 ISX      0.426000
     38 H5A         1.6950   -1.0000   -2.4180 h1        1 ISX      0.071700
     39 H6C1       -0.2520    1.6310    4.6910 h1        1 ISX      0.034200
     40 H6C2        1.4150    1.7090    3.9380 h1        1 ISX      0.034200
     41 H6A1        3.3300    0.8480   -2.8490 h1        1 ISX      0.061200
     42 H6A2        2.3130    2.0080   -1.8430 h1        1 ISX      0.061200
     43 H6A         2.7450    0.5460   -0.0910 ho        1 ISX      0.421000
     44 H5C1       -1.8370   -2.5550    1.3680 h1        1 ISX      0.037700
@<TRIPOS>BOND
     1    1   18 1   
     2    1   22 1   
     3    2    3 1   
     4    2    4 1   
     5    2   23 1   
     6    2   44 1   
     7    3    9 1   
     8    3   24 1   
     9    4    5 1   
    10    4    6 1   
    11    4   25 1   
    12    5   10 1   
    13    6    7 1   
    14    6    8 1   
    15    6   26 1   
    16    7   27 1   
    17    8    9 1   
    18    8   18 1   
    19    8   28 1   
    20    9   29 1   
    21    9   30 1   
    22   10   11 1   
    23   10   21 1   
    24   10   31 1   
    25   11   12 1   
    26   11   13 1   
    27   11   32 1   
    28   12   33 1   
    29   13   14 1   
    30   13   15 1   
    31   13   34 1   
    32   14   35 1   
    33   15   16 1   
    34   15   17 1   
    35   15   36 1   
    36   16   37 1   
    37   17   19 1   
    38   17   21 1   
    39   17   38 1   
    40   18   39 1   
    41   18   40 1   
    42   19   20 1   
    43   19   41 1   
    44   19   42 1   
    45   20   43 1   
@<TRIPOS>SUBSTRUCTURE
     1 ISX         1 TEMP              0 ****  ****    0 ROOT
