@<TRIPOS>MOLECULE
ISY
   23    20     1     0     0
SMALL
bcc


@<TRIPOS>ATOM
      1 P1         -4.9900    0.1550   -2.0450 p3        1 ISY      2.593000
      2 O2         -3.4140    0.2790   -2.0460 o         1 ISY     -0.877833
      3 P3         -2.5110   -0.0280   -0.7860 p5        1 ISY      1.634500
      4 O4         -5.4040   -0.9910   -1.1520 o         1 ISY     -1.197333
      5 O5         -5.5960    1.4380   -1.5300 o         1 ISY     -1.197333
      6 O6         -5.4760   -0.1020   -3.4510 o         1 ISY     -1.197333
      7 O7         -2.5310   -1.5100   -0.5010 o         1 ISY     -0.877833
      8 O8         -3.0450    0.7220    0.4110 o         1 ISY     -0.877833
      9 S9         -0.5680    0.5760   -1.1660 ss        1 ISY     -0.899000
     10 C10         0.4990   -0.0250    0.1160 c3        1 ISY     -0.067000
     11 C11         1.8790    0.5710   -0.0570 c3        1 ISY     -0.138000
     12 C12         2.8440   -0.1110    0.8880 c2        1 ISY     -0.073000
     13 C13         3.2030    0.5420    2.2050 c3        1 ISY     -0.182000
     14 C14         3.3850   -1.3000    0.5560 c1        1 ISY     -0.282000
     15 H10         0.5560   -1.0000    0.0630 h1        1 ISY      0.032000
     16 H10A        0.1390    0.2340    0.9880 h1        1 ISY      0.032000
     17 H11         2.1780    0.4400   -0.9790 hc        1 ISY      0.087500
     18 H11A        1.8490    1.5280    0.1430 hc        1 ISY      0.087500
     19 H13         2.7540    0.0690    2.9370 hc        1 ISY      0.071667
     20 H13A        2.9130    1.4780    2.1950 hc        1 ISY      0.071667
     21 H13B        4.1730    0.5010    2.3360 hc        1 ISY      0.071667
     22 H14         3.1530   -1.7220   -0.2950 DU        1 ISY      0.106000
     23 H14A        4.0090   -1.7410    1.1670 ha        1 ISY      0.082000
@<TRIPOS>BOND
     1    1    4 1   
     2    1    5 1   
     3    1    6 1   
     4    2    3 1   
     5    3    7 1   
     6    3    8 1   
     7    3    9 1   
     8    9   10 1   
     9   10   11 1   
    10   10   15 1   
    11   10   16 1   
    12   11   12 1   
    13   11   17 1   
    14   11   18 1   
    15   12   13 1   
    16   12   14 1   
    17   13   19 1   
    18   13   20 1   
    19   13   21 1   
    20   14   23 1   
@<TRIPOS>SUBSTRUCTURE
     1 ISY         1 TEMP              0 ****  ****    0 ROOT
