@<TRIPOS>MOLECULE
ISY
   23    21     1     0     0
SMALL
bcc


@<TRIPOS>ATOM
      1 P1          0.7710    0.5470    1.3800 p5        1 ISY      1.690500
      2 O2          0.8070    0.1480   -0.3780 os        1 ISY     -1.256000
      3 P3          0.9020   -0.2620   -1.8610 p3        1 ISY      2.687000
      4 O4         -0.5230   -0.1040    1.7970 o         1 ISY     -0.947833
      5 O5          2.0220   -0.0920    1.9030 o         1 ISY     -0.947833
      6 O6          0.7510    2.0450    1.4280 o         1 ISY     -0.947833
      7 O7          1.2650   -1.6710   -2.1200 o         1 ISY     -1.183000
      8 O8          1.4780    0.7570   -2.7660 o         1 ISY     -1.183000
      9 S9         -1.4060   -0.2590   -2.5740 s         1 ISY     -0.906000
     10 C10        -2.5730    0.1940   -1.3150 c3        1 ISY     -0.072000
     11 C11        -2.8630   -0.9550   -0.3760 c3        1 ISY     -0.168000
     12 C12        -3.9470   -0.6290    0.5960 c2        1 ISY      0.013000
     13 C13        -3.6010    0.4240    1.5790 c3        1 ISY     -0.245000
     14 C14        -5.1280   -1.2660    0.6100 c2        1 ISY     -0.375000
     15 H10        -2.1680    1.0590   -0.7360 h1        1 ISY      0.064000
     16 H10A       -3.5060    0.5150   -1.8380 h1        1 ISY      0.064000
     17 H11        -3.1260   -1.8700   -0.9660 hc        1 ISY      0.128500
     18 H11A       -1.9200   -1.1640    0.2220 hc        1 ISY      0.128500
     19 H13        -3.6170    1.4250    1.0810 hc        1 ISY      0.106333
     20 H13A       -4.3110    0.4410    2.4410 hc        1 ISY      0.106333
     21 H13B       -2.5340    0.2550    1.9430 hc        1 ISY      0.106333
     22 H14        -5.9070   -1.0460    1.3480 ha        1 ISY      0.068000
     23 H14A       -5.3770   -2.0540   -0.1080 ha        1 ISY      0.068000
@<TRIPOS>BOND
     1    1    2 1   
     2    1    4 1   
     3    1    5 1   
     4    1    6 1   
     5    2    3 1   
     6    3    7 1   
     7    3    8 1   
     8    9   10 1   
     9   10   11 1   
    10   10   15 1   
    11   10   16 1   
    12   11   12 1   
    13   11   17 1   
    14   11   18 1   
    15   12   13 1   
    16   12   14 1   
    17   13   19 1   
    18   13   20 1   
    19   13   21 1   
    20   14   22 1   
    21   14   23 1   
@<TRIPOS>SUBSTRUCTURE
     1 ISY         1 TEMP              0 ****  ****    0 ROOT
