@<TRIPOS>MOLECULE
ISY
   23    21     1     0     0
SMALL
bcc


@<TRIPOS>ATOM
      1 P1          2.6110   -0.8860   -0.1990 p5        1 ISY      1.690500
      2 O2          2.2090    0.3020    1.0960 os        1 ISY     -1.256000
      3 P3          1.7800    1.2730    2.2150 p3        1 ISY      2.687000
      4 O4          3.5520   -1.8070    0.5360 o         1 ISY     -0.947833
      5 O5          1.2780   -1.4670   -0.5590 o         1 ISY     -0.947833
      6 O6          3.2640   -0.0680   -1.2720 o         1 ISY     -0.947833
      7 O7          0.8330    0.7310    3.2120 o         1 ISY     -1.183000
      8 O8          1.5850    2.6770    1.7960 o         1 ISY     -1.183000
      9 S9          3.7780    1.4660    3.5600 s         1 ISY     -0.906000
     10 C10         5.1640    0.5230    2.9740 c3        1 ISY     -0.072000
     11 C11         5.0510   -0.9370    3.3490 c3        1 ISY     -0.168000
     12 C12         6.2760   -1.7090    2.9870 c2        1 ISY      0.013000
     13 C13         6.5190   -1.8370    1.5310 c3        1 ISY     -0.245000
     14 C14         7.0740   -2.2800    3.9020 c2        1 ISY     -0.375000
     15 H10         5.2290    0.6220    1.8630 h1        1 ISY      0.064000
     16 H10A        6.0790    0.9740    3.4300 h1        1 ISY      0.064000
     17 H11         4.8360   -1.0320    4.4440 hc        1 ISY      0.128500
     18 H11A        4.1830   -1.3810    2.7660 hc        1 ISY      0.128500
     19 H13         5.5300   -2.0500    1.0080 hc        1 ISY      0.106333
     20 H13A        6.8960   -0.8650    1.1260 hc        1 ISY      0.106333
     21 H13B        7.2650   -2.6350    1.3010 hc        1 ISY      0.106333
     22 H14         6.8850   -2.1960    4.9780 ha        1 ISY      0.068000
     23 H14A        7.9530   -2.8730    3.6290 ha        1 ISY      0.068000
@<TRIPOS>BOND
     1    1    2 1   
     2    1    4 1   
     3    1    5 1   
     4    1    6 1   
     5    2    3 1   
     6    3    7 1   
     7    3    8 1   
     8    9   10 1   
     9   10   11 1   
    10   10   15 1   
    11   10   16 1   
    12   11   12 1   
    13   11   17 1   
    14   11   18 1   
    15   12   13 1   
    16   12   14 1   
    17   13   19 1   
    18   13   20 1   
    19   13   21 1   
    20   14   22 1   
    21   14   23 1   
@<TRIPOS>SUBSTRUCTURE
     1 ISY         1 TEMP              0 ****  ****    0 ROOT
