@<TRIPOS>MOLECULE
ISY
   23    21     1     0     0
SMALL
bcc


@<TRIPOS>ATOM
      1 P1          2.5430   -1.1800   -0.0920 p5        1 ISY      1.690500
      2 O2          2.2400    0.2380    0.9780 os        1 ISY     -1.256000
      3 P3          1.8930    1.4130    1.9150 p3        1 ISY      2.687000
      4 O4          3.4500   -2.0110    0.7790 o         1 ISY     -0.947833
      5 O5          1.1710   -1.7360   -0.3240 o         1 ISY     -0.947833
      6 O6          3.2110   -0.6030   -1.3040 o         1 ISY     -0.947833
      7 O7          0.9440    1.1110    3.0060 o         1 ISY     -1.183000
      8 O8          1.7650    2.7320    1.2580 o         1 ISY     -1.183000
      9 S9          3.9320    1.7230    3.1730 s         1 ISY     -0.906000
     10 C10         5.2490    0.6130    2.7410 c3        1 ISY     -0.072000
     11 C11         5.0660   -0.7500    3.3700 c3        1 ISY     -0.168000
     12 C12         6.2380   -1.6430    3.1310 c2        1 ISY      0.013000
     13 C13         6.4360   -2.0380    1.7170 c3        1 ISY     -0.245000
     14 C14         7.0260   -2.0900    4.1200 c2        1 ISY     -0.375000
     15 H10         5.2910    0.5110    1.6290 h1        1 ISY      0.064000
     16 H10A        6.1980    1.0820    3.0960 h1        1 ISY      0.064000
     17 H11         4.8750   -0.6380    4.4680 hc        1 ISY      0.128500
     18 H11A        4.1610   -1.2380    2.8890 hc        1 ISY      0.128500
     19 H13         5.4230   -2.2820    1.2550 hc        1 ISY      0.106333
     20 H13A        6.8550   -1.1770    1.1410 hc        1 ISY      0.106333
     21 H13B        7.1310   -2.9070    1.6200 hc        1 ISY      0.106333
     22 H14         6.8690   -1.8090    5.1670 ha        1 ISY      0.068000
     23 H14A        7.8640   -2.7730    3.9430 ha        1 ISY      0.068000
@<TRIPOS>BOND
     1    1    2 1   
     2    1    4 1   
     3    1    5 1   
     4    1    6 1   
     5    2    3 1   
     6    3    7 1   
     7    3    8 1   
     8    9   10 1   
     9   10   11 1   
    10   10   15 1   
    11   10   16 1   
    12   11   12 1   
    13   11   17 1   
    14   11   18 1   
    15   12   13 1   
    16   12   14 1   
    17   13   19 1   
    18   13   20 1   
    19   13   21 1   
    20   14   22 1   
    21   14   23 1   
@<TRIPOS>SUBSTRUCTURE
     1 ISY         1 TEMP              0 ****  ****    0 ROOT
