@<TRIPOS>MOLECULE
ISZ
   15    15     1     0     0
SMALL
bcc


@<TRIPOS>ATOM
      1 C2          0.0050    0.0030    0.0100 ca        1 ISZ     -0.185800
      2 C4          1.4150    0.0030   -0.0040 ca        1 ISZ      0.378700
      3 N1          2.1740    0.0010    1.1070 nb        1 ISZ     -0.636000
      4 C5          1.5340   -0.0010    2.2930 ca        1 ISZ      0.378700
      5 C3          0.1340   -0.0020    2.4190 ca        1 ISZ     -0.185800
      6 C1         -0.6430   -0.0000    1.2500 ca        1 ISZ     -0.107600
      7 C6         -2.1140   -0.0020    1.3880 c         1 ISZ      0.620100
      8 O1         -2.6840   -0.0030    2.4910 o         1 ISZ     -0.530100
      9 N2         -2.8980   -0.0000    0.1310 ne        1 ISZ     -0.218400
     10 N3         -4.0970   -0.0040    0.0720 n2        1 ISZ     -0.280400
     11 H2         -0.5470    0.0040   -0.9410 ha        1 ISZ      0.167500
     12 H4          1.9650    0.0060   -0.9620 h4        1 ISZ      0.031100
     13 H5          2.1810   -0.0030    3.1900 h4        1 ISZ      0.031100
     14 H3         -0.3460   -0.0040    3.4090 ha        1 ISZ      0.167500
     15 HN1        -4.6580   -0.0080    0.9250 hn        1 ISZ      0.371400
@<TRIPOS>BOND
     1    1    2 ar  
     2    1    6 ar  
     3    1   11 1   
     4    2    3 ar  
     5    2   12 1   
     6    3    4 ar  
     7    4    5 ar  
     8    4   13 1   
     9    5    6 ar  
    10    5   14 1   
    11    6    7 1   
    12    7    8 2   
    13    7    9 1   
    14    9   10 2   
    15   10   15 1   
@<TRIPOS>SUBSTRUCTURE
     1 ISZ         1 TEMP              0 ****  ****    0 ROOT
