@<TRIPOS>MOLECULE
ISZ
   15    11     1     0     0
SMALL
bcc


@<TRIPOS>ATOM
      1 C2          0.5560    0.2570   -1.0180 c1        1 ISZ     -0.056500
      2 C4          1.9390    0.1910   -1.0810 c1        1 ISZ      0.295300
      3 N1          2.6640   -0.0100    0.0550 n1        1 ISZ     -0.435800
      4 C5          2.0310   -0.1470    1.2530 c1        1 ISZ     -0.048500
      5 C3          0.6480   -0.0820    1.3190 c1        1 ISZ     -0.048500
      6 C1         -0.0790    0.1200    0.1820 cg        1 ISZ     -0.056200
      7 C6         -1.5880    0.2010    0.2540 c         1 ISZ      0.436300
      8 O1         -2.1530    0.0790    1.3220 o         1 ISZ     -0.530100
      9 N2         -2.3430    0.4370   -0.9240 n1        1 ISZ     -0.086000
     10 N3         -3.3110   -0.2890   -1.1970 n1        1 ISZ     -0.036000
     11 H2          0.0360    0.4010   -1.8320 ha        1 ISZ      0.111500
     12 H4          2.3930    0.2890   -1.9390 ha        1 ISZ      0.110500
     13 H5          2.5520   -0.2910    2.0660 ha        1 ISZ      0.109500
     14 H3          0.1950   -0.1800    2.1780 ha        1 ISZ      0.109500
     15 HN1        -3.5390   -0.9760   -0.6390 DU        1 ISZ      0.127000
@<TRIPOS>BOND
     1    1    6 3   
     2    1   11 1   
     3    2    3 3   
     4    2   12 1   
     5    4    5 3   
     6    4   13 1   
     7    5   14 1   
     8    6    7 1   
     9    7    8 2   
    10    7    9 1   
    11    9   10 3   
@<TRIPOS>SUBSTRUCTURE
     1 ISZ         1 TEMP              0 ****  ****    0 ROOT
