@<TRIPOS>MOLECULE
ISZ
   15    15     1     0     0
SMALL
bcc


@<TRIPOS>ATOM
      1 C2          0.0800   -0.1320    1.1230 ca        1 ISZ     -0.199300
      2 C4         -0.6740   -1.2270    1.5890 ca        1 ISZ      0.387200
      3 N1         -0.2810   -2.0310    2.5950 nb        1 ISZ     -0.643000
      4 C5          0.8980   -1.7530    3.1840 ca        1 ISZ      0.387200
      5 C3          1.7240   -0.6820    2.8010 ca        1 ISZ     -0.199300
      6 C1          1.3040    0.1370    1.7440 ca        1 ISZ     -0.111600
      7 C6          2.1730    1.2680    1.3360 c         1 ISZ      0.692100
      8 O1          2.8320    1.9350    2.1420 o         1 ISZ     -0.501100
      9 N2          2.1140    1.6510   -0.0690 ne        1 ISZ     -0.274400
     10 N3          3.0070    1.3750   -0.8420 n2        1 ISZ     -0.326400
     11 H2         -0.3040    0.4900    0.3030 ha        1 ISZ      0.161000
     12 H4         -1.6480   -1.4740    1.1280 h4        1 ISZ      0.030100
     13 H5          1.1940   -2.4250    4.0100 h4        1 ISZ      0.030100
     14 H3          2.6730   -0.4830    3.3210 ha        1 ISZ      0.161000
     15 HN1         2.8090    1.7230   -1.7810 hn        1 ISZ      0.406400
@<TRIPOS>BOND
     1    1    2 ar  
     2    1    6 ar  
     3    1   11 1   
     4    2    3 ar  
     5    2   12 1   
     6    3    4 ar  
     7    4    5 ar  
     8    4   13 1   
     9    5    6 ar  
    10    5   14 1   
    11    6    7 1   
    12    7    8 2   
    13    7    9 1   
    14    9   10 2   
    15   10   15 1   
@<TRIPOS>SUBSTRUCTURE
     1 ISZ         1 TEMP              0 ****  ****    0 ROOT
