@<TRIPOS>MOLECULE
IT1
   44    44     1     0     0
SMALL
bcc


@<TRIPOS>ATOM
      1 C2         -2.6010    3.5870   -0.6560 ca        1 IT1      0.288600
      2 C3         -1.4780    2.7520   -0.4170 ca        1 IT1      0.052800
      3 C4         -1.6610    1.3910   -0.0700 ca        1 IT1     -0.243900
      4 C5         -2.9830    0.9180    0.0350 ca        1 IT1     -0.074600
      5 C6         -4.0390    1.8380   -0.2190 ca        1 IT1      0.360200
      6 N           6.8330   -1.0600    1.9460 n3        1 IT1     -0.891800
      7 CA          6.7270   -0.8870    0.5020 c3        1 IT1      0.026500
      8 C           8.0330   -0.3570   -0.1730 c         1 IT1      0.886600
      9 O           9.0170   -0.0550    0.5680 o         1 IT1     -0.855800
     10 CB          5.5620    0.0070    0.0720 c3        1 IT1     -0.064400
     11 CG          4.2080   -0.5370    0.4810 c3        1 IT1     -0.078400
     12 CD          3.0890    0.3660    0.0030 c3        1 IT1     -0.073400
     13 CE          1.7330   -0.1140    0.5320 c3        1 IT1      0.123800
     14 NZ          0.6810    0.8310    0.2680 n2        1 IT1     -0.691900
     15 OP1        -4.3610   -2.4280    2.2070 o         1 IT1     -0.929500
     16 P          -5.0450   -2.3410    0.8690 p5        1 IT1      1.309900
     17 OP2        -4.3370   -3.0470   -0.2570 o         1 IT1     -0.929500
     18 OP3        -6.5460   -2.3790    0.8630 o         1 IT1     -0.929500
     19 OP4        -4.7100   -0.6700    0.4500 os        1 IT1     -0.562200
     20 C5A        -3.3480   -0.4920    0.4020 c3        1 IT1      0.205700
     21 C4A        -0.5500    0.4590    0.1730 ce        1 IT1      0.510800
     22 O3         -0.2630    3.3780   -0.5600 oh        1 IT1     -0.537100
     23 N1         -3.8720    3.1190   -0.5530 nb        1 IT1     -0.665000
     24 C2A        -2.3550    5.0100   -1.0260 c3        1 IT1     -0.107400
     25 H6         -5.0790    1.4560   -0.1330 h4        1 IT1      0.075100
     26 HA          6.5490   -1.9200    0.0790 h1        1 IT1      0.042700
     27 OXT         8.0610   -0.2780   -1.4330 o         1 IT1     -0.855800
     28 HB          5.6970    1.0350    0.5010 hc        1 IT1      0.042200
     29 HBA         5.6150    0.1020   -1.0450 hc        1 IT1      0.042200
     30 HG          4.0730   -1.5650    0.0560 hc        1 IT1      0.036700
     31 HGA         4.1590   -0.6340    1.5970 hc        1 IT1      0.036700
     32 HD          3.2840    1.4150    0.3490 hc        1 IT1      0.037700
     33 HDA         3.0720    0.3840   -1.1180 hc        1 IT1      0.037700
     34 HE          1.5200   -1.1360    0.1020 h1        1 IT1      0.037200
     35 HEA         1.8150   -0.2420    1.6520 h1        1 IT1      0.037200
     36 H5A        -2.9060   -1.2010   -0.3640 h1        1 IT1      0.050700
     37 H5AA       -2.9010   -0.7420    1.4120 h1        1 IT1      0.050700
     38 H4A        -0.8790   -0.6050    0.2750 h4        1 IT1      0.015800
     39 HO3         0.4460    2.7490   -0.3430 ho        1 IT1      0.454000
     40 H2A        -1.7490    5.5010   -0.2240 hc        1 IT1      0.025033
     41 H2AA       -1.7640    5.0480   -1.9750 hc        1 IT1      0.025033
     42 H2AB       -3.3020    5.5830   -1.1670 hc        1 IT1      0.025033
     43 HN          7.7970   -1.2700    2.1550 hn        1 IT1      0.327300
     44 HNA         6.6320   -0.1830    2.3930 hn        1 IT1      0.327300
@<TRIPOS>BOND
     1    1    2 ar  
     2    1   23 ar  
     3    1   24 1   
     4    2    3 ar  
     5    2   22 1   
     6    3    4 ar  
     7    3   21 1   
     8    4    5 ar  
     9    4   20 1   
    10    5   23 ar  
    11    5   25 1   
    12    6    7 1   
    13    6   43 1   
    14    6   44 1   
    15    7    8 1   
    16    7   10 1   
    17    7   26 1   
    18    8    9 1   
    19    8   27 1   
    20   10   11 1   
    21   10   28 1   
    22   10   29 1   
    23   11   12 1   
    24   11   30 1   
    25   11   31 1   
    26   12   13 1   
    27   12   32 1   
    28   12   33 1   
    29   13   14 1   
    30   13   34 1   
    31   13   35 1   
    32   14   21 2   
    33   15   16 1   
    34   16   17 1   
    35   16   18 1   
    36   16   19 1   
    37   19   20 1   
    38   20   36 1   
    39   20   37 1   
    40   21   38 1   
    41   22   39 1   
    42   24   40 1   
    43   24   41 1   
    44   24   42 1   
@<TRIPOS>SUBSTRUCTURE
     1 IT1         1 TEMP              0 ****  ****    0 ROOT
