@<TRIPOS>MOLECULE
IT2
   18    18     1     0     0
SMALL
bcc


@<TRIPOS>ATOM
      1 N          -0.0400    0.0760    0.0020 n         1 IT2     -0.375800
      2 SAA        -2.4500    0.7560   -0.8040 sh        1 IT2     -0.298400
      3 SAB        -0.0570    2.0190   -1.7720 s         1 IT2     -0.504400
      4 CAC         1.9570   -0.0310    1.4770 c3        1 IT2      0.111900
      5 CAD        -0.0650   -0.9620    2.2610 c3        1 IT2      0.111900
      6 CAE         1.4110    0.0690    0.0480 c3        1 IT2      0.038000
      7 CAF        -0.6950   -0.8880    0.8610 c3        1 IT2      0.038000
      8 OAG         1.3490   -1.0960    2.2000 os        1 IT2     -0.406600
      9 CAH        -0.7120    0.9280   -0.8210 c         1 IT2      0.446000
     10 HSAA       -2.7280    1.7330   -1.6750 hs        1 IT2      0.260800
     11 HAC         3.0460   -0.2990    1.4480 h1        1 IT2      0.063700
     12 HACA        1.8100    0.9330    2.0300 h1        1 IT2      0.063700
     13 HAD        -0.3330   -0.0540    2.8640 h1        1 IT2      0.063700
     14 HADA       -0.4140   -1.8910    2.7830 h1        1 IT2      0.063700
     15 HAE         1.7700   -0.8210   -0.5470 h1        1 IT2      0.080950
     16 HAEA        1.8080    1.0090   -0.4380 h1        1 IT2      0.080950
     17 HAF        -0.6170   -1.9020    0.3720 h1        1 IT2      0.080950
     18 HAFA       -1.7880   -0.6330    0.9850 h1        1 IT2      0.080950
@<TRIPOS>BOND
     1    1    6 1   
     2    1    7 1   
     3    1    9 1   
     4    2    9 1   
     5    2   10 1   
     6    3    9 2   
     7    4    6 1   
     8    4    8 1   
     9    4   11 1   
    10    4   12 1   
    11    5    7 1   
    12    5    8 1   
    13    5   13 1   
    14    5   14 1   
    15    6   15 1   
    16    6   16 1   
    17    7   17 1   
    18    7   18 1   
@<TRIPOS>SUBSTRUCTURE
     1 IT2         1 TEMP              0 ****  ****    0 ROOT
