@<TRIPOS>MOLECULE
IT2
   18    18     1     0     0
SMALL
bcc


@<TRIPOS>ATOM
      1 N          -0.0370    0.0750    0.0010 n         1 IT2     -0.375800
      2 SAA        -2.4430    0.7530   -0.8180 sh        1 IT2     -0.298400
      3 SAB        -0.0460    2.0130   -1.7790 s         1 IT2     -0.504400
      4 CAC         1.9540   -0.0300    1.4850 c3        1 IT2      0.111900
      5 CAD        -0.0720   -0.9570    2.2630 c3        1 IT2      0.111900
      6 CAE         1.4140    0.0670    0.0530 c3        1 IT2      0.038000
      7 CAF        -0.6970   -0.8860    0.8600 c3        1 IT2      0.038000
      8 OAG         1.3420   -1.0920    2.2080 os        1 IT2     -0.406600
      9 CAH        -0.7050    0.9240   -0.8270 c         1 IT2      0.446000
     10 HSAA       -2.7180    1.7270   -1.6930 hs        1 IT2      0.260800
     11 HAC         3.0430   -0.2980    1.4610 h1        1 IT2      0.063700
     12 HACA        1.8050    0.9370    2.0340 h1        1 IT2      0.063700
     13 HAD        -0.4240   -1.8850    2.7860 h1        1 IT2      0.063700
     14 HADA       -0.3420   -0.0480    2.8620 h1        1 IT2      0.063700
     15 HAE         1.8120    1.0060   -0.4340 h1        1 IT2      0.080950
     16 HAEA        1.7750   -0.8240   -0.5380 h1        1 IT2      0.080950
     17 HAF        -0.6180   -1.9020    0.3740 h1        1 IT2      0.080950
     18 HAFA       -1.7890   -0.6310    0.9780 h1        1 IT2      0.080950
@<TRIPOS>BOND
     1    1    6 1   
     2    1    7 1   
     3    1    9 1   
     4    2    9 1   
     5    2   10 1   
     6    3    9 2   
     7    4    6 1   
     8    4    8 1   
     9    4   11 1   
    10    4   12 1   
    11    5    7 1   
    12    5    8 1   
    13    5   13 1   
    14    5   14 1   
    15    6   15 1   
    16    6   16 1   
    17    7   17 1   
    18    7   18 1   
@<TRIPOS>SUBSTRUCTURE
     1 IT2         1 TEMP              0 ****  ****    0 ROOT
