@<TRIPOS>MOLECULE
IT2
   18    18     1     0     0
SMALL
bcc


@<TRIPOS>ATOM
      1 N          -0.0400    0.0770    0.0020 n         1 IT2     -0.375800
      2 SAA        -2.4490    0.7590   -0.8030 sh        1 IT2     -0.298400
      3 SAB        -0.0550    2.0160   -1.7750 s         1 IT2     -0.504400
      4 CAC         1.9580   -0.0340    1.4760 c3        1 IT2      0.111900
      5 CAD        -0.0650   -0.9590    2.2630 c3        1 IT2      0.111900
      6 CAE         1.4110    0.0660    0.0470 c3        1 IT2      0.038000
      7 CAF        -0.6970   -0.8850    0.8640 c3        1 IT2      0.038000
      8 OAG         1.3480   -1.0970    2.2000 os        1 IT2     -0.406600
      9 CAH        -0.7110    0.9270   -0.8220 c         1 IT2      0.446000
     10 HSAA       -2.7270    1.7340   -1.6760 hs        1 IT2      0.260800
     11 HAC         1.8140    0.9310    2.0280 h1        1 IT2      0.063700
     12 HACA        3.0470   -0.3040    1.4460 h1        1 IT2      0.063700
     13 HAD        -0.4160   -1.8870    2.7860 h1        1 IT2      0.063700
     14 HADA       -0.3300   -0.0510    2.8650 h1        1 IT2      0.063700
     15 HAE         1.7680   -0.8250   -0.5470 h1        1 IT2      0.080950
     16 HAEA        1.8090    1.0050   -0.4400 h1        1 IT2      0.080950
     17 HAF        -1.7880   -0.6270    0.9880 h1        1 IT2      0.080950
     18 HAFA       -0.6230   -1.9000    0.3760 h1        1 IT2      0.080950
@<TRIPOS>BOND
     1    1    6 1   
     2    1    7 1   
     3    1    9 1   
     4    2    9 1   
     5    2   10 1   
     6    3    9 2   
     7    4    6 1   
     8    4    8 1   
     9    4   11 1   
    10    4   12 1   
    11    5    7 1   
    12    5    8 1   
    13    5   13 1   
    14    5   14 1   
    15    6   15 1   
    16    6   16 1   
    17    7   17 1   
    18    7   18 1   
@<TRIPOS>SUBSTRUCTURE
     1 IT2         1 TEMP              0 ****  ****    0 ROOT
