@<TRIPOS>MOLECULE
IT2
   18    18     1     0     0
SMALL
bcc


@<TRIPOS>ATOM
      1 N          -0.3160   -0.4610   -0.1890 n         1 IT2     -0.375800
      2 SAA        -1.5110   -1.0880   -2.6080 sh        1 IT2     -0.298400
      3 SAB        -1.6500   -2.7870   -0.1570 s         1 IT2     -0.504400
      4 CAC         1.8370    0.2960    0.6540 c3        1 IT2      0.111900
      5 CAD        -0.1220    1.3310    1.4450 c3        1 IT2      0.111900
      6 CAE         1.0560   -0.3060   -0.4940 c3        1 IT2      0.038000
      7 CAF        -0.9040    0.7300    0.2970 c3        1 IT2      0.038000
      8 OAG         1.2490    1.4860    1.1400 os        1 IT2     -0.406600
      9 CAH        -1.1020   -1.3960   -0.9100 c         1 IT2      0.446000
     10 HSAA       -2.2720   -1.9050   -2.9830 hs        1 IT2      0.260800
     11 HAC         2.7470    0.4930    0.3490 h1        1 IT2      0.063700
     12 HACA        1.8810   -0.3570    1.3840 h1        1 IT2      0.063700
     13 HAD        -0.5000    2.2090    1.6600 h1        1 IT2      0.063700
     14 HADA       -0.2090    0.7480    2.2270 h1        1 IT2      0.063700
     15 HAE         1.1430    0.2770   -1.2760 h1        1 IT2      0.080950
     16 HAEA        1.4340   -1.1840   -0.7080 h1        1 IT2      0.080950
     17 HAF        -0.9480    1.3820   -0.4320 h1        1 IT2      0.080950
     18 HAFA       -1.8130    0.5330    0.6020 h1        1 IT2      0.080950
@<TRIPOS>BOND
     1    1    6 1   
     2    1    7 1   
     3    1    9 1   
     4    2    9 1   
     5    2   10 1   
     6    3    9 2   
     7    4    6 1   
     8    4    8 1   
     9    4   11 1   
    10    4   12 1   
    11    5    7 1   
    12    5    8 1   
    13    5   13 1   
    14    5   14 1   
    15    6   15 1   
    16    6   16 1   
    17    7   17 1   
    18    7   18 1   
@<TRIPOS>SUBSTRUCTURE
     1 IT2         1 TEMP              0 ****  ****    0 ROOT
