@<TRIPOS>MOLECULE
IT2
   18    18     1     0     0
SMALL
bcc


@<TRIPOS>ATOM
      1 N          -0.1780   -0.0260   -0.2880 n         1 IT2     -0.375800
      2 SAA         1.9940    1.4370   -0.0360 sh        1 IT2     -0.298400
      3 SAB         2.0180   -1.4360    0.0470 s         1 IT2     -0.504400
      4 CAC        -2.2990   -1.1440    0.3660 c3        1 IT2      0.111900
      5 CAD        -2.2270    1.2140    0.3790 c3        1 IT2      0.111900
      6 CAE        -0.9840   -1.2270   -0.4180 c3        1 IT2      0.038000
      7 CAF        -0.9000    1.2240   -0.3970 c3        1 IT2      0.038000
      8 OAG        -3.0030    0.0600    0.0870 os        1 IT2     -0.406600
      9 CAH         1.1690   -0.1010   -0.1000 c         1 IT2      0.446000
     10 HSAA        3.2270    0.9620    0.1740 hs        1 IT2      0.260800
     11 HAC        -2.9920   -1.9590    0.0290 h1        1 IT2      0.063700
     12 HACA       -2.1120   -1.2260    1.4690 h1        1 IT2      0.063700
     13 HAD        -2.0390    1.2750    1.4830 h1        1 IT2      0.063700
     14 HADA       -2.8650    2.0750    0.0460 h1        1 IT2      0.063700
     15 HAE        -1.2160   -1.3690   -1.5130 h1        1 IT2      0.080950
     16 HAEA       -0.3900   -2.1190   -0.0580 h1        1 IT2      0.080950
     17 HAF        -0.2760    2.0800   -0.0080 h1        1 IT2      0.080950
     18 HAFA       -1.1180    1.4080   -1.4890 h1        1 IT2      0.080950
@<TRIPOS>BOND
     1    1    6 1   
     2    1    7 1   
     3    1    9 1   
     4    2    9 1   
     5    2   10 1   
     6    3    9 2   
     7    4    6 1   
     8    4    8 1   
     9    4   11 1   
    10    4   12 1   
    11    5    7 1   
    12    5    8 1   
    13    5   13 1   
    14    5   14 1   
    15    6   15 1   
    16    6   16 1   
    17    7   17 1   
    18    7   18 1   
@<TRIPOS>SUBSTRUCTURE
     1 IT2         1 TEMP              0 ****  ****    0 ROOT
