@<TRIPOS>MOLECULE
IT5
   31    32     1     0     0
SMALL
bcc


@<TRIPOS>ATOM
      1 N11         3.8660   -2.0930    0.8320 n1        1 IT5     -0.364800
      2 N22        -0.5450   -0.4020   -0.5010 n         1 IT5     -0.340800
      3 SAB        -3.0840    0.1680    0.4660 s         1 IT5     -0.130400
      4 SAC        -0.2930    1.9940   -1.8810 sh        1 IT5     -0.261900
      5 CAD         2.8880   -2.0440    1.4560 c1        1 IT5      0.211700
      6 CAE         2.5340   -0.6690    6.2480 ca        1 IT5     -0.121000
      7 CAF         1.5490   -1.6330    6.0380 ca        1 IT5     -0.126500
      8 CAG         3.2320   -0.1460    5.1600 ca        1 IT5     -0.126500
      9 CAH         1.2630   -2.0770    4.7470 ca        1 IT5     -0.118500
     10 CAI         2.9470   -0.5860    3.8690 ca        1 IT5     -0.118500
     11 CAJ         0.3000   -1.3280    0.1950 c3        1 IT5      0.047000
     12 CAK        -0.4910    1.0490   -0.4510 cx        1 IT5     -0.005200
     13 CAL         0.6830   -0.9820    1.6320 c3        1 IT5     -0.107400
     14 CAM         1.0370   -3.4080    2.2160 c3        1 IT5     -0.094100
     15 CAN        -1.6840    0.2560   -0.0270 c         1 IT5      0.217400
     16 CAO         1.9640   -1.5600    3.6520 ca        1 IT5     -0.091300
     17 CAQ         1.6530   -2.0080    2.2420 c3        1 IT5      0.077400
     18 HSAC       -0.9230    1.2550   -2.7790 hs        1 IT5      0.208800
     19 HAE         2.7600   -0.3230    7.2670 ha        1 IT5      0.136000
     20 HAF         0.9940   -2.0480    6.8920 ha        1 IT5      0.137000
     21 HAG         4.0100    0.6160    5.3180 ha        1 IT5      0.137000
     22 HAH         0.4800   -2.8360    4.6030 ha        1 IT5      0.137500
     23 HAI         3.5030   -0.1640    3.0170 ha        1 IT5      0.137500
     24 HAJ        -0.2400   -2.3200    0.1830 h1        1 IT5      0.079700
     25 HAJA        1.2380   -1.4280   -0.4250 h1        1 IT5      0.079700
     26 HAK         1.0570   -3.8210    1.1790 hc        1 IT5      0.052700
     27 HAKA        0.0860    1.5700    0.3520 h2        1 IT5      0.116700
     28 HAL        -0.2350   -0.9480    2.2760 hc        1 IT5      0.062200
     29 HALA        1.1670    0.0300    1.6700 hc        1 IT5      0.062200
     30 HAM        -0.0240   -3.3670    2.5610 hc        1 IT5      0.052700
     31 HAMA        1.6120   -4.0950    2.8820 hc        1 IT5      0.052700
@<TRIPOS>BOND
     1    1    5 3   
     2    2   11 1   
     3    2   12 1   
     4    2   15 1   
     5    3   15 2   
     6    4   12 1   
     7    4   18 1   
     8    5   17 1   
     9    6    7 ar  
    10    6    8 ar  
    11    6   19 1   
    12    7    9 ar  
    13    7   20 1   
    14    8   10 ar  
    15    8   21 1   
    16    9   16 ar  
    17    9   22 1   
    18   10   16 ar  
    19   10   23 1   
    20   11   13 1   
    21   11   24 1   
    22   11   25 1   
    23   12   15 1   
    24   12   27 1   
    25   13   17 1   
    26   13   28 1   
    27   13   29 1   
    28   14   17 1   
    29   14   26 1   
    30   14   30 1   
    31   14   31 1   
    32   16   17 1   
@<TRIPOS>SUBSTRUCTURE
     1 IT5         1 TEMP              0 ****  ****    0 ROOT
