@<TRIPOS>MOLECULE
IT5
   31    31     1     0     0
SMALL
bcc


@<TRIPOS>ATOM
      1 N11         3.5900   -3.2480    0.8190 n1        1 IT5     -0.384800
      2 N22        -0.4380   -0.6320   -0.0840 n         1 IT5      0.092000
      3 SAB        -2.0360   -1.3130   -2.0930 s         1 IT5     -0.231400
      4 SAC         0.4780    0.0950   -2.4230 sh        1 IT5     -0.110400
      5 CAD         2.8340   -2.6300    1.4500 c1        1 IT5      0.226700
      6 CAE         3.3160   -1.0490    6.1930 ca        1 IT5     -0.125000
      7 CAF         4.1580   -0.8660    5.0960 ca        1 IT5     -0.127500
      8 CAG         2.0120   -1.5030    6.0000 ca        1 IT5     -0.127500
      9 CAH         3.6980   -1.1350    3.8080 ca        1 IT5     -0.119000
     10 CAI         1.5490   -1.7740    4.7130 ca        1 IT5     -0.119000
     11 CAJ         0.8670   -0.7910    0.2220 c2        1 IT5     -0.207500
     12 CAK        -1.4760   -0.3970    0.7350 c2        1 IT5     -0.120500
     13 CAL         1.5250   -0.5490    1.5190 c3        1 IT5     -0.061700
     14 CAM        -1.4770   -0.4610    2.2050 c3        1 IT5     -0.098400
     15 CAN        -0.7540   -0.6690   -1.5110 c         1 IT5      0.283000
     16 CAO         2.3900   -1.5910    3.6100 ca        1 IT5     -0.088300
     17 CAQ         1.8720   -1.8670    2.2300 c3        1 IT5      0.038700
     18 HSAC       -0.0530   -0.0620   -3.6320 hs        1 IT5      0.207800
     19 HAE         3.6810   -0.8380    7.2090 ha        1 IT5      0.134000
     20 HAF         5.1880   -0.5110    5.2460 ha        1 IT5      0.134500
     21 HAG         1.3460   -1.6500    6.8630 ha        1 IT5      0.134500
     22 HAH         4.3640   -0.9940    2.9430 ha        1 IT5      0.135500
     23 HAI         0.5190   -2.1340    4.5650 ha        1 IT5      0.135500
     24 HAJ         1.5290   -1.1510   -0.5860 h4        1 IT5      0.034800
     25 HAJA        0.9130    0.0820    2.2130 hc        1 IT5      0.060200
     26 HAK        -2.5250   -0.6520    2.5500 hc        1 IT5      0.042033
     27 HAKA       -2.4450   -0.1770    0.2530 h4        1 IT5      0.031800
     28 HAL        -1.1390    0.5110    2.6500 hc        1 IT5      0.042033
     29 HALA        2.4800    0.0130    1.3210 hc        1 IT5      0.060200
     30 HAM        -0.8220   -1.2780    2.6010 hc        1 IT5      0.042033
     31 HAMA        0.9320   -2.4920    2.3030 hc        1 IT5      0.086700
@<TRIPOS>BOND
     1    1    5 3   
     2    2   11 2   
     3    2   12 2   
     4    2   15 1   
     5    3   15 2   
     6    4   15 1   
     7    4   18 1   
     8    5   17 1   
     9    6    7 ar  
    10    6    8 ar  
    11    6   19 1   
    12    7    9 ar  
    13    7   20 1   
    14    8   10 ar  
    15    8   21 1   
    16    9   16 ar  
    17    9   22 1   
    18   10   16 ar  
    19   10   23 1   
    20   11   13 1   
    21   11   24 1   
    22   12   14 1   
    23   12   27 1   
    24   13   17 1   
    25   13   25 1   
    26   13   29 1   
    27   14   26 1   
    28   14   28 1   
    29   14   30 1   
    30   16   17 1   
    31   17   31 1   
@<TRIPOS>SUBSTRUCTURE
     1 IT5         1 TEMP              0 ****  ****    0 ROOT
