@<TRIPOS>MOLECULE
IT5
   31    32     1     0     0
SMALL
bcc


@<TRIPOS>ATOM
      1 N11         1.3840   -1.8800   -2.4850 n1        1 IT5     -0.363800
      2 N22        -1.8700   -0.2160   -0.2980 n         1 IT5     -0.372800
      3 SAB        -3.8630    1.5060   -0.2550 s         1 IT5     -0.503400
      4 SAC        -3.7430   -0.7810    1.4700 sh        1 IT5     -0.296400
      5 CAD         1.2410   -1.1640   -1.5810 c1        1 IT5      0.210700
      6 CAE         4.9920    0.7300    1.0580 ca        1 IT5     -0.119000
      7 CAF         4.5890   -0.6000    0.9320 ca        1 IT5     -0.126500
      8 CAG         4.1230    1.7520    0.6840 ca        1 IT5     -0.126500
      9 CAH         3.3220   -0.9010    0.4400 ca        1 IT5     -0.117000
     10 CAI         2.8530    1.4540    0.1890 ca        1 IT5     -0.117000
     11 CAJ        -1.1690    0.5500   -1.3130 c3        1 IT5      0.065500
     12 CAK        -1.1270   -1.3360    0.2430 c3        1 IT5      0.065500
     13 CAL         0.2440    0.9550   -0.8950 c3        1 IT5     -0.089900
     14 CAM         0.2960   -0.9760    0.6730 c3        1 IT5     -0.089900
     15 CAN        -3.0550    0.2200    0.2150 c         1 IT5      0.445000
     16 CAO         2.4380    0.1240    0.0690 ca        1 IT5     -0.090300
     17 CAQ         1.0700   -0.2570   -0.4450 c3        1 IT5      0.069400
     18 HSAC       -4.8610   -0.0730    1.6610 hs        1 IT5      0.260800
     19 HAE         5.9930    0.9690    1.4480 ha        1 IT5      0.137000
     20 HAF         5.2720   -1.4130    1.2180 ha        1 IT5      0.137000
     21 HAG         4.4370    2.8030    0.7750 ha        1 IT5      0.137000
     22 HAH         3.0140   -1.9530    0.3320 ha        1 IT5      0.136000
     23 HAI         2.1940    2.2840   -0.1080 ha        1 IT5      0.136000
     24 HAJ        -1.1150   -0.0910   -2.2410 h1        1 IT5      0.082200
     25 HAJA       -1.7640    1.4820   -1.5560 h1        1 IT5      0.082200
     26 HAK        -1.6620   -1.7800    1.1330 h1        1 IT5      0.082200
     27 HAKA       -1.0760   -2.1270   -0.5620 h1        1 IT5      0.082200
     28 HAL         0.7380    1.4560   -1.7670 hc        1 IT5      0.070950
     29 HALA        0.1880    1.6890   -0.0490 hc        1 IT5      0.070950
     30 HAM         0.2720   -0.3060    1.5720 hc        1 IT5      0.070950
     31 HAMA        0.8240   -1.9210    0.9590 hc        1 IT5      0.070950
@<TRIPOS>BOND
     1    1    5 3   
     2    2   11 1   
     3    2   12 1   
     4    2   15 1   
     5    3   15 2   
     6    4   15 1   
     7    4   18 1   
     8    5   17 1   
     9    6    7 ar  
    10    6    8 ar  
    11    6   19 1   
    12    7    9 ar  
    13    7   20 1   
    14    8   10 ar  
    15    8   21 1   
    16    9   16 ar  
    17    9   22 1   
    18   10   16 ar  
    19   10   23 1   
    20   11   13 1   
    21   11   24 1   
    22   11   25 1   
    23   12   14 1   
    24   12   26 1   
    25   12   27 1   
    26   13   17 1   
    27   13   28 1   
    28   13   29 1   
    29   14   17 1   
    30   14   30 1   
    31   14   31 1   
    32   16   17 1   
@<TRIPOS>SUBSTRUCTURE
     1 IT5         1 TEMP              0 ****  ****    0 ROOT
