@<TRIPOS>MOLECULE
ITA
   36    34     1     0     0
SMALL
bcc


@<TRIPOS>ATOM
      1 C1          2.4240   -0.2470    0.1570 c1        1 ITA     -0.033000
      2 C2          3.8610   -0.1880    0.1900 c2        1 ITA     -0.116000
      3 C3          4.5340   -0.1970    1.4230 c1        1 ITA     -0.137000
      4 C4          3.8020   -0.2640    2.6230 c1        1 ITA     -0.123000
      5 C5          2.3950   -0.3220    2.5860 c1        1 ITA     -0.123000
      6 C6          1.7090   -0.3130    1.3330 c1        1 ITA      0.001000
      7 C7          0.2880   -0.2640    1.3060 c2        1 ITA     -0.058000
      8 C8         -0.7670   -0.0150    2.4860 c2        1 ITA      0.369000
      9 N9         -2.0770   -0.3580    2.0000 n         1 ITA     -0.762000
     10 C10        -3.1970   -0.6470    2.7900 c3        1 ITA     -0.099000
     11 C11        -3.7240    0.6230    3.3950 c2        1 ITA      0.333000
     12 O12        -3.8480    0.7260    4.6760 o         1 ITA     -0.562500
     13 O13        -4.1050    1.5620    2.6480 o         1 ITA     -0.562500
     14 S14        -2.0360   -0.3270    0.3970 s4        1 ITA      2.049800
     15 O15        -2.7860    0.7770   -0.1850 o         1 ITA     -0.512400
     16 O16        -2.4910   -1.5390   -0.2290 o         1 ITA     -0.512400
     17 C17        -0.3860   -0.1510    0.0900 c1        1 ITA     -0.676000
     18 C18         0.3430   -0.0850   -1.1060 c2        1 ITA     -0.005000
     19 C19        -0.3330   -0.3110   -2.4540 c2        1 ITA      0.320000
     20 O20        -0.4390    0.7570   -3.3780 os        1 ITA     -0.232000
     21 C21        -0.9180    0.3660   -4.6610 c3        1 ITA     -0.087000
     22 C22        -0.6590    1.4990   -5.6690 c2        1 ITA      0.338000
     23 O23        -1.5710    2.3110   -5.9470 o         1 ITA     -0.569000
     24 O24         0.4560    1.5630   -6.2780 o         1 ITA     -0.569000
     25 O25        -0.8750   -1.4050   -2.7020 o         1 ITA     -0.363000
     26 C26         1.7440   -0.1320   -1.0780 c1        1 ITA     -0.060000
     27 O27        -0.5140    0.3390    3.5650 o         1 ITA     -0.323000
     28 H211       -1.9210    0.1760   -4.6060 h1        1 ITA      0.078500
     29 H212       -0.4460   -0.4460   -4.9540 h1        1 ITA      0.078500
     30 H26         2.2480   -0.0560   -1.9000 ha        1 ITA      0.191000
     31 H2          4.3830   -0.1950   -0.6690 ha        1 ITA      0.142000
     32 H3          5.5230   -0.2400    1.4470 ha        1 ITA      0.118000
     33 H4          4.2990   -0.2710    3.5310 ha        1 ITA      0.147500
     34 H5          1.9000   -0.3680    3.3970 ha        1 ITA      0.147500
     35 H101       -2.9290   -1.3040    3.5420 h1        1 ITA      0.085500
     36 H102       -3.8860   -1.0510    2.2370 h1        1 ITA      0.085500
@<TRIPOS>BOND
     1    1    2 1   
     2    1    6 1   
     3    2    3 1   
     4    2   31 1   
     5    3   32 1   
     6    4    5 1   
     7    4   33 1   
     8    5   34 1   
     9    6    7 1   
    10    7    8 1   
    11    7   17 1   
    12    8    9 1   
    13    8   27 1   
    14    9   10 1   
    15    9   14 1   
    16   10   11 1   
    17   10   35 1   
    18   10   36 1   
    19   11   12 1   
    20   11   13 1   
    21   14   15 1   
    22   14   16 1   
    23   17   18 1   
    24   18   19 1   
    25   18   26 1   
    26   19   20 1   
    27   19   25 1   
    28   20   21 1   
    29   21   22 1   
    30   21   28 1   
    31   21   29 1   
    32   22   23 1   
    33   22   24 1   
    34   26   30 1   
@<TRIPOS>SUBSTRUCTURE
     1 ITA         1 TEMP              0 ****  ****    0 ROOT
