@<TRIPOS>MOLECULE
ITA
   36    38     1     0     0
SMALL
bcc


@<TRIPOS>ATOM
      1 C1         -0.0700   -0.1170   -0.0670 ca        1 ITA     -0.033000
      2 C2          1.3550   -0.1110   -0.0450 ca        1 ITA     -0.117000
      3 C3          2.0310   -0.0160    1.1430 ca        1 ITA     -0.136000
      4 C4          1.3190    0.0790    2.3660 ca        1 ITA     -0.147000
      5 C5         -0.0520    0.0740    2.3780 ca        1 ITA     -0.099000
      6 C6         -0.7850   -0.0270    1.1600 ca        1 ITA      0.001000
      7 C7         -2.1960   -0.0320    1.0930 ca        1 ITA     -0.078600
      8 C8         -3.1260   -0.0050    2.2830 c         1 ITA      0.732100
      9 N9         -4.4420    0.0560    1.8250 n         1 ITA     -0.534200
     10 C10        -5.5420    0.1790    2.7500 c3        1 ITA     -0.034000
     11 C11        -5.8720    1.5980    3.3080 c         1 ITA      0.913600
     12 O12        -5.0410    2.5330    3.1980 o         1 ITA     -0.827800
     13 O13        -6.9960    1.6780    3.8810 o         1 ITA     -0.827800
     14 S14        -4.6170    0.0290    0.1700 sy        1 ITA      1.496900
     15 O15        -5.1230    1.2060   -0.3670 o         1 ITA     -0.624300
     16 O16        -5.2500   -1.1630   -0.2040 o         1 ITA     -0.624300
     17 C17        -2.8900   -0.0890   -0.1140 ca        1 ITA     -0.232500
     18 C18        -2.1650   -0.2080   -1.3160 ca        1 ITA     -0.024600
     19 C19        -2.8390   -0.3390   -2.6310 c         1 ITA      0.617700
     20 O20        -1.9910   -0.7230   -3.6180 os        1 ITA     -0.392900
     21 C21        -2.5150   -0.8050   -4.9520 c3        1 ITA      0.013400
     22 C22        -1.3230   -1.0370   -5.9120 c         1 ITA      0.919600
     23 O23        -0.1780   -0.6180   -5.6000 o         1 ITA     -0.833800
     24 O24        -1.6080   -1.6240   -6.9940 o         1 ITA     -0.833800
     25 O25        -4.0340   -0.1430   -2.8810 o         1 ITA     -0.549000
     26 C26        -0.7780   -0.2180   -1.2880 ca        1 ITA     -0.061000
     27 O27        -2.7700   -0.1120    3.4640 o         1 ITA     -0.598500
     28 H211       -3.2440   -1.6520   -4.9960 h1        1 ITA      0.037700
     29 H212       -3.0360    0.1510   -5.2060 h1        1 ITA      0.037700
     30 H26        -0.2130   -0.3120   -2.2360 ha        1 ITA      0.190000
     31 H2          1.8900   -0.1830   -1.0040 ha        1 ITA      0.141000
     32 H3          3.1310   -0.0100    1.1640 ha        1 ITA      0.118000
     33 H4          1.8840    0.1610    3.3050 ha        1 ITA      0.121000
     34 H5         -0.6150    0.1530    3.3250 ha        1 ITA      0.175000
     35 H101       -6.4590   -0.2200    2.2330 h1        1 ITA      0.046700
     36 H102       -5.3270   -0.4700    3.6460 h1        1 ITA      0.046700
@<TRIPOS>BOND
     1    1    2 ar  
     2    1    6 ar  
     3    1   26 ar  
     4    2    3 ar  
     5    2   31 1   
     6    3    4 ar  
     7    3   32 1   
     8    4    5 ar  
     9    4   33 1   
    10    5    6 ar  
    11    5   34 1   
    12    6    7 ar  
    13    7    8 1   
    14    7   17 ar  
    15    8    9 1   
    16    8   27 2   
    17    9   10 1   
    18    9   14 1   
    19   10   11 1   
    20   10   35 1   
    21   10   36 1   
    22   11   12 1   
    23   11   13 1   
    24   14   15 2   
    25   14   16 2   
    26   14   17 1   
    27   17   18 ar  
    28   18   19 1   
    29   18   26 ar  
    30   19   20 1   
    31   19   25 2   
    32   20   21 1   
    33   21   22 1   
    34   21   28 1   
    35   21   29 1   
    36   22   23 1   
    37   22   24 1   
    38   26   30 1   
@<TRIPOS>SUBSTRUCTURE
     1 ITA         1 TEMP              0 ****  ****    0 ROOT
