@<TRIPOS>MOLECULE
ITA
   36    38     1     0     0
SMALL
bcc


@<TRIPOS>ATOM
      1 C1          3.5540   -1.5550   -0.9290 ca        1 ITA     -0.033000
      2 C2          2.6160   -2.2410   -0.1040 ca        1 ITA     -0.117000
      3 C3          1.4250   -1.6520    0.2320 ca        1 ITA     -0.136000
      4 C4          1.1140   -0.3500   -0.2350 ca        1 ITA     -0.147000
      5 C5          1.9960    0.3350   -1.0320 ca        1 ITA     -0.099000
      6 C6          3.2410   -0.2510   -1.4030 ca        1 ITA      0.001000
      7 C7          4.2000    0.3950   -2.2130 ca        1 ITA     -0.078600
      8 C8          4.0270    1.7500   -2.8590 c         1 ITA      0.732100
      9 N9          5.2080    2.0900   -3.5180 n         1 ITA     -0.534200
     10 C10         5.3560    3.3750   -4.1550 c3        1 ITA     -0.034000
     11 C11         5.7310    4.5950   -3.2590 c         1 ITA      0.913600
     12 O12         5.6130    4.5270   -2.0100 o         1 ITA     -0.827800
     13 O13         6.1120    5.6130   -3.9060 o         1 ITA     -0.827800
     14 S14         6.4070    0.9370   -3.4590 sy        1 ITA      1.496900
     15 O15         7.5320    1.3220   -2.7390 o         1 ITA     -0.624300
     16 O16         6.6220    0.4320   -4.7480 o         1 ITA     -0.624300
     17 C17         5.4290   -0.1820   -2.5270 ca        1 ITA     -0.232500
     18 C18         5.7090   -1.4860   -2.0740 ca        1 ITA     -0.024600
     19 C19         6.9690   -2.1870   -2.4240 c         1 ITA      0.617700
     20 O20         6.9260   -3.5130   -2.1390 os        1 ITA     -0.393900
     21 C21         8.1190   -4.2800   -2.3610 c3        1 ITA      0.013400
     22 C22         7.8930   -5.6870   -1.7550 c         1 ITA      0.919600
     23 O23         7.1000   -5.8310   -0.7880 o         1 ITA     -0.833800
     24 O24         8.5720   -6.6150   -2.2790 o         1 ITA     -0.833800
     25 O25         7.9840   -1.6920   -2.9260 o         1 ITA     -0.549000
     26 C26         4.7850   -2.1560   -1.2850 ca        1 ITA     -0.061000
     27 O27         2.9740    2.4010   -2.8700 o         1 ITA     -0.598500
     28 H211        8.3060   -4.3360   -3.4620 h1        1 ITA      0.037700
     29 H212        8.9830   -3.7770   -1.8590 h1        1 ITA      0.037700
     30 H26         5.0110   -3.1810   -0.9310 ha        1 ITA      0.190000
     31 H2          2.8760   -3.2500    0.2520 ha        1 ITA      0.141000
     32 H3          0.6990   -2.1780    0.8690 ha        1 ITA      0.118000
     33 H4          0.1560    0.1040    0.0530 ha        1 ITA      0.121000
     34 H5          1.7640    1.3520   -1.3960 ha        1 ITA      0.175000
     35 H101        4.3820    3.6380   -4.6550 h1        1 ITA      0.046700
     36 H102        6.1460    3.2640   -4.9510 h1        1 ITA      0.046700
@<TRIPOS>BOND
     1    1    2 ar  
     2    1    6 ar  
     3    1   26 ar  
     4    2    3 ar  
     5    2   31 1   
     6    3    4 ar  
     7    3   32 1   
     8    4    5 ar  
     9    4   33 1   
    10    5    6 ar  
    11    5   34 1   
    12    6    7 ar  
    13    7    8 1   
    14    7   17 ar  
    15    8    9 1   
    16    8   27 2   
    17    9   10 1   
    18    9   14 1   
    19   10   11 1   
    20   10   35 1   
    21   10   36 1   
    22   11   12 1   
    23   11   13 1   
    24   14   15 2   
    25   14   16 2   
    26   14   17 1   
    27   17   18 ar  
    28   18   19 1   
    29   18   26 ar  
    30   19   20 1   
    31   19   25 2   
    32   20   21 1   
    33   21   22 1   
    34   21   28 1   
    35   21   29 1   
    36   22   23 1   
    37   22   24 1   
    38   26   30 1   
@<TRIPOS>SUBSTRUCTURE
     1 ITA         1 TEMP              0 ****  ****    0 ROOT
