@<TRIPOS>MOLECULE
ITA
   36    38     1     0     0
SMALL
bcc


@<TRIPOS>ATOM
      1 C1         -0.0700   -0.1170   -0.0690 ca        1 ITA     -0.033000
      2 C2          1.3550   -0.1120   -0.0480 ca        1 ITA     -0.117000
      3 C3          2.0330   -0.0160    1.1390 ca        1 ITA     -0.136000
      4 C4          1.3220    0.0810    2.3620 ca        1 ITA     -0.147000
      5 C5         -0.0490    0.0760    2.3760 ca        1 ITA     -0.099000
      6 C6         -0.7840   -0.0250    1.1590 ca        1 ITA      0.001000
      7 C7         -2.1950   -0.0310    1.0930 ca        1 ITA     -0.078600
      8 C8         -3.1240   -0.0030    2.2840 c         1 ITA      0.732100
      9 N9         -4.4400    0.0590    1.8270 n         1 ITA     -0.534200
     10 C10        -5.5390    0.1810    2.7530 c3        1 ITA     -0.034000
     11 C11        -5.8690    1.6010    3.3110 c         1 ITA      0.913600
     12 O12        -5.0380    2.5360    3.1990 o         1 ITA     -0.827800
     13 O13        -6.9930    1.6810    3.8840 o         1 ITA     -0.827800
     14 S14        -4.6160    0.0310    0.1720 sy        1 ITA      1.496900
     15 O15        -5.1230    1.2070   -0.3660 o         1 ITA     -0.624300
     16 O16        -5.2500   -1.1610   -0.2020 o         1 ITA     -0.624300
     17 C17        -2.8900   -0.0880   -0.1130 ca        1 ITA     -0.232500
     18 C18        -2.1660   -0.2090   -1.3160 ca        1 ITA     -0.024600
     19 C19        -2.8410   -0.3400   -2.6300 c         1 ITA      0.617700
     20 O20        -1.9940   -0.7270   -3.6170 os        1 ITA     -0.393900
     21 C21        -2.5190   -0.8100   -4.9510 c3        1 ITA      0.013400
     22 C22        -1.3270   -1.0430   -5.9120 c         1 ITA      0.919600
     23 O23        -0.1830   -0.6210   -5.6010 o         1 ITA     -0.833800
     24 O24        -1.6130   -1.6340   -6.9910 o         1 ITA     -0.833800
     25 O25        -4.0360   -0.1430   -2.8800 o         1 ITA     -0.549000
     26 C26        -0.7790   -0.2190   -1.2890 ca        1 ITA     -0.061000
     27 O27        -2.7670   -0.1090    3.4650 o         1 ITA     -0.598500
     28 H211       -3.0400    0.1460   -5.2050 h1        1 ITA      0.037700
     29 H212       -3.2480   -1.6570   -4.9940 h1        1 ITA      0.037700
     30 H26        -0.2150   -0.3130   -2.2380 ha        1 ITA      0.190000
     31 H2          1.8900   -0.1840   -1.0080 ha        1 ITA      0.141000
     32 H3          3.1320   -0.0100    1.1590 ha        1 ITA      0.118000
     33 H4          1.8870    0.1630    3.3010 ha        1 ITA      0.121000
     34 H5         -0.6110    0.1560    3.3230 ha        1 ITA      0.175000
     35 H101       -5.3240   -0.4670    3.6480 h1        1 ITA      0.046700
     36 H102       -6.4570   -0.2180    2.2370 h1        1 ITA      0.046700
@<TRIPOS>BOND
     1    1    2 ar  
     2    1    6 ar  
     3    1   26 ar  
     4    2    3 ar  
     5    2   31 1   
     6    3    4 ar  
     7    3   32 1   
     8    4    5 ar  
     9    4   33 1   
    10    5    6 ar  
    11    5   34 1   
    12    6    7 ar  
    13    7    8 1   
    14    7   17 ar  
    15    8    9 1   
    16    8   27 2   
    17    9   10 1   
    18    9   14 1   
    19   10   11 1   
    20   10   35 1   
    21   10   36 1   
    22   11   12 1   
    23   11   13 1   
    24   14   15 2   
    25   14   16 2   
    26   14   17 1   
    27   17   18 ar  
    28   18   19 1   
    29   18   26 ar  
    30   19   20 1   
    31   19   25 2   
    32   20   21 1   
    33   21   22 1   
    34   21   28 1   
    35   21   29 1   
    36   22   23 1   
    37   22   24 1   
    38   26   30 1   
@<TRIPOS>SUBSTRUCTURE
     1 ITA         1 TEMP              0 ****  ****    0 ROOT
