@<TRIPOS>MOLECULE
ITB
   30    32     1     0     0
SMALL
bcc


@<TRIPOS>ATOM
      1 C1          0.0000   -0.0160   -0.0560 ca        1 ITB     -0.025000
      2 C10         1.4130    0.0010   -0.1010 ca        1 ITB     -0.057600
      3 C14         2.3740    0.0160    1.0680 c         1 ITB      0.728100
      4 O19         2.0190    0.1580    2.2510 o         1 ITB     -0.639500
      5 N15         3.6690   -0.0490    0.5800 n         1 ITB     -0.518200
      6 C20         4.7900   -0.1110    1.4780 c3        1 ITB     -0.015000
      7 C21         5.0980   -1.4480    2.2110 c         1 ITB      0.912600
      8 O23         6.2000   -1.4580    2.8390 o         1 ITB     -0.843800
      9 O22         4.2890   -2.4110    2.1860 o         1 ITB     -0.843800
     10 S16         3.8250    0.0000   -1.1390 sy        1 ITB      1.527900
     11 O18         4.4330    1.2370   -1.3970 o         1 ITB     -0.628300
     12 O17         4.4250   -1.1800   -1.5640 o         1 ITB     -0.628300
     13 C9          2.0950    0.0290   -1.3070 ca        1 ITB     -0.247500
     14 C8          1.3910    0.0760   -2.5250 ca        1 ITB     -0.047600
     15 C11         2.2550    0.1530   -3.7700 c         1 ITB      0.915200
     16 O13         3.5030    0.1600   -3.5170 o         1 ITB     -0.815300
     17 O12         1.7380    0.2130   -4.9120 o         1 ITB     -0.815300
     18 C7          0.0130    0.0700   -2.5180 ca        1 ITB     -0.119000
     19 C6         -0.7030    0.0180   -1.2960 ca        1 ITB     -0.020000
     20 C5         -2.1280    0.0010   -1.2740 ca        1 ITB     -0.138000
     21 C4         -2.8130   -0.0480   -0.0880 ca        1 ITB     -0.140000
     22 C3         -2.1110   -0.0850    1.1430 ca        1 ITB     -0.177000
     23 C2         -0.7390   -0.0700    1.1600 ca        1 ITB     -0.080000
     24 H201        4.6510    0.6610    2.2870 h1        1 ITB      0.035200
     25 H202        5.7040    0.1650    0.8790 h1        1 ITB      0.035200
     26 H7         -0.5320    0.1060   -3.4740 ha        1 ITB      0.142000
     27 H5         -2.6620    0.0270   -2.2350 ha        1 ITB      0.117000
     28 H4         -3.9120   -0.0620   -0.0740 ha        1 ITB      0.103000
     29 H3         -2.6810   -0.1300    2.0800 ha        1 ITB      0.111000
     30 H2         -0.1720   -0.1030    2.1080 ha        1 ITB      0.174000
@<TRIPOS>BOND
     1    1    2 ar  
     2    1   19 ar  
     3    1   23 ar  
     4    2    3 1   
     5    2   13 ar  
     6    3    4 2   
     7    3    5 1   
     8    5    6 1   
     9    5   10 1   
    10    6    7 1   
    11    6   24 1   
    12    6   25 1   
    13    7    8 1   
    14    7    9 1   
    15   10   11 2   
    16   10   12 2   
    17   10   13 1   
    18   13   14 ar  
    19   14   15 1   
    20   14   18 ar  
    21   15   16 1   
    22   15   17 1   
    23   18   19 ar  
    24   18   26 1   
    25   19   20 ar  
    26   20   21 ar  
    27   20   27 1   
    28   21   22 ar  
    29   21   28 1   
    30   22   23 ar  
    31   22   29 1   
    32   23   30 1   
@<TRIPOS>SUBSTRUCTURE
     1 ITB         1 TEMP              0 ****  ****    0 ROOT
