@<TRIPOS>MOLECULE
ITB
   30    32     1     0     0
SMALL
bcc


@<TRIPOS>ATOM
      1 C1          0.0000   -0.0160   -0.0560 ca        1 ITB     -0.025000
      2 C10         1.4130   -0.0010   -0.1000 ca        1 ITB     -0.057600
      3 C14         2.3730    0.0070    1.0700 c         1 ITB      0.728100
      4 O19         2.0170    0.1430    2.2530 o         1 ITB     -0.639500
      5 N15         3.6690   -0.0560    0.5820 n         1 ITB     -0.518200
      6 C20         4.7890   -0.1240    1.4810 c3        1 ITB     -0.015000
      7 C21         5.0950   -1.4650    2.2060 c         1 ITB      0.912600
      8 O23         6.1970   -1.4790    2.8350 o         1 ITB     -0.843800
      9 O22         4.2850   -2.4270    2.1750 o         1 ITB     -0.843800
     10 S16         3.8250    0.0020   -1.1360 sy        1 ITB      1.527900
     11 O18         4.4350    1.2400   -1.3870 o         1 ITB     -0.628300
     12 O17         4.4240   -1.1770   -1.5670 o         1 ITB     -0.628300
     13 C9          2.0960    0.0340   -1.3050 ca        1 ITB     -0.247500
     14 C8          1.3930    0.0880   -2.5240 ca        1 ITB     -0.047600
     15 C11         2.2580    0.1710   -3.7680 c         1 ITB      0.915200
     16 O13         3.5060    0.1750   -3.5130 o         1 ITB     -0.815300
     17 O12         1.7420    0.2380   -4.9100 o         1 ITB     -0.815300
     18 C7          0.0150    0.0840   -2.5180 ca        1 ITB     -0.119000
     19 C6         -0.7020    0.0250   -1.2970 ca        1 ITB     -0.020000
     20 C5         -2.1270    0.0110   -1.2760 ca        1 ITB     -0.138000
     21 C4         -2.8130   -0.0440   -0.0910 ca        1 ITB     -0.140000
     22 C3         -2.1120   -0.0890    1.1400 ca        1 ITB     -0.177000
     23 C2         -0.7400   -0.0760    1.1580 ca        1 ITB     -0.080000
     24 H201        5.7030    0.1560    0.8840 h1        1 ITB      0.035200
     25 H202        4.6480    0.6440    2.2940 h1        1 ITB      0.035200
     26 H7         -0.5290    0.1260   -3.4740 ha        1 ITB      0.142000
     27 H5         -2.6610    0.0420   -2.2380 ha        1 ITB      0.117000
     28 H4         -3.9120   -0.0570   -0.0780 ha        1 ITB      0.103000
     29 H3         -2.6830   -0.1380    2.0770 ha        1 ITB      0.111000
     30 H2         -0.1750   -0.1150    2.1070 ha        1 ITB      0.174000
@<TRIPOS>BOND
     1    1    2 ar  
     2    1   19 ar  
     3    1   23 ar  
     4    2    3 1   
     5    2   13 ar  
     6    3    4 2   
     7    3    5 1   
     8    5    6 1   
     9    5   10 1   
    10    6    7 1   
    11    6   24 1   
    12    6   25 1   
    13    7    8 1   
    14    7    9 1   
    15   10   11 2   
    16   10   12 2   
    17   10   13 1   
    18   13   14 ar  
    19   14   15 1   
    20   14   18 ar  
    21   15   16 1   
    22   15   17 1   
    23   18   19 ar  
    24   18   26 1   
    25   19   20 ar  
    26   20   21 ar  
    27   20   27 1   
    28   21   22 ar  
    29   21   28 1   
    30   22   23 ar  
    31   22   29 1   
    32   23   30 1   
@<TRIPOS>SUBSTRUCTURE
     1 ITB         1 TEMP              0 ****  ****    0 ROOT
