@<TRIPOS>MOLECULE
ITB
   30    32     1     0     0
SMALL
bcc


@<TRIPOS>ATOM
      1 C1          3.1910   -0.2550   -1.3170 ca        1 ITB     -0.025000
      2 C10         4.1690    0.3570   -2.1340 ca        1 ITB     -0.057600
      3 C14         4.0730    1.6850   -2.8520 c         1 ITB      0.728100
      4 O19         3.0300    2.3580   -2.9210 o         1 ITB     -0.639500
      5 N15         5.2830    1.9410   -3.4780 n         1 ITB     -0.518200
      6 C20         5.4970    3.1720   -4.1890 c3        1 ITB     -0.015000
      7 C21         5.7420    4.4780   -3.3820 c         1 ITB      0.912600
      8 O23         6.0940    5.4710   -4.0890 o         1 ITB     -0.843800
      9 O22         5.5720    4.5210   -2.1360 o         1 ITB     -0.843800
     10 S16         6.4590    0.6800   -3.3780 sy        1 ITB      1.527900
     11 O18         6.5690    0.2050   -4.6920 o         1 ITB     -0.628300
     12 O17         7.5770    1.1680   -2.7110 o         1 ITB     -0.628300
     13 C9          5.3840   -0.2610   -2.3880 ca        1 ITB     -0.247500
     14 C8          5.6610   -1.5360   -1.8610 ca        1 ITB     -0.047600
     15 C11         7.0060   -2.1200   -2.2520 c         1 ITB      0.915200
     16 O13         7.6870   -1.3530   -3.0070 o         1 ITB     -0.815300
     17 O12         7.3570   -3.2570   -1.8530 o         1 ITB     -0.815300
     18 C7          4.7270   -2.1650   -1.0670 ca        1 ITB     -0.119000
     19 C6          3.4880   -1.5400   -0.7760 ca        1 ITB     -0.020000
     20 C5          2.5160   -2.1750    0.0510 ca        1 ITB     -0.138000
     21 C4          1.3200   -1.5650    0.3260 ca        1 ITB     -0.140000
     22 C3          1.0300   -0.2860   -0.2100 ca        1 ITB     -0.177000
     23 C2          1.9410    0.3550   -1.0110 ca        1 ITB     -0.080000
     24 H201        4.5990    3.3740   -4.8410 h1        1 ITB      0.035200
     25 H202        6.3900    3.0130   -4.8570 h1        1 ITB      0.035200
     26 H7          4.9500   -3.1620   -0.6570 ha        1 ITB      0.142000
     27 H5          2.7540   -3.1660    0.4640 ha        1 ITB      0.117000
     28 H4          0.5740   -2.0560    0.9650 ha        1 ITB      0.103000
     29 H3          0.0670    0.1860    0.0280 ha        1 ITB      0.111000
     30 H2          1.7370    1.3540   -1.4350 ha        1 ITB      0.174000
@<TRIPOS>BOND
     1    1    2 ar  
     2    1   19 ar  
     3    1   23 ar  
     4    2    3 1   
     5    2   13 ar  
     6    3    4 2   
     7    3    5 1   
     8    5    6 1   
     9    5   10 1   
    10    6    7 1   
    11    6   24 1   
    12    6   25 1   
    13    7    8 1   
    14    7    9 1   
    15   10   11 2   
    16   10   12 2   
    17   10   13 1   
    18   13   14 ar  
    19   14   15 1   
    20   14   18 ar  
    21   15   16 1   
    22   15   17 1   
    23   18   19 ar  
    24   18   26 1   
    25   19   20 ar  
    26   20   21 ar  
    27   20   27 1   
    28   21   22 ar  
    29   21   28 1   
    30   22   23 ar  
    31   22   29 1   
    32   23   30 1   
@<TRIPOS>SUBSTRUCTURE
     1 ITB         1 TEMP              0 ****  ****    0 ROOT
