@<TRIPOS>MOLECULE
ITB
   30    32     1     0     0
SMALL
bcc


@<TRIPOS>ATOM
      1 C1         -0.0000   -0.0190   -0.0580 ca        1 ITB     -0.025000
      2 C10         1.4120   -0.0000   -0.1000 ca        1 ITB     -0.057600
      3 C14         2.3710    0.0120    1.0700 c         1 ITB      0.728100
      4 O19         2.0140    0.1500    2.2530 o         1 ITB     -0.639500
      5 N15         3.6680   -0.0490    0.5840 n         1 ITB     -0.518200
      6 C20         4.7870   -0.1130    1.4840 c3        1 ITB     -0.015000
      7 C21         5.0960   -1.4510    2.2120 c         1 ITB      0.912600
      8 O23         6.1970   -1.4620    2.8420 o         1 ITB     -0.843800
      9 O22         4.2880   -2.4150    2.1830 o         1 ITB     -0.843800
     10 S16         3.8260    0.0060   -1.1350 sy        1 ITB      1.527900
     11 O18         4.4330    1.2440   -1.3870 o         1 ITB     -0.628300
     12 O17         4.4280   -1.1720   -1.5620 o         1 ITB     -0.628300
     13 C9          2.0960    0.0340   -1.3050 ca        1 ITB     -0.247500
     14 C8          1.3940    0.0830   -2.5250 ca        1 ITB     -0.047600
     15 C11         2.2600    0.1650   -3.7680 c         1 ITB      0.915200
     16 O13         3.5080    0.1720   -3.5120 o         1 ITB     -0.815300
     17 O12         1.7450    0.2280   -4.9110 o         1 ITB     -0.815300
     18 C7          0.0160    0.0750   -2.5200 ca        1 ITB     -0.119000
     19 C6         -0.7020    0.0180   -1.2990 ca        1 ITB     -0.020000
     20 C5         -2.1270   -0.0010   -1.2800 ca        1 ITB     -0.138000
     21 C4         -2.8130   -0.0540   -0.0950 ca        1 ITB     -0.140000
     22 C3         -2.1130   -0.0950    1.1370 ca        1 ITB     -0.177000
     23 C2         -0.7420   -0.0780    1.1560 ca        1 ITB     -0.080000
     24 H201        4.6450    0.6570    2.2950 h1        1 ITB      0.035200
     25 H202        5.7020    0.1680    0.8870 h1        1 ITB      0.035200
     26 H7         -0.5270    0.1140   -3.4770 ha        1 ITB      0.142000
     27 H5         -2.6590    0.0280   -2.2420 ha        1 ITB      0.117000
     28 H4         -3.9120   -0.0700   -0.0830 ha        1 ITB      0.103000
     29 H3         -2.6850   -0.1430    2.0730 ha        1 ITB      0.111000
     30 H2         -0.1770   -0.1130    2.1050 ha        1 ITB      0.174000
@<TRIPOS>BOND
     1    1    2 ar  
     2    1   19 ar  
     3    1   23 ar  
     4    2    3 1   
     5    2   13 ar  
     6    3    4 2   
     7    3    5 1   
     8    5    6 1   
     9    5   10 1   
    10    6    7 1   
    11    6   24 1   
    12    6   25 1   
    13    7    8 1   
    14    7    9 1   
    15   10   11 2   
    16   10   12 2   
    17   10   13 1   
    18   13   14 ar  
    19   14   15 1   
    20   14   18 ar  
    21   15   16 1   
    22   15   17 1   
    23   18   19 ar  
    24   18   26 1   
    25   19   20 ar  
    26   20   21 ar  
    27   20   27 1   
    28   21   22 ar  
    29   21   28 1   
    30   22   23 ar  
    31   22   29 1   
    32   23   30 1   
@<TRIPOS>SUBSTRUCTURE
     1 ITB         1 TEMP              0 ****  ****    0 ROOT
