@<TRIPOS>MOLECULE
ITC
   58    58     1     0     0
SMALL
bcc


@<TRIPOS>ATOM
      1 C1          1.1750   -0.1700   -0.1540 c2        1 ITC      0.331000
      2 O1          1.1970    0.2900   -1.2990 o         1 ITC     -0.259000
      3 C2          2.4410   -0.2270    0.6370 c2        1 ITC     -0.369000
      4 C2'         3.6420   -0.7340   -0.0130 c2        1 ITC      0.322000
      5 O2'         4.7270   -0.9730    0.5180 o         1 ITC     -0.221000
      6 N2'         3.6030   -0.9810   -1.4940 n4        1 ITC     -0.126000
      7 C3          2.4930    0.2230    1.9360 c2        1 ITC      0.238000
      8 O3          3.5620    0.1980    2.7550 oh        1 ITC     -0.245000
      9 C4          1.2800    0.8470    2.5910 c3        1 ITC     -0.127000
     10 N4          1.5170    1.5850    3.8710 n4        1 ITC      0.007000
     11 C4'         0.2220    1.8040    4.5780 c3        1 ITC     -0.195000
     12 C4D         2.2120    2.8810    3.6330 c3        1 ITC     -0.195000
     13 C4A        -0.4260   -1.9980    0.4840 c2        1 ITC      0.011000
     14 C5          0.4610   -3.0560   -0.0370 c3        1 ITC     -0.225000
     15 C5A        -1.7970   -2.3830    0.9820 c3        1 ITC      0.015000
     16 C6         -1.9150   -3.8890    1.2600 c3        1 ITC      0.047000
     17 O6         -1.9130   -4.6150    0.0020 os        1 ITC     -0.284000
     18 C6'         0.9610   -5.6060    2.0540 c1        1 ITC     -0.075000
     19 C6A        -3.2040   -4.2970    1.9420 c2        1 ITC     -0.106000
     20 C7         -3.6280   -3.9480    3.3330 c3        1 ITC     -0.007000
     21 CL7        -4.1030   -2.2510    3.4560 cl        1 ITC     -0.106000
     22 C8         -4.6890   -4.9240    3.7980 c2        1 ITC     -0.073000
     23 C9         -5.4020   -5.4700    2.8330 c1        1 ITC     -0.249000
     24 C10        -5.2610   -5.4990    1.4880 c2        1 ITC      0.191000
     25 O10        -6.1660   -5.7500    0.5210 oh        1 ITC     -0.189000
     26 C6B        -3.9020   -5.1310    1.1000 c2        1 ITC     -0.087000
     27 C5B        -2.7990   -1.9320   -0.0180 c2        1 ITC     -0.436000
     28 C12        -3.8500   -1.1870    0.2660 c1        1 ITC      0.296000
     29 O12        -4.7710   -0.4700    0.4690 o         1 ITC     -0.092000
     30 C4B        -0.0640   -0.6930    0.4710 c2        1 ITC     -0.147000
     31 O4B        -0.8600    0.3230    0.9740 oh        1 ITC     -0.301000
     32 C11        -3.1170   -5.3340   -0.1340 c2        1 ITC      0.344000
     33 H2'1        3.2320   -0.1450   -1.9780 hn        1 ITC      0.286667
     34 H2'2        4.5500   -1.1960   -1.8380 hn        1 ITC      0.286667
     35 H3          4.3350   -0.2760    2.3820 ho        1 ITC      0.312000
     36 H4          0.5370    0.0070    2.7910 hx        1 ITC      0.204500
     37 H4A         0.7880    1.5600    1.8560 hx        1 ITC      0.204500
     38 H4'1       -0.2390    0.8130    4.8350 hx        1 ITC      0.155833
     39 H4'2        0.4180    2.3840    5.5220 hx        1 ITC      0.155833
     40 H4'3       -0.4750    2.3870    3.9170 hx        1 ITC      0.155833
     41 H4D1        2.4020    3.3830    4.6220 hx        1 ITC      0.155833
     42 H4D2        1.5690    3.5470    2.9970 hx        1 ITC      0.155833
     43 H4D3        3.1910    2.6820    3.1200 hx        1 ITC      0.155833
     44 H51C        1.4110   -2.6320   -0.4500 hc        1 ITC      0.114333
     45 H52C        0.7210   -3.8000    0.7730 hc        1 ITC      0.114333
     46 H5A        -0.0670   -3.6230   -0.8520 hc        1 ITC      0.114333
     47 H5B1       -1.9640   -1.8580    1.9700 hc        1 ITC      0.114000
     48 H5B2       -2.7010   -2.3420   -1.0380 ha        1 ITC      0.209000
     49 H6'1       -1.0210   -4.2620    1.8390 h1        1 ITC      0.147000
     50 H6'2        0.3160   -6.2020    2.7150 ha        1 ITC      0.044500
     51 H6'3        1.7590   -6.2070    1.5970 ha        1 ITC      0.044500
     52 H8         -2.7520   -4.0600    4.0300 h1        1 ITC      0.139000
     53 H9         -4.7220   -5.1820    4.8630 ha        1 ITC      0.180000
     54 H10        -7.0510   -5.7780    0.9330 ho        1 ITC      0.263000
     55 H4B        -1.7030    0.2970    0.4840 ho        1 ITC      0.257000
     56 O11        -3.2360   -5.9560   -1.1720 o         1 ITC     -0.210000
     57 H2'3        2.9790   -1.7720   -1.7010 hn        1 ITC      0.286667
     58 H41         2.1250    1.0050    4.4730 hn        1 ITC      0.263000
@<TRIPOS>BOND
     1    1    2 1   
     2    1    3 1   
     3    1   30 1   
     4    3    4 1   
     5    3    7 1   
     6    4    5 1   
     7    4    6 1   
     8    6   33 1   
     9    6   34 1   
    10    6   57 1   
    11    7    8 1   
    12    7    9 1   
    13    8   35 1   
    14    9   10 1   
    15    9   36 1   
    16    9   37 1   
    17   10   11 1   
    18   10   12 1   
    19   10   58 1   
    20   11   38 1   
    21   11   39 1   
    22   11   40 1   
    23   12   41 1   
    24   12   42 1   
    25   12   43 1   
    26   13   14 1   
    27   13   15 1   
    28   13   30 1   
    29   14   44 1   
    30   14   45 1   
    31   14   46 1   
    32   15   16 1   
    33   15   27 1   
    34   15   47 1   
    35   16   17 1   
    36   16   19 1   
    37   16   49 1   
    38   17   32 1   
    39   18   50 1   
    40   18   51 1   
    41   19   20 1   
    42   19   26 1   
    43   20   21 1   
    44   20   22 1   
    45   20   52 1   
    46   22   23 1   
    47   22   53 1   
    48   23   24 1   
    49   24   25 1   
    50   24   26 1   
    51   25   54 1   
    52   26   32 1   
    53   27   28 1   
    54   27   48 1   
    55   28   29 1   
    56   30   31 1   
    57   31   55 1   
    58   32   56 1   
@<TRIPOS>SUBSTRUCTURE
     1 ITC         1 TEMP              0 ****  ****    0 ROOT
