@<TRIPOS>MOLECULE
ITC
   58    60     1     0     0
SMALL
bcc


@<TRIPOS>ATOM
      1 C1         -0.0610   -0.3130    0.9220 c         1 ITC      0.577300
      2 O1         -0.9990   -0.3910    0.1230 o         1 ITC     -0.495100
      3 C2          1.3340   -0.5430    0.4960 ce        1 ITC     -0.410400
      4 C2'         1.6290   -1.3690   -0.6740 c         1 ITC      0.578300
      5 O2'         2.7460   -1.5080   -1.1770 o         1 ITC     -0.462100
      6 N2'         0.5340   -2.1320   -1.3280 n4        1 ITC     -0.733400
      7 C3          2.3530    0.0660    1.1900 c2        1 ITC      0.266900
      8 O3          3.6630    0.0600    0.9160 oh        1 ITC     -0.446100
      9 C4          2.0940    0.8480    2.4810 c3        1 ITC      0.149700
     10 N4          1.8400    2.3110    2.2130 n4        1 ITC     -0.675400
     11 C4'         1.5890    3.0540    3.4840 c3        1 ITC      0.080600
     12 C4D         2.9770    2.9320    1.4790 c3        1 ITC      0.080600
     13 C4A         0.9560    0.1400    3.2430 c3        1 ITC     -0.075700
     14 C5          1.4480   -1.2110    3.7200 c3        1 ITC     -0.116100
     15 C5A        -2.2500   -3.1630    2.5240 c2        1 ITC     -0.026200
     16 C6         -2.0950   -4.4840    1.8260 c3        1 ITC      0.207200
     17 O6         -1.2040   -4.2340    0.6690 os        1 ITC     -0.489900
     18 C6'        -1.4350   -5.5240    2.7130 c3        1 ITC     -0.101100
     19 C6A        -3.3760   -4.9970    1.1870 c2        1 ITC     -0.072400
     20 C7         -4.6010   -5.4790    1.9070 c3        1 ITC      0.091100
     21 CL7        -5.5090   -4.1200    2.5500 cl        1 ITC     -0.124400
     22 C8         -5.3930   -6.3800    0.9770 c2        1 ITC     -0.118300
     23 C9         -5.2650   -6.0850   -0.3020 c1        1 ITC     -0.103800
     24 C10        -4.4060   -5.3100   -0.9930 ce        1 ITC      0.155000
     25 O10        -4.5040   -4.7630   -2.2250 oh        1 ITC     -0.452100
     26 C6B        -3.2300   -5.0000   -0.1840 ce        1 ITC     -0.120200
     27 C5B        -1.2440   -2.2750    2.5070 ce        1 ITC     -0.277200
     28 C12        -1.3450   -0.9060    2.9980 c         1 ITC      0.565300
     29 O12        -2.1800   -0.4570    3.7790 o         1 ITC     -0.450100
     30 C4B        -0.3170    0.0740    2.3820 c3        1 ITC     -0.030200
     31 O4B        -0.8320    1.4020    2.3580 oh        1 ITC     -0.628800
     32 C11        -1.9000   -4.4820   -0.5180 c         1 ITC      0.772800
     33 H2'1       -0.2510   -1.5060   -1.5760 hn        1 ITC      0.499133
     34 H2'2        0.1560   -2.8680   -0.6970 hn        1 ITC      0.499133
     35 H3          3.9090   -0.5170    0.1590 ho        1 ITC      0.509000
     36 H4          3.0400    0.7940    3.1130 hx        1 ITC      0.153700
     37 H4A         0.6920    0.7430    4.1640 hc        1 ITC      0.122700
     38 H4'1        2.3710    2.7920    4.2450 hx        1 ITC      0.116533
     39 H4'2        1.6280    4.1580    3.2730 hx        1 ITC      0.116533
     40 H4'3        0.5620    2.7930    3.8660 hx        1 ITC      0.116533
     41 H4D1        3.9060    2.8860    2.1110 hx        1 ITC      0.116533
     42 H4D2        3.1550    2.3860    0.5140 hx        1 ITC      0.116533
     43 H4D3        2.7260    4.0060    1.2580 hx        1 ITC      0.116533
     44 H51C        2.3300   -1.0860    4.3960 hc        1 ITC      0.073700
     45 H52C        0.6420   -1.7260    4.3050 hc        1 ITC      0.073700
     46 H5A         1.7420   -1.8680    2.8670 hc        1 ITC      0.073700
     47 H5B1       -3.2230   -2.9680    3.0130 ha        1 ITC      0.194000
     48 H5B2       -0.2740   -2.5440    2.0510 ha        1 ITC      0.132000
     49 H6'1       -0.4230   -5.1690    3.0240 hc        1 ITC      0.077033
     50 H6'2       -2.0620   -5.6930    3.6220 hc        1 ITC      0.077033
     51 H6'3       -1.3210   -6.4880    2.1610 hc        1 ITC      0.077033
     52 H8         -4.2970   -6.1010    2.7960 h1        1 ITC      0.123700
     53 H9         -5.9190   -7.2400    1.4090 ha        1 ITC      0.194000
     54 H10        -5.4150   -4.9060   -2.5450 ho        1 ITC      0.469000
     55 H4B        -1.7920    1.3800    2.5130 ho        1 ITC      0.481000
     56 O11        -1.2660   -4.1630   -1.5210 o         1 ITC     -0.620500
     57 H2'3        0.8760   -2.6000   -2.1830 hn        1 ITC      0.499133
     58 H41         0.9820    2.3870    1.6390 hn        1 ITC      0.473800
@<TRIPOS>BOND
     1    1    2 2   
     2    1    3 1   
     3    1   30 1   
     4    3    4 1   
     5    3    7 2   
     6    4    5 2   
     7    4    6 1   
     8    6   33 1   
     9    6   34 1   
    10    6   57 1   
    11    7    8 1   
    12    7    9 1   
    13    8   35 1   
    14    9   10 1   
    15    9   13 1   
    16    9   36 1   
    17   10   11 1   
    18   10   12 1   
    19   10   58 1   
    20   11   38 1   
    21   11   39 1   
    22   11   40 1   
    23   12   41 1   
    24   12   42 1   
    25   12   43 1   
    26   13   14 1   
    27   13   30 1   
    28   13   37 1   
    29   14   44 1   
    30   14   45 1   
    31   14   46 1   
    32   15   16 1   
    33   15   27 2   
    34   15   47 1   
    35   16   17 1   
    36   16   18 1   
    37   16   19 1   
    38   17   32 1   
    39   18   49 1   
    40   18   50 1   
    41   18   51 1   
    42   19   20 1   
    43   19   26 2   
    44   20   21 1   
    45   20   22 1   
    46   20   52 1   
    47   22   23 2   
    48   22   53 1   
    49   23   24 2   
    50   24   25 1   
    51   24   26 1   
    52   25   54 1   
    53   26   32 1   
    54   27   28 1   
    55   27   48 1   
    56   28   29 2   
    57   28   30 1   
    58   30   31 1   
    59   31   55 1   
    60   32   56 2   
@<TRIPOS>SUBSTRUCTURE
     1 ITC         1 TEMP              0 ****  ****    0 ROOT
