@<TRIPOS>MOLECULE
ITC
   58    60     1     0     0
SMALL
bcc


@<TRIPOS>ATOM
      1 C1          0.3490    0.8360    0.1090 c2        1 ITC      0.273000
      2 O1         -0.3090    1.8350   -0.2540 o         1 ITC     -0.386000
      3 C2          1.7200    0.6190   -0.2100 c2        1 ITC     -0.552000
      4 C2'         2.4110    1.3630   -1.1960 c2        1 ITC      0.321000
      5 O2'         3.5990    1.2940   -1.5380 o         1 ITC     -0.308000
      6 N2'         1.6330    2.3990   -1.9900 nz        1 ITC     -0.128000
      7 C3          2.5480   -0.4350    0.4450 c3        1 ITC      0.121000
      8 O3          2.6070   -1.6500   -0.2930 oh        1 ITC     -0.335000
      9 C4          1.9300   -0.8600    1.8160 c3        1 ITC     -0.054000
     10 N4          2.0290    0.2640    2.8220 nx        1 ITC      0.010000
     11 C4'         1.5220   -0.1340    4.1630 c3        1 ITC     -0.194500
     12 C4D         3.4230    0.7730    2.9350 c3        1 ITC     -0.194500
     13 C4A         0.5040   -1.3150    1.4880 c3        1 ITC     -0.118000
     14 C5         -0.1990   -2.1780    2.5200 c3        1 ITC     -0.136000
     15 C5A        -1.5120   -2.6490    1.9770 c2        1 ITC     -0.050000
     16 C6         -2.0700   -3.8840    2.6380 c3        1 ITC      0.156000
     17 O6         -0.9500   -4.8220    2.8140 os        1 ITC     -0.230000
     18 C6'        -2.6200   -3.5680    4.0220 c3        1 ITC     -0.225000
     19 C6A        -3.0820   -4.6640    1.8080 c2        1 ITC     -0.025000
     20 C7         -4.3810   -4.3080    1.4390 c2        1 ITC     -0.092000
     21 Cl7        -5.5270   -1.1620    3.0350 cl        1 ITC     -0.222000
     22 C8         -5.1620   -5.2440    0.6990 c2        1 ITC     -0.057000
     23 C9         -4.4410   -6.3570    0.4750 c1        1 ITC      0.217000
     24 C10        -3.2200   -6.9260    0.7680 c2        1 ITC      0.205000
     25 O10        -2.6460   -8.1000    0.4690 oh        1 ITC     -0.124000
     26 C6B        -2.5160   -5.9290    1.5030 c2        1 ITC     -0.171000
     27 C5B        -2.1540   -1.9760    1.0110 c2        1 ITC     -0.199000
     28 C12        -1.6310   -0.7400    0.3920 c2        1 ITC      0.241000
     29 O12        -2.1710   -0.2280   -0.5860 o         1 ITC     -0.207000
     30 C4B        -0.3770   -0.1430    1.0500 c3        1 ITC      0.006000
     31 O4B        -0.7550    0.5980    2.2100 oh        1 ITC     -0.348000
     32 C11        -1.1710   -6.0060    2.1280 c2        1 ITC      0.361000
     33 H2'1        1.1730    3.0510   -1.3440 hn        1 ITC      0.258000
     34 H2'2        0.8950    1.9310   -2.5240 hn        1 ITC      0.258000
     35 H3          2.9910   -1.4320   -1.1540 ho        1 ITC      0.242000
     36 H4          3.6090   -0.0690    0.5790 h1        1 ITC      0.108000
     37 H4A         2.5220   -1.7320    2.2250 hx        1 ITC      0.162000
     38 H4'1        1.7860   -1.2040    4.3700 hx        1 ITC      0.144833
     39 H4'2        0.4070    0.0070    4.1850 hx        1 ITC      0.144833
     40 H4'3        1.9790    0.5180    4.9560 hx        1 ITC      0.144833
     41 H4D1        4.1300   -0.0860    3.0790 hx        1 ITC      0.144833
     42 H4D2        3.4980    1.4700    3.8140 hx        1 ITC      0.144833
     43 H4D3        3.6970    1.3430    2.0070 hx        1 ITC      0.144833
     44 H51C        0.6350   -1.9750    0.5670 hc        1 ITC      0.175000
     45 H52C       -0.4160   -1.6070    3.4630 hc        1 ITC      0.127500
     46 H5A         0.4560   -3.0530    2.7860 hc        1 ITC      0.127500
     47 H5B1       -6.6170   -0.5890    3.4270 ha        1 ITC      0.225000
     48 H5B2       -3.1270   -2.3000    0.6040 ha        1 ITC      0.149000
     49 H6'1       -1.8080   -3.1270    4.6510 hc        1 ITC      0.118667
     50 H6'2       -3.4610   -2.8380    3.9380 hc        1 ITC      0.118667
     51 H6'3       -2.9810   -4.5000    4.5210 hc        1 ITC      0.118667
     52 H8         -4.8400   -3.3340    1.6990 ha        1 ITC      0.232000
     53 H9         -6.1970   -5.0290    0.3680 ha        1 ITC      0.267000
     54 H10        -3.3120   -8.7310    0.1260 ho        1 ITC      0.286000
     55 H4B        -1.3250    1.3250    1.9080 ho        1 ITC      0.256000
     56 O11        -0.3030   -6.8540    2.1500 o         1 ITC     -0.172000
     57 H2'3        2.2620    2.9000   -2.6230 hn        1 ITC      0.258000
     58 H41         1.4290    1.0320    2.4730 hn        1 ITC      0.261000
@<TRIPOS>BOND
     1    1    2 1   
     2    1    3 1   
     3    1   30 1   
     4    3    4 1   
     5    3    7 1   
     6    4    5 1   
     7    4    6 1   
     8    6   33 1   
     9    6   34 1   
    10    6   57 1   
    11    7    8 1   
    12    7    9 1   
    13    7   36 1   
    14    8   35 1   
    15    9   10 1   
    16    9   13 1   
    17    9   37 1   
    18   10   11 1   
    19   10   12 1   
    20   10   58 1   
    21   11   38 1   
    22   11   39 1   
    23   11   40 1   
    24   12   41 1   
    25   12   42 1   
    26   12   43 1   
    27   13   14 1   
    28   13   30 1   
    29   13   44 1   
    30   14   15 1   
    31   14   45 1   
    32   14   46 1   
    33   15   16 1   
    34   15   27 1   
    35   16   17 1   
    36   16   18 1   
    37   16   19 1   
    38   17   32 1   
    39   18   49 1   
    40   18   50 1   
    41   18   51 1   
    42   19   20 1   
    43   19   26 1   
    44   20   22 1   
    45   20   52 1   
    46   21   47 1   
    47   22   23 1   
    48   22   53 1   
    49   23   24 1   
    50   24   25 1   
    51   24   26 1   
    52   25   54 1   
    53   26   32 1   
    54   27   28 1   
    55   27   48 1   
    56   28   29 1   
    57   28   30 1   
    58   30   31 1   
    59   31   55 1   
    60   32   56 1   
@<TRIPOS>SUBSTRUCTURE
     1 ITC         1 TEMP              0 ****  ****    0 ROOT
