@<TRIPOS>MOLECULE
ITC
   56    59     1     0     0
SMALL
bcc


@<TRIPOS>ATOM
      1 C1         -2.7000    0.4470   -1.3950 c         1 ITC      0.600300
      2 O1         -3.0570    0.7710   -2.5350 o         1 ITC     -0.541100
      3 C2         -3.1070    1.1390   -0.1720 ce        1 ITC     -0.391400
      4 C2'        -3.3670    2.5970   -0.1680 c         1 ITC      0.696300
      5 O2'        -3.6340    3.1970    0.9080 o         1 ITC     -0.679100
      6 N2'        -3.2910    3.3230   -1.3230 n         1 ITC     -0.646000
      7 C3         -3.2730    0.3870    0.9580 c2        1 ITC      0.258900
      8 O3         -3.6450    0.8100    2.1820 oh        1 ITC     -0.492100
      9 C4         -3.0290   -1.1220    0.9480 c3        1 ITC      0.208700
     10 N4         -4.2050   -1.8190    0.4200 n3        1 ITC     -0.718600
     11 C4'        -3.9720   -3.2210    0.1460 c3        1 ITC      0.144600
     12 C4D        -5.3740   -1.6150    1.2550 c3        1 ITC      0.144600
     13 C4A        -1.7110   -1.3550    0.1690 c3        1 ITC     -0.044700
     14 C5         -0.5800   -0.7910    1.0210 c3        1 ITC     -0.087400
     15 C5A         0.7570   -0.8190    0.3040 c3        1 ITC     -0.049700
     16 C6          1.8950   -0.3630    1.2300 c3        1 ITC      0.207100
     17 O6          1.6060    1.0150    1.6630 os        1 ITC     -0.405900
     18 C6'         1.9960   -1.2100    2.4880 c3        1 ITC     -0.101100
     19 C6A         3.2340   -0.2690    0.5190 ca        1 ITC     -0.048300
     20 C7          4.0300   -1.2180   -0.0940 ca        1 ITC     -0.005600
     21 CL7         3.5830   -2.8510   -0.1900 cl        1 ITC     -0.071400
     22 C8          5.2640   -0.8130   -0.6590 ca        1 ITC     -0.059000
     23 C9          5.6880    0.5010   -0.6040 ca        1 ITC     -0.157000
     24 C10         4.8810    1.4800    0.0320 ca        1 ITC      0.222100
     25 O10         5.3510    2.7590    0.0630 oh        1 ITC     -0.478100
     26 C6B         3.6700    1.0820    0.5820 ca        1 ITC     -0.278600
     27 C5B         0.6680    0.0570   -0.9330 c3        1 ITC     -0.180400
     28 C12        -0.4120   -0.4260   -1.8460 c         1 ITC      0.551100
     29 O12        -0.2350   -0.5580   -3.0600 o         1 ITC     -0.502100
     30 C4B        -1.7840   -0.7830   -1.2530 c3        1 ITC     -0.011200
     31 O4B        -2.3190   -1.8320   -2.0590 oh        1 ITC     -0.580800
     32 C11         2.6450    1.8550    1.2950 c         1 ITC      0.742200
     33 H2'1       -3.2180    2.8820   -2.2070 hn        1 ITC      0.326000
     34 H2'2       -3.5140    4.2880   -1.2870 hn        1 ITC      0.326000
     35 H3         -3.7770    1.7810    2.2080 ho        1 ITC      0.488000
     36 H4         -2.8380   -1.4390    2.0240 h1        1 ITC      0.057700
     37 H4A        -1.5420   -2.4660    0.0640 hc        1 ITC      0.089700
     38 H4'1       -3.5020   -3.7680    1.0090 h1        1 ITC      0.042033
     39 H4'2       -4.9530   -3.7120   -0.0920 h1        1 ITC      0.042033
     40 H4'3       -3.3100   -3.3120   -0.7550 h1        1 ITC      0.042033
     41 H4D1       -5.5390   -0.5160    1.4110 h1        1 ITC      0.042033
     42 H4D2       -6.2640   -2.0380    0.7210 h1        1 ITC      0.042033
     43 H4D3       -5.2890   -2.1060    2.2630 h1        1 ITC      0.042033
     44 H51C       -0.8040    0.2670    1.3290 hc        1 ITC      0.066200
     45 H52C       -0.5160   -1.4060    1.9590 hc        1 ITC      0.066200
     46 H5A         0.9950   -1.8760   -0.0060 hc        1 ITC      0.076700
     47 H5B1        0.4430    1.1170   -0.6330 hc        1 ITC      0.087200
     48 H5B2        1.6480    0.0580   -1.4820 hc        1 ITC      0.087200
     49 H6'1        1.9300   -2.2910    2.2230 hc        1 ITC      0.060367
     50 H6'2        2.9670   -1.0190    3.0060 hc        1 ITC      0.060367
     51 H6'3        1.1690   -0.9440    3.1910 hc        1 ITC      0.060367
     52 H8          5.8970   -1.5680   -1.1540 ha        1 ITC      0.160000
     53 H9          6.6480    0.8110   -1.0440 ha        1 ITC      0.168000
     54 H10         4.6990    3.3170    0.5260 ho        1 ITC      0.456000
     55 H4B        -2.4090   -1.4830   -2.9600 ho        1 ITC      0.439000
     56 O11         2.5540    3.0380    1.6010 o         1 ITC     -0.574500
@<TRIPOS>BOND
     1    1    2 2   
     2    1    3 1   
     3    1   30 1   
     4    3    4 1   
     5    3    7 2   
     6    4    5 2   
     7    4    6 1   
     8    6   33 1   
     9    6   34 1   
    10    7    8 1   
    11    7    9 1   
    12    8   35 1   
    13    9   10 1   
    14    9   13 1   
    15    9   36 1   
    16   10   11 1   
    17   10   12 1   
    18   11   38 1   
    19   11   39 1   
    20   11   40 1   
    21   12   41 1   
    22   12   42 1   
    23   12   43 1   
    24   13   14 1   
    25   13   30 1   
    26   13   37 1   
    27   14   15 1   
    28   14   44 1   
    29   14   45 1   
    30   15   16 1   
    31   15   27 1   
    32   15   46 1   
    33   16   17 1   
    34   16   18 1   
    35   16   19 1   
    36   17   32 1   
    37   18   49 1   
    38   18   50 1   
    39   18   51 1   
    40   19   20 ar  
    41   19   26 ar  
    42   20   21 1   
    43   20   22 ar  
    44   22   23 ar  
    45   22   52 1   
    46   23   24 ar  
    47   23   53 1   
    48   24   25 1   
    49   24   26 ar  
    50   25   54 1   
    51   26   32 1   
    52   27   28 1   
    53   27   47 1   
    54   27   48 1   
    55   28   29 2   
    56   28   30 1   
    57   30   31 1   
    58   31   55 1   
    59   32   56 2   
@<TRIPOS>SUBSTRUCTURE
     1 ITC         1 TEMP              0 ****  ****    0 ROOT
