@<TRIPOS>MOLECULE
ITC
   56    55     1     0     0
SMALL
bcc


@<TRIPOS>ATOM
      1 C1          0.8900   -0.5990   -2.4170 c1        1 ITC      0.284000
      2 O1          0.4180   -0.3740   -3.5340 o         1 ITC     -0.306000
      3 C2          2.4520   -1.1520   -2.2680 c1        1 ITC     -0.371000
      4 C2'         3.3140   -1.3140   -3.4870 c2        1 ITC      0.367000
      5 O2'         4.4390   -1.7130   -3.3760 o         1 ITC     -0.443000
      6 N2'         2.7920   -1.0140   -4.7680 n         1 ITC     -0.398000
      7 C3          3.1750   -1.0220   -0.7230 c1        1 ITC      0.207000
      8 O3          4.6640   -1.0460   -0.5870 o         1 ITC     -0.231500
      9 C4          2.2930   -0.4200    0.4250 c3        1 ITC      0.016000
     10 N4          3.1490    0.2190    1.4560 n3        1 ITC     -0.254000
     11 C4'         4.0580   -0.7940    2.0420 c3        1 ITC     -0.124500
     12 C4D         3.9430    1.2880    0.8410 c3        1 ITC     -0.124500
     13 C4A         1.2480    0.5210   -0.0980 c3        1 ITC     -0.079000
     14 C5          0.4590    1.0620    1.1340 c3        1 ITC     -0.155000
     15 C5A        -0.8590    1.3480    0.8280 c3        1 ITC     -0.089000
     16 C6         -1.6890   -0.1340    0.9420 c3        1 ITC      0.123000
     17 O6         -1.5940   -0.8000   -0.2300 os        1 ITC     -0.255000
     18 C6'        -1.0910   -0.9810    2.0610 c3        1 ITC     -0.219000
     19 C6A        -3.1260    0.1110    1.2230 c2        1 ITC     -0.043000
     20 C7         -3.7860    0.9060    2.2150 c2        1 ITC     -0.088000
     21 CL7        -2.8470    1.7100    3.4620 cl        1 ITC      0.003000
     22 C8         -5.1670    1.0080    2.2160 c1        1 ITC     -0.054000
     23 C9         -5.9120    0.3380    1.2520 c1        1 ITC     -0.215000
     24 C10        -5.2650   -0.4400    0.2810 c1        1 ITC      0.164000
     25 O10        -6.0030   -1.0640   -0.7070 o         1 ITC     -0.231500
     26 C6B        -3.8500   -0.5430    0.2830 c2        1 ITC     -0.181000
     27 O11        -3.2040   -1.8460   -1.6080 o         1 ITC     -0.257000
     28 C5B        -1.3330    1.9620   -0.4040 c3        1 ITC     -0.202000
     29 C12        -0.4760    1.3440   -1.6090 c2        1 ITC      0.235000
     30 O12        -0.7550    1.6240   -2.7610 o         1 ITC     -0.261000
     31 C4B         0.2800   -0.0560   -1.2690 c3        1 ITC     -0.012000
     32 O4B        -0.6120   -0.9560   -0.7440 oh        1 ITC     -0.306000
     33 C11        -2.9160   -1.1340   -0.6590 c2        1 ITC      0.359000
     34 H2'1        3.2380   -0.4650   -5.3140 hn        1 ITC      0.235500
     35 H2'2        2.0380   -1.3710   -5.0270 hn        1 ITC      0.235500
     36 H3          5.0470   -0.6960   -1.3460 ho        1 ITC      0.256000
     37 H4          1.8850   -1.1090    0.9330 h1        1 ITC      0.153000
     38 H4A         1.7350    1.2970   -0.4900 hc        1 ITC      0.104000
     39 H4'1        4.0650   -1.5830    1.4840 h1        1 ITC      0.080667
     40 H4'2        4.9320   -0.4390    2.0970 h1        1 ITC      0.080667
     41 H4'3        3.7490   -1.0310    2.9310 h1        1 ITC      0.080667
     42 H4D1        4.5290    1.6900    1.5180 h1        1 ITC      0.080667
     43 H4D2        4.5010    0.9060    0.1020 h1        1 ITC      0.080667
     44 H4D3        3.3440    1.9720    0.4780 h1        1 ITC      0.080667
     45 H51C        0.4810    0.3760    1.8600 hc        1 ITC      0.119500
     46 H52C        0.9080    1.9070    1.4660 hc        1 ITC      0.119500
     47 H5A        -1.1920    1.9210    1.5620 hc        1 ITC      0.107000
     48 H5B1       -1.4370    2.9660   -0.4830 hc        1 ITC      0.119500
     49 H5B2       -2.2580    1.6870   -0.4790 hc        1 ITC      0.119500
     50 H6'1       -0.7060   -0.3900    2.7500 hc        1 ITC      0.098333
     51 H6'2       -0.3780   -1.5660    1.6890 hc        1 ITC      0.098333
     52 H6'3       -1.8180   -1.5540    2.4750 hc        1 ITC      0.098333
     53 H8         -5.6320    1.5700    2.9170 ha        1 ITC      0.157000
     54 H9         -6.8840    0.4090    1.2520 ha        1 ITC      0.149000
     55 H10        -6.8080   -0.7390   -0.7160 ho        1 ITC      0.256000
     56 H4B        -0.4270   -1.7980   -1.0700 ho        1 ITC      0.234000
@<TRIPOS>BOND
     1    1    2 1   
     2    1   31 1   
     3    3    4 1   
     4    3    7 1   
     5    4    5 1   
     6    4    6 1   
     7    6   34 1   
     8    6   35 1   
     9    7    9 1   
    10    8   36 1   
    11    9   10 1   
    12    9   13 1   
    13    9   37 1   
    14   10   11 1   
    15   10   12 1   
    16   11   39 1   
    17   11   40 1   
    18   11   41 1   
    19   12   42 1   
    20   12   43 1   
    21   12   44 1   
    22   13   14 1   
    23   13   31 1   
    24   13   38 1   
    25   14   15 1   
    26   14   45 1   
    27   14   46 1   
    28   15   16 1   
    29   15   28 1   
    30   15   47 1   
    31   16   17 1   
    32   16   18 1   
    33   16   19 1   
    34   17   33 1   
    35   18   50 1   
    36   18   51 1   
    37   18   52 1   
    38   19   20 1   
    39   19   26 1   
    40   20   21 1   
    41   20   22 1   
    42   22   53 1   
    43   23   24 1   
    44   23   54 1   
    45   24   26 1   
    46   25   55 1   
    47   26   33 1   
    48   27   33 1   
    49   28   29 1   
    50   28   48 1   
    51   28   49 1   
    52   29   30 1   
    53   29   31 1   
    54   31   32 1   
    55   32   56 1   
@<TRIPOS>SUBSTRUCTURE
     1 ITC         1 TEMP              0 ****  ****    0 ROOT
