@<TRIPOS>MOLECULE
ITD
   61    64     1     0     0
SMALL
bcc


@<TRIPOS>ATOM
      1 C1          5.4260   -0.5210   -2.7740 c3        1 ITD     -0.084100
      2 N1          5.3190    0.3530   -0.4300 n2        1 ITD     -0.298200
      3 S1          4.4380   -0.3480    2.1330 ss        1 ITD     -0.075800
      4 C2          4.6600    0.3380   -1.7730 c3        1 ITD      0.121200
      5 N2          3.2750   -0.7440   -0.1590 na        1 ITD     -0.173100
      6 S2          0.0730    0.1880   -0.0380 ss        1 ITD     -0.326300
      7 C3          4.5030    1.7470   -2.3350 c3        1 ITD     -0.084100
      8 N3         -1.9500   -1.5600   -0.1140 nh        1 ITD     -0.796200
      9 C4          4.4910   -0.2000    0.4170 cc        1 ITD      0.113600
     10 N4         -2.5660    0.7530    0.0630 n2        1 ITD     -0.628900
     11 C5          2.7950   -0.8180    2.0910 cc        1 ITD     -0.167100
     12 C6          3.2160   -0.3010   -1.5390 c3        1 ITD     -0.000700
     13 C7          2.2900   -0.9280    0.8200 cd        1 ITD     -0.002600
     14 C8          0.8980   -1.3000    0.4880 c3        1 ITD      0.060000
     15 C9         -1.6680   -0.1750   -0.0360 c2        1 ITD      0.644100
     16 C10        -3.3250   -2.0270    0.0340 c3        1 ITD      0.188500
     17 C11        -3.3330   -3.5180    0.4250 c3        1 ITD     -0.090900
     18 C12        -4.7500   -3.9810    0.6910 c3        1 ITD     -0.074900
     19 C13        -5.6420   -3.7620   -0.5130 c3        1 ITD     -0.080400
     20 C14        -5.6130   -2.3130   -0.9540 c3        1 ITD     -0.074900
     21 C15        -4.1990   -1.8400   -1.2170 c3        1 ITD     -0.090900
     22 C16        -2.2140    2.1310    0.3260 c3        1 ITD      0.136500
     23 C17        -1.5620    2.8440   -0.8750 c3        1 ITD     -0.074900
     24 C18        -1.1930    4.2660   -0.5120 c3        1 ITD     -0.077400
     25 C19        -2.3990    5.0480   -0.0350 c3        1 ITD     -0.078400
     26 C20        -3.0810    4.3440    1.1190 c3        1 ITD     -0.077400
     27 C21        -3.4620    2.9240    0.7570 c3        1 ITD     -0.074900
     28 H1          5.5090   -1.5750   -2.4150 hc        1 ITD      0.044700
     29 H1A         4.8900   -0.5150   -3.7530 hc        1 ITD      0.044700
     30 H1B         6.4550   -0.1130   -2.9250 hc        1 ITD      0.044700
     31 H3          3.9680    1.6930   -3.3130 hc        1 ITD      0.044700
     32 H3A         3.9160    2.3940   -1.6400 hc        1 ITD      0.044700
     33 H3B         5.5050    2.2130   -2.4970 hc        1 ITD      0.044700
     34 HN3        -1.5080   -1.9680   -0.9180 hn        1 ITD      0.390800
     35 H5          2.2370   -1.0000    3.0070 h4        1 ITD      0.182000
     36 H6          2.4010    0.4510   -1.7090 h1        1 ITD      0.064200
     37 H6A         3.0570   -1.1870   -2.2060 h1        1 ITD      0.064200
     38 H8          0.3950   -1.7300    1.3900 h1        1 ITD      0.089200
     39 H8A         0.8680   -2.0670   -0.3250 h1        1 ITD      0.089200
     40 H10        -3.7960   -1.4480    0.8830 h1        1 ITD      0.080700
     41 H11        -2.8850   -4.1310   -0.4000 hc        1 ITD      0.045950
     42 H11A       -2.7120   -3.6750    1.3440 hc        1 ITD      0.045950
     43 H12        -4.7380   -5.0710    0.9560 hc        1 ITD      0.043200
     44 H12A       -5.1670   -3.4250    1.5710 hc        1 ITD      0.043200
     45 H13        -5.2990   -4.4170   -1.3570 hc        1 ITD      0.040200
     46 H13A       -6.6930   -4.0580   -0.2620 hc        1 ITD      0.040200
     47 H14        -6.2230   -2.1920   -1.8870 hc        1 ITD      0.043200
     48 H14A       -6.0800   -1.6710   -0.1610 hc        1 ITD      0.043200
     49 H15        -4.2200   -0.7590   -1.5100 hc        1 ITD      0.045950
     50 H15A       -3.7620   -2.4200   -2.0720 hc        1 ITD      0.045950
     51 H16        -1.4670    2.1730    1.1820 h1        1 ITD      0.056700
     52 H17        -0.6360    2.2860   -1.1840 hc        1 ITD      0.049700
     53 H17A       -2.2710    2.8460   -1.7430 hc        1 ITD      0.049700
     54 H18        -0.4100    4.2570    0.2920 hc        1 ITD      0.041950
     55 H18A       -0.7470    4.7710   -1.4080 hc        1 ITD      0.041950
     56 H19        -2.0800    6.0740    0.2840 hc        1 ITD      0.040700
     57 H19A       -3.1250    5.1680   -0.8810 hc        1 ITD      0.040700
     58 H20        -2.3970    4.3350    2.0090 hc        1 ITD      0.041950
     59 H20A       -4.0040    4.9090    1.4110 hc        1 ITD      0.041950
     60 H21        -4.2100    2.9320   -0.0770 hc        1 ITD      0.049700
     61 H21A       -3.9410    2.4290    1.6410 hc        1 ITD      0.049700
@<TRIPOS>BOND
     1    1    4 1   
     2    1   28 1   
     3    1   29 1   
     4    1   30 1   
     5    2    4 1   
     6    2    9 2   
     7    3    9 1   
     8    3   11 1   
     9    4    7 1   
    10    4   12 1   
    11    5    9 1   
    12    5   12 1   
    13    5   13 1   
    14    6   14 1   
    15    6   15 1   
    16    7   31 1   
    17    7   32 1   
    18    7   33 1   
    19    8   15 1   
    20    8   16 1   
    21    8   34 1   
    22   10   15 2   
    23   10   22 1   
    24   11   13 2   
    25   11   35 1   
    26   12   36 1   
    27   12   37 1   
    28   13   14 1   
    29   14   38 1   
    30   14   39 1   
    31   16   17 1   
    32   16   21 1   
    33   16   40 1   
    34   17   18 1   
    35   17   41 1   
    36   17   42 1   
    37   18   19 1   
    38   18   43 1   
    39   18   44 1   
    40   19   20 1   
    41   19   45 1   
    42   19   46 1   
    43   20   21 1   
    44   20   47 1   
    45   20   48 1   
    46   21   49 1   
    47   21   50 1   
    48   22   23 1   
    49   22   27 1   
    50   22   51 1   
    51   23   24 1   
    52   23   52 1   
    53   23   53 1   
    54   24   25 1   
    55   24   54 1   
    56   24   55 1   
    57   25   26 1   
    58   25   56 1   
    59   25   57 1   
    60   26   27 1   
    61   26   58 1   
    62   26   59 1   
    63   27   60 1   
    64   27   61 1   
@<TRIPOS>SUBSTRUCTURE
     1 ITD         1 TEMP              0 ****  ****    0 ROOT
