@<TRIPOS>MOLECULE
ITD
   62    65     1     0     0
SMALL
bcc


@<TRIPOS>ATOM
      1 C1          2.0660   -1.5540   -0.5110 c3        1 ITD     -0.088100
      2 N1          1.3550    0.3540    0.9310 n2        1 ITD     -0.257200
      3 S1          0.3250    2.9310    0.5770 ss        1 ITD      0.002200
      4 C2          2.5200   -0.3720    0.3380 c3        1 ITD      0.124200
      5 N2          2.5870    1.9420   -0.2640 na        1 ITD     -0.165100
      6 S2          4.5430    4.4460   -1.1570 ss        1 ITD     -0.215300
      7 C3          3.4920   -0.8590    1.4080 c3        1 ITD     -0.088100
      8 N3          5.5460    6.7590   -1.9750 n4        1 ITD     -0.739000
      9 C4          1.4110    1.5910    0.5230 cc        1 ITD      0.090600
     10 N4          6.1230    4.9400   -3.3920 n2        1 ITD     -0.528900
     11 C5          1.2080    3.7600   -0.6080 cc        1 ITD     -0.141100
     12 C6          3.2610    0.6970   -0.5910 c3        1 ITD     -0.009700
     13 C7          2.3430    3.0990   -1.0180 cd        1 ITD     -0.066600
     14 C8          3.2640    3.5760   -2.0620 c3        1 ITD      0.077000
     15 C9          5.4660    5.3050   -2.3520 c2        1 ITD      0.490100
     16 C10         5.0450    7.7090   -3.0360 c3        1 ITD      0.121500
     17 C11         5.3830    9.1570   -2.6530 c3        1 ITD     -0.095900
     18 C12         4.9340   10.0880   -3.7630 c3        1 ITD     -0.078400
     19 C13         3.4550    9.9400   -4.0490 c3        1 ITD     -0.090400
     20 C14         3.0980    8.5030   -4.3680 c3        1 ITD     -0.078400
     21 C15         3.5370    7.5640   -3.2610 c3        1 ITD     -0.095900
     22 C16         6.2290    3.5670   -3.8410 c3        1 ITD      0.121500
     23 C17         5.2840    3.2830   -5.0270 c3        1 ITD     -0.068900
     24 C18         5.3970    1.8270   -5.4290 c3        1 ITD     -0.080900
     25 C19         6.8200    1.4630   -5.7960 c3        1 ITD     -0.085400
     26 C20         7.7800    1.7990   -4.6750 c3        1 ITD     -0.080900
     27 C21         7.6770    3.2540   -4.2680 c3        1 ITD     -0.068900
     28 H1          2.9610   -2.0410   -0.9680 hc        1 ITD      0.051533
     29 H1A         1.5340   -2.3040    0.1240 hc        1 ITD      0.051533
     30 H1B         1.3780   -1.2280   -1.3260 hc        1 ITD      0.051533
     31 H3          3.8890   -0.0060    2.0080 hc        1 ITD      0.051533
     32 H3A         2.9790   -1.5740    2.0960 hc        1 ITD      0.051533
     33 H3B         4.3470   -1.3840    0.9180 hc        1 ITD      0.051533
     34 HN3         4.9780    6.8760   -1.1220 hn        1 ITD      0.458300
     35 H5          0.8730    4.7240   -0.9910 h4        1 ITD      0.179000
     36 H6          4.3430    0.7800   -0.3160 h1        1 ITD      0.060200
     37 H6A         3.1640    0.4250   -1.6740 h1        1 ITD      0.060200
     38 H8          2.7380    4.2650   -2.7670 h1        1 ITD      0.091700
     39 H8A         3.7130    2.7340   -2.6480 h1        1 ITD      0.091700
     40 H10         5.5900    7.4510   -3.9950 hx        1 ITD      0.121700
     41 H11         6.4880    9.2740   -2.4980 hc        1 ITD      0.059950
     42 H11A        4.8630    9.4350   -1.6990 hc        1 ITD      0.059950
     43 H12         5.1560   11.1450   -3.4570 hc        1 ITD      0.066450
     44 H12A        5.5250    9.8770   -4.6940 hc        1 ITD      0.066450
     45 H13         3.1770   10.5940   -4.9180 hc        1 ITD      0.065200
     46 H13A        2.8620   10.2890   -3.1630 hc        1 ITD      0.065200
     47 H14         1.9880    8.4110   -4.5010 hc        1 ITD      0.066450
     48 H14A        3.5800    8.1980   -5.3340 hc        1 ITD      0.066450
     49 H15         3.2880    6.5080   -3.5450 hc        1 ITD      0.059950
     50 H15A        2.9810    7.8120   -2.3180 hc        1 ITD      0.059950
     51 H16         5.9560    2.8550   -2.9980 h1        1 ITD      0.060700
     52 H17         5.5590    3.9380   -5.8940 hc        1 ITD      0.057200
     53 H17A        4.2260    3.5140   -4.7390 hc        1 ITD      0.057200
     54 H18         4.7220    1.6400   -6.3050 hc        1 ITD      0.055700
     55 H18A        5.0450    1.1750   -4.5860 hc        1 ITD      0.055700
     56 H19         7.1200    2.0140   -6.7260 hc        1 ITD      0.059200
     57 H19A        6.8770    0.3660   -6.0230 hc        1 ITD      0.059200
     58 H20         7.5720    1.1420   -3.7900 hc        1 ITD      0.055700
     59 H20A        8.8320    1.5900   -5.0070 hc        1 ITD      0.055700
     60 H21         7.9710    3.9130   -5.1260 hc        1 ITD      0.057200
     61 H21A        8.3800    3.4560   -3.4190 hc        1 ITD      0.057200
     62 H32         6.5220    7.0040   -1.7640 hn        1 ITD      0.458300
@<TRIPOS>BOND
     1    1    4 1   
     2    1   28 1   
     3    1   29 1   
     4    1   30 1   
     5    2    4 1   
     6    2    9 2   
     7    3    9 1   
     8    3   11 1   
     9    4    7 1   
    10    4   12 1   
    11    5    9 1   
    12    5   12 1   
    13    5   13 1   
    14    6   14 1   
    15    6   15 1   
    16    7   31 1   
    17    7   32 1   
    18    7   33 1   
    19    8   15 1   
    20    8   16 1   
    21    8   34 1   
    22    8   62 1   
    23   10   15 2   
    24   10   22 1   
    25   11   13 2   
    26   11   35 1   
    27   12   36 1   
    28   12   37 1   
    29   13   14 1   
    30   14   38 1   
    31   14   39 1   
    32   16   17 1   
    33   16   21 1   
    34   16   40 1   
    35   17   18 1   
    36   17   41 1   
    37   17   42 1   
    38   18   19 1   
    39   18   43 1   
    40   18   44 1   
    41   19   20 1   
    42   19   45 1   
    43   19   46 1   
    44   20   21 1   
    45   20   47 1   
    46   20   48 1   
    47   21   49 1   
    48   21   50 1   
    49   22   23 1   
    50   22   27 1   
    51   22   51 1   
    52   23   24 1   
    53   23   52 1   
    54   23   53 1   
    55   24   25 1   
    56   24   54 1   
    57   24   55 1   
    58   25   26 1   
    59   25   56 1   
    60   25   57 1   
    61   26   27 1   
    62   26   58 1   
    63   26   59 1   
    64   27   60 1   
    65   27   61 1   
@<TRIPOS>SUBSTRUCTURE
     1 ITD         1 TEMP              0 ****  ****    0 ROOT
