@<TRIPOS>MOLECULE
ITD
   61    62     1     0     0
SMALL
bcc


@<TRIPOS>ATOM
      1 C1         -1.4310   -6.4800    0.1430 c3        1 ITD     -0.202500
      2 N1          0.8490   -6.2410    0.9270 n1        1 ITD     -0.182000
      3 S1          1.1940   -4.4610    2.8490 ss        1 ITD      0.469000
      4 C2          0.0010   -6.2100   -0.2600 c2        1 ITD     -0.003000
      5 N2          1.0620   -3.9730    0.2960 na        1 ITD     -0.252000
      6 S2          0.7460   -0.3280    0.1380 ss        1 ITD      0.110000
      7 C3          0.2710   -7.2480   -1.3270 c3        1 ITD     -0.202500
      8 N3         -1.2360    1.2540    1.2530 n3        1 ITD     -0.285000
      9 C4          1.3980   -5.1340    1.2300 c2        1 ITD     -0.124000
     10 N4          0.7080    2.3280    0.4580 n1        1 ITD     -0.215000
     11 C5          0.7910   -3.0660    2.5890 c2        1 ITD     -0.454000
     12 C6          0.1590   -4.5650   -0.7150 c3        1 ITD     -0.047000
     13 C7          0.7080   -2.7630    1.2740 c2        1 ITD      0.045000
     14 C8         -0.2150   -1.6590    0.8080 c3        1 ITD     -0.214000
     15 C9          0.0450    1.2200    0.6450 c2        1 ITD     -0.033000
     16 C10        -2.0050    2.2230    1.0440 c3        1 ITD     -0.007000
     17 C11        -3.5300    1.7660    0.9710 c3        1 ITD     -0.155500
     18 C12        -4.4840    2.9160    0.6870 c3        1 ITD     -0.152500
     19 C13        -3.8350    3.9810    0.1520 c3        1 ITD     -0.157000
     20 C14        -2.8290    3.9090   -0.7650 c3        1 ITD     -0.152500
     21 C15        -1.8970    2.7600   -0.4770 c3        1 ITD     -0.155500
     22 C16         1.9940    2.2950   -0.1530 c2        1 ITD     -0.028000
     23 C17         1.9590    2.8850   -1.5920 c3        1 ITD     -0.154000
     24 C18         3.3260    2.9670   -2.2310 c3        1 ITD     -0.156000
     25 C19         4.3190    3.6760   -1.3840 c3        1 ITD     -0.157000
     26 C20         4.3920    3.1430    0.0080 c3        1 ITD     -0.156000
     27 C21         3.0380    3.0630    0.6810 c3        1 ITD     -0.154000
     28 H1         -1.6830   -5.8800    0.8760 hc        1 ITD      0.083667
     29 H1A        -1.5180   -7.4110    0.4380 hc        1 ITD      0.083667
     30 H1B        -2.0220   -6.3250   -0.6240 hc        1 ITD      0.083667
     31 H3          1.2200   -7.2270   -1.5710 hc        1 ITD      0.083667
     32 H3A        -0.2740   -7.0530   -2.1180 hc        1 ITD      0.083667
     33 H3B         0.0410   -8.1370   -0.9830 hc        1 ITD      0.083667
     34 HN3        -1.5070    0.5620    1.7860 hn        1 ITD      0.188000
     35 H5          1.0000   -2.3680    3.2380 h4        1 ITD      0.182000
     36 H6          0.5710   -4.5060   -1.6000 h1        1 ITD      0.099500
     37 H6A        -0.7140   -4.1260   -0.6740 h1        1 ITD      0.099500
     38 H8         -0.8170   -2.0060    0.1190 h1        1 ITD      0.125500
     39 H8A        -0.7410   -1.3330    1.5660 h1        1 ITD      0.125500
     40 H10        -1.8740    2.9430    1.6920 h1        1 ITD      0.096000
     41 H11        -3.6240    1.0990    0.2620 hc        1 ITD      0.084250
     42 H11A       -3.7760    1.3570    1.8240 hc        1 ITD      0.084250
     43 H12        -5.1730    2.6130    0.0600 hc        1 ITD      0.080750
     44 H12A       -4.9110    3.1910    1.5250 hc        1 ITD      0.080750
     45 H13        -3.4710    4.4840    0.9120 hc        1 ITD      0.080500
     46 H13A       -4.5300    4.5430   -0.2530 hc        1 ITD      0.080500
     47 H14        -2.3200    4.7460   -0.7470 hc        1 ITD      0.080750
     48 H14A       -3.2170    3.7900   -1.6570 hc        1 ITD      0.080750
     49 H15        -0.9780    3.0520   -0.6430 hc        1 ITD      0.084250
     50 H15A       -2.1080    2.0240   -1.0860 hc        1 ITD      0.084250
     51 H16         2.1770    1.3340   -0.1630 ha        1 ITD      0.094000
     52 H17         1.3850    2.3220   -2.1490 hc        1 ITD      0.089750
     53 H17A        1.5760    3.7840   -1.5530 hc        1 ITD      0.089750
     54 H18         3.6490    2.0590   -2.4010 hc        1 ITD      0.081000
     55 H18A        3.2470    3.4380   -3.0840 hc        1 ITD      0.081000
     56 H19         4.0780    4.6230   -1.3450 hc        1 ITD      0.079500
     57 H19A        5.2010    3.5920   -1.7980 hc        1 ITD      0.079500
     58 H20         4.7840    2.2470   -0.0180 hc        1 ITD      0.081000
     59 H20A        4.9730    3.7260    0.5380 hc        1 ITD      0.081000
     60 H21         2.7100    3.9710    0.8360 hc        1 ITD      0.089750
     61 H21A        3.1430    2.6140    1.5440 hc        1 ITD      0.089750
@<TRIPOS>BOND
     1    1    4 1   
     2    1   28 1   
     3    1   29 1   
     4    1   30 1   
     5    2    9 1   
     6    3    9 1   
     7    3   11 1   
     8    4    7 1   
     9    4   12 1   
    10    5    9 1   
    11    5   12 1   
    12    5   13 1   
    13    6   14 1   
    14    6   15 1   
    15    7   31 1   
    16    7   32 1   
    17    7   33 1   
    18    8   15 1   
    19    8   16 1   
    20    8   34 1   
    21   10   15 1   
    22   11   13 1   
    23   11   35 1   
    24   12   36 1   
    25   12   37 1   
    26   13   14 1   
    27   14   38 1   
    28   14   39 1   
    29   16   17 1   
    30   16   21 1   
    31   16   40 1   
    32   17   18 1   
    33   17   41 1   
    34   17   42 1   
    35   18   19 1   
    36   18   43 1   
    37   18   44 1   
    38   19   20 1   
    39   19   45 1   
    40   19   46 1   
    41   20   21 1   
    42   20   47 1   
    43   20   48 1   
    44   21   49 1   
    45   21   50 1   
    46   22   23 1   
    47   22   27 1   
    48   22   51 1   
    49   23   24 1   
    50   23   52 1   
    51   23   53 1   
    52   24   25 1   
    53   24   54 1   
    54   24   55 1   
    55   25   26 1   
    56   25   56 1   
    57   25   57 1   
    58   26   27 1   
    59   26   58 1   
    60   26   59 1   
    61   27   60 1   
    62   27   61 1   
@<TRIPOS>SUBSTRUCTURE
     1 ITD         1 TEMP              0 ****  ****    0 ROOT
