@<TRIPOS>MOLECULE
ITD
   62    65     1     0     0
SMALL
bcc


@<TRIPOS>ATOM
      1 C1          2.1730   -1.3410   -1.5660 c3        1 ITD     -0.088100
      2 N1          2.1520   -0.1040    0.6010 n2        1 ITD     -0.258200
      3 S1          1.2160    2.3510    1.5670 ss        1 ITD      0.007200
      4 C2          2.9730   -0.4880   -0.5890 c3        1 ITD      0.126200
      5 N2          2.9450    1.8870   -0.3290 na        1 ITD     -0.165100
      6 S2          4.4700    4.8600   -0.8230 ss        1 ITD     -0.217300
      7 C3          4.2430   -1.2320   -0.1880 c3        1 ITD     -0.088100
      8 N3          5.5290    7.0030   -1.9950 ny        1 ITD     -0.740000
      9 C4          2.1240    1.1980    0.6570 cc        1 ITD      0.091600
     10 N4          5.9600    4.9730   -3.1580 n2        1 ITD     -0.519900
     11 C5          1.6480    3.6030    0.5090 cc        1 ITD     -0.139100
     12 C6          3.3760    0.8900   -1.2920 c3        1 ITD     -0.010700
     13 C7          2.5130    3.2120   -0.4880 cd        1 ITD     -0.067600
     14 C8          3.0260    4.0900   -1.5520 c3        1 ITD      0.075000
     15 C9          5.3670    5.5170   -2.1580 c2        1 ITD      0.487100
     16 C10         4.9540    7.8180   -3.1280 c3        1 ITD      0.120500
     17 C11         5.4110    9.2790   -3.0180 c3        1 ITD     -0.096400
     18 C12         4.8810   10.0630   -4.2040 c3        1 ITD     -0.077900
     19 C13         3.3730    9.9780   -4.2960 c3        1 ITD     -0.090400
     20 C14         2.9040    8.5390   -4.3420 c3        1 ITD     -0.077900
     21 C15         3.4240    7.7500   -3.1560 c3        1 ITD     -0.096400
     22 C16         5.9730    3.5440   -3.3980 c3        1 ITD      0.115500
     23 C17         5.1410    3.1760   -4.6430 c3        1 ITD     -0.067900
     24 C18         5.1340    1.6710   -4.8160 c3        1 ITD     -0.081400
     25 C19         6.5390    1.1230   -4.9500 c3        1 ITD     -0.085400
     26 C20         7.4050    1.5380   -3.7780 c3        1 ITD     -0.081400
     27 C21         7.4180    3.0420   -3.5970 c3        1 ITD     -0.067900
     28 H1          2.8070   -1.5700   -2.4570 hc        1 ITD      0.051200
     29 H1A         1.8720   -2.3020   -1.0830 hc        1 ITD      0.051200
     30 H1B         1.2510   -0.8120   -1.9070 hc        1 ITD      0.051200
     31 H3          3.9820   -2.1760    0.3480 hc        1 ITD      0.051200
     32 H3A         4.8810   -0.6050    0.4800 hc        1 ITD      0.051200
     33 H3B         4.8250   -1.4900   -1.1050 hc        1 ITD      0.051200
     34 HN3         6.5270    7.2340   -1.9120 hn        1 ITD      0.457300
     35 H5          1.2540    4.6110    0.6360 h4        1 ITD      0.184000
     36 H6          4.4860    0.9610   -1.4280 h1        1 ITD      0.055700
     37 H6A         2.8680    0.9990   -2.2860 h1        1 ITD      0.055700
     38 H8          3.2960    3.5240   -2.4790 h1        1 ITD      0.091200
     39 H8A         2.2730    4.8730   -1.8140 h1        1 ITD      0.091200
     40 H10         5.3630    7.3820   -4.0900 hx        1 ITD      0.121700
     41 H11         6.5320    9.3390   -3.0080 hc        1 ITD      0.059950
     42 H11A        5.0270    9.7340   -2.0670 hc        1 ITD      0.059950
     43 H12         5.3430    9.6730   -5.1490 hc        1 ITD      0.066450
     44 H12A        5.1930   11.1350   -4.0940 hc        1 ITD      0.066450
     45 H13         3.0260   10.5120   -5.2210 hc        1 ITD      0.065700
     46 H13A        2.9100   10.4980   -3.4160 hc        1 ITD      0.065700
     47 H14         1.7820    8.5070   -4.3330 hc        1 ITD      0.066450
     48 H14A        3.2480    8.0580   -5.2960 hc        1 ITD      0.066450
     49 H15         3.0850    6.6830   -3.2380 hc        1 ITD      0.059950
     50 H15A        3.0010    8.1780   -2.2080 hc        1 ITD      0.059950
     51 H16         5.5370    2.9850   -2.5070 h1        1 ITD      0.063700
     52 H17         4.0900    3.5480   -4.5330 hc        1 ITD      0.058200
     53 H17A        5.5860    3.6610   -5.5510 hc        1 ITD      0.058200
     54 H18         4.5400    1.4130   -5.7320 hc        1 ITD      0.055200
     55 H18A        4.6240    1.1940   -3.9360 hc        1 ITD      0.055200
     56 H19         6.9970    1.4950   -5.9050 hc        1 ITD      0.059200
     57 H19A        6.5000    0.0040   -5.0090 hc        1 ITD      0.059200
     58 H20         7.0300    1.0480   -2.8410 hc        1 ITD      0.055200
     59 H20A        8.4570    1.1850   -3.9450 hc        1 ITD      0.055200
     60 H21         7.8700    3.5320   -4.4980 hc        1 ITD      0.058200
     61 H21A        8.0430    3.3060   -2.7060 hc        1 ITD      0.058200
     62 H32         5.0510    7.2570   -1.1180 hn        1 ITD      0.457300
@<TRIPOS>BOND
     1    1    4 1   
     2    1   28 1   
     3    1   29 1   
     4    1   30 1   
     5    2    4 1   
     6    2    9 2   
     7    3    9 1   
     8    3   11 1   
     9    4    7 1   
    10    4   12 1   
    11    5    9 1   
    12    5   12 1   
    13    5   13 1   
    14    6   14 1   
    15    6   15 1   
    16    7   31 1   
    17    7   32 1   
    18    7   33 1   
    19    8   15 1   
    20    8   16 1   
    21    8   34 1   
    22    8   62 1   
    23   10   15 2   
    24   10   22 1   
    25   11   13 2   
    26   11   35 1   
    27   12   36 1   
    28   12   37 1   
    29   13   14 1   
    30   14   38 1   
    31   14   39 1   
    32   16   17 1   
    33   16   21 1   
    34   16   40 1   
    35   17   18 1   
    36   17   41 1   
    37   17   42 1   
    38   18   19 1   
    39   18   43 1   
    40   18   44 1   
    41   19   20 1   
    42   19   45 1   
    43   19   46 1   
    44   20   21 1   
    45   20   47 1   
    46   20   48 1   
    47   21   49 1   
    48   21   50 1   
    49   22   23 1   
    50   22   27 1   
    51   22   51 1   
    52   23   24 1   
    53   23   52 1   
    54   23   53 1   
    55   24   25 1   
    56   24   54 1   
    57   24   55 1   
    58   25   26 1   
    59   25   56 1   
    60   25   57 1   
    61   26   27 1   
    62   26   58 1   
    63   26   59 1   
    64   27   60 1   
    65   27   61 1   
@<TRIPOS>SUBSTRUCTURE
     1 ITD         1 TEMP              0 ****  ****    0 ROOT
