@<TRIPOS>MOLECULE
ITD
   62    65     1     0     0
SMALL
bcc


@<TRIPOS>ATOM
      1 C1          2.1980   -1.3310   -1.4780 c3        1 ITD     -0.088100
      2 N1          2.1600   -0.0550    0.6660 n2        1 ITD     -0.258200
      3 S1          1.2060    2.4120    1.5830 ss        1 ITD      0.007200
      4 C2          2.9890   -0.4560   -0.5130 c3        1 ITD      0.126200
      5 N2          2.9460    1.9240   -0.2970 na        1 ITD     -0.165100
      6 S2          4.4550    4.8970   -0.8380 ss        1 ITD     -0.217300
      7 C3          4.2610   -1.1840   -0.0940 c3        1 ITD     -0.088100
      8 N3          5.5070    7.0230   -2.0470 n4        1 ITD     -0.740000
      9 C4          2.1250    1.2480    0.6990 cc        1 ITD      0.091600
     10 N4          5.9560    4.9730   -3.1670 n2        1 ITD     -0.519900
     11 C5          1.6350    3.6470    0.5040 cc        1 ITD     -0.139100
     12 C6          3.3870    0.9110   -1.2400 c3        1 ITD     -0.010700
     13 C7          2.5060    3.2430   -0.4820 cd        1 ITD     -0.067600
     14 C8          3.0190    4.1040   -1.5600 c3        1 ITD      0.075000
     15 C9          5.3550    5.5330   -2.1810 c2        1 ITD      0.487100
     16 C10         4.9340    7.8110   -3.2000 c3        1 ITD      0.120500
     17 C11         5.3810    9.2770   -3.1160 c3        1 ITD     -0.096400
     18 C12         4.8530   10.0340   -4.3200 c3        1 ITD     -0.077900
     19 C13         3.3460    9.9370   -4.4200 c3        1 ITD     -0.090400
     20 C14         2.8870    8.4950   -4.4400 c3        1 ITD     -0.077900
     21 C15         3.4050    7.7320   -3.2350 c3        1 ITD     -0.096400
     22 C16         5.9790    3.5390   -3.3780 c3        1 ITD      0.115500
     23 C17         5.1580    3.1420   -4.6210 c3        1 ITD     -0.067900
     24 C18         5.1600    1.6340   -4.7650 c3        1 ITD     -0.081400
     25 C19         6.5700    1.0920   -4.8790 c3        1 ITD     -0.085400
     26 C20         7.4250    1.5340   -3.7100 c3        1 ITD     -0.081400
     27 C21         7.4280    3.0420   -3.5580 c3        1 ITD     -0.067900
     28 H1          1.9010   -2.2850   -0.9780 hc        1 ITD      0.051200
     29 H1A         2.8370   -1.5720   -2.3610 hc        1 ITD      0.051200
     30 H1B         1.2740   -0.8130   -1.8320 hc        1 ITD      0.051200
     31 H3          4.0040   -2.1200    0.4590 hc        1 ITD      0.051200
     32 H3A         4.8920   -0.5420    0.5660 hc        1 ITD      0.051200
     33 H3B         4.8480   -1.4560   -1.0040 hc        1 ITD      0.051200
     34 HN3         5.0220    7.2910   -1.1780 hn        1 ITD      0.457300
     35 H5          1.2350    4.6550    0.6110 h4        1 ITD      0.184000
     36 H6          4.4970    0.9860   -1.3720 h1        1 ITD      0.055700
     37 H6A         2.8820    0.9990   -2.2370 h1        1 ITD      0.055700
     38 H8          3.2970    3.5230   -2.4750 h1        1 ITD      0.091200
     39 H8A         2.2620    4.8780   -1.8390 h1        1 ITD      0.091200
     40 H10         5.3520    7.3590   -4.1500 hx        1 ITD      0.121700
     41 H11         4.9880    9.7480   -2.1760 hc        1 ITD      0.059950
     42 H11A        6.5010    9.3450   -3.1000 hc        1 ITD      0.059950
     43 H12         5.1580   11.1110   -4.2290 hc        1 ITD      0.066450
     44 H12A        5.3230    9.6290   -5.2550 hc        1 ITD      0.066450
     45 H13         3.0020   10.4500   -5.3560 hc        1 ITD      0.065700
     46 H13A        2.8740   10.4720   -3.5530 hc        1 ITD      0.065700
     47 H14         3.2400    7.9970   -5.3820 hc        1 ITD      0.066450
     48 H14A        1.7660    8.4550   -4.4370 hc        1 ITD      0.066450
     49 H15         2.9730    8.1760   -2.2990 hc        1 ITD      0.059950
     50 H15A        3.0740    6.6620   -3.2990 hc        1 ITD      0.059950
     51 H16         5.5410    2.9960   -2.4790 h1        1 ITD      0.063700
     52 H17         5.6050    3.6120   -5.5360 hc        1 ITD      0.058200
     53 H17A        4.1030    3.5090   -4.5250 hc        1 ITD      0.058200
     54 H18         4.5740    1.3550   -5.6790 hc        1 ITD      0.055200
     55 H18A        4.6470    1.1710   -3.8790 hc        1 ITD      0.055200
     56 H19         7.0310    1.4470   -5.8380 hc        1 ITD      0.059200
     57 H19A        6.5370   -0.0290   -4.9170 hc        1 ITD      0.059200
     58 H20         8.4800    1.1840   -3.8630 hc        1 ITD      0.055200
     59 H20A        7.0470    1.0600   -2.7650 hc        1 ITD      0.055200
     60 H21         7.8840    3.5170   -4.4660 hc        1 ITD      0.058200
     61 H21A        8.0460    3.3260   -2.6680 hc        1 ITD      0.058200
     62 H32         6.5030    7.2620   -1.9630 hn        1 ITD      0.457300
@<TRIPOS>BOND
     1    1    4 1   
     2    1   28 1   
     3    1   29 1   
     4    1   30 1   
     5    2    4 1   
     6    2    9 2   
     7    3    9 1   
     8    3   11 1   
     9    4    7 1   
    10    4   12 1   
    11    5    9 1   
    12    5   12 1   
    13    5   13 1   
    14    6   14 1   
    15    6   15 1   
    16    7   31 1   
    17    7   32 1   
    18    7   33 1   
    19    8   15 1   
    20    8   16 1   
    21    8   34 1   
    22    8   62 1   
    23   10   15 2   
    24   10   22 1   
    25   11   13 2   
    26   11   35 1   
    27   12   36 1   
    28   12   37 1   
    29   13   14 1   
    30   14   38 1   
    31   14   39 1   
    32   16   17 1   
    33   16   21 1   
    34   16   40 1   
    35   17   18 1   
    36   17   41 1   
    37   17   42 1   
    38   18   19 1   
    39   18   43 1   
    40   18   44 1   
    41   19   20 1   
    42   19   45 1   
    43   19   46 1   
    44   20   21 1   
    45   20   47 1   
    46   20   48 1   
    47   21   49 1   
    48   21   50 1   
    49   22   23 1   
    50   22   27 1   
    51   22   51 1   
    52   23   24 1   
    53   23   52 1   
    54   23   53 1   
    55   24   25 1   
    56   24   54 1   
    57   24   55 1   
    58   25   26 1   
    59   25   56 1   
    60   25   57 1   
    61   26   27 1   
    62   26   58 1   
    63   26   59 1   
    64   27   60 1   
    65   27   61 1   
@<TRIPOS>SUBSTRUCTURE
     1 ITD         1 TEMP              0 ****  ****    0 ROOT
