@<TRIPOS>MOLECULE
ITE
   26    28     1     0     0
SMALL
bcc


@<TRIPOS>ATOM
      1 N1         -0.0710   -0.5280    0.0400 nc        1 ITE     -0.617100
      2 N3         -5.4620    0.4550    4.8590 n4        1 ITE     -0.675000
      3 C4         -2.0140    0.3710    3.6600 ca        1 ITE     -0.071200
      4 C5         -4.2060    0.3650    4.1030 cc        1 ITE      0.394700
      5 C6         -5.7000   -0.7670    5.6710 c3        1 ITE      0.083100
      6 C7         -2.7830   -0.0180    2.4850 ca        1 ITE      0.085400
      7 C8         -2.1420   -0.3190    1.2800 ca        1 ITE     -0.039000
      8 C10         1.2380   -0.4380    0.0240 cd        1 ITE      0.519800
      9 C1         -0.7370   -0.2300    1.2390 ca        1 ITE      0.177400
     10 C2         -0.0050    0.1590    2.4100 ca        1 ITE     -0.137600
     11 C3         -0.6230    0.4600    3.6200 ca        1 ITE     -0.056000
     12 N2         -2.9320    0.5600    4.7070 na        1 ITE     -0.248300
     13 N4         -4.1530   -0.0230    2.8020 nd        1 ITE     -0.476100
     14 C9          1.4780    0.2460    2.3320 c         1 ITE      0.698100
     15 O1          2.1990    0.5760    3.2870 o         1 ITE     -0.585500
     16 N5          2.0490   -0.0710    1.0900 n         1 ITE     -0.489400
     17 H6         -5.7380   -1.6620    4.9920 hx        1 ITE      0.117367
     18 H6A        -4.8660   -0.8980    6.4110 hx        1 ITE      0.117367
     19 H8         -2.7190   -0.6210    0.3900 ha        1 ITE      0.191000
     20 H10         1.7600   -0.6760   -0.9320 h5        1 ITE      0.076800
     21 H3         -0.0190    0.7510    4.4960 ha        1 ITE      0.185000
     22 HN5         3.0400   -0.0280    0.9880 hn        1 ITE      0.358500
     23 HN2        -2.7490    1.0760    5.5300 hn        1 ITE      0.322700
     24 H81        -6.2310    0.5720    4.1770 hn        1 ITE      0.476800
     25 H9         -6.6800   -0.6520    6.2110 hx        1 ITE      0.117367
     26 H32        -5.4340    1.2860    5.4630 hn        1 ITE      0.476800
@<TRIPOS>BOND
     1    1    8 2   
     2    1    9 1   
     3    2    4 1   
     4    2    5 1   
     5    2   24 1   
     6    2   26 1   
     7    3    6 ar  
     8    3   11 ar  
     9    3   12 1   
    10    4   12 1   
    11    4   13 2   
    12    5   17 1   
    13    5   18 1   
    14    5   25 1   
    15    6    7 ar  
    16    6   13 1   
    17    7    9 ar  
    18    7   19 1   
    19    8   16 1   
    20    8   20 1   
    21    9   10 ar  
    22   10   11 ar  
    23   10   14 1   
    24   11   21 1   
    25   12   23 1   
    26   14   15 2   
    27   14   16 1   
    28   16   22 1   
@<TRIPOS>SUBSTRUCTURE
     1 ITE         1 TEMP              0 ****  ****    0 ROOT
