@<TRIPOS>MOLECULE
ITE
   25    19     1     0     0
SMALL
bcc


@<TRIPOS>ATOM
      1 N1          2.1160    0.5060   -2.9470 n1        1 ITE     -0.182000
      2 N3         -3.7340   -0.1130    1.2320 n3        1 ITE     -0.258000
      3 C4         -0.1000   -0.0800    0.6590 c1        1 ITE     -0.061000
      4 C5         -2.2650   -0.0670    1.0970 c2        1 ITE      0.133000
      5 C6         -4.3400   -0.7730    2.3810 c3        1 ITE     -0.111000
      6 C7         -0.7670    0.0770   -0.5200 c1        1 ITE     -0.008000
      7 C8         -0.0410    0.2880   -1.7250 c1        1 ITE     -0.081000
      8 C10         3.5670    0.5150   -2.9320 c1        1 ITE      0.058000
      9 C1          1.3710    0.3360   -1.7010 c1        1 ITE      0.021000
     10 C2          2.0440    0.1780   -0.5160 c1        1 ITE     -0.163000
     11 C3          1.3240   -0.0330    0.6830 c2        1 ITE     -0.057000
     12 N2         -1.0280   -0.1690    1.6600 n1        1 ITE     -0.216500
     13 N4         -2.1050    0.0850   -0.2500 n1        1 ITE     -0.216500
     14 C9          3.5520    0.1880   -0.5020 c1        1 ITE      0.344000
     15 O1          4.1530    0.0840    0.5530 o         1 ITE     -0.355000
     16 N5          4.2670    0.3560   -1.7060 n2        1 ITE     -0.342000
     17 H6         -3.8370   -0.5580    3.1790 h1        1 ITE      0.086000
     18 H6A        -4.3320   -1.7510    2.2400 h1        1 ITE      0.086000
     19 H8         -0.5190    0.4570   -2.5580 ha        1 ITE      0.170000
     20 H10         4.0680    0.6330   -3.7730 ha        1 ITE      0.181000
     21 H3          1.7980   -0.0740    1.5360 ha        1 ITE      0.163000
     22 HN5         5.1900    0.3620   -1.6980 hn        1 ITE      0.251000
     23 HN2        -0.8480   -0.2020    2.5610 DU        1 ITE      0.250000
     24 H81        -4.2640    0.2180    0.5640 hn        1 ITE      0.222000
     25 H9         -5.2720   -0.4630    2.4850 h1        1 ITE      0.086000
@<TRIPOS>BOND
     1    1    8 1   
     2    2    4 1   
     3    2    5 1   
     4    2   24 1   
     5    3   11 1   
     6    4   12 1   
     7    4   13 1   
     8    5   17 1   
     9    5   18 1   
    10    5   25 1   
    11    6    7 1   
    12    7   19 1   
    13    8   20 1   
    14    9   10 1   
    15   10   11 1   
    16   11   21 1   
    17   14   15 1   
    18   14   16 1   
    19   16   22 1   
@<TRIPOS>SUBSTRUCTURE
     1 ITE         1 TEMP              0 ****  ****    0 ROOT
