@<TRIPOS>MOLECULE
ITE
   25    27     1     0     0
SMALL
bcc


@<TRIPOS>ATOM
      1 N1         -2.6480   -1.7430   -0.1160 nc        1 ITE     -0.609100
      2 N3          4.4340   -0.1950    0.3420 nh        1 ITE     -0.773200
      3 C4          0.9020    0.4980    0.1160 ca        1 ITE     -0.106200
      4 C5          3.0380   -0.2410    0.1680 cc        1 ITE      0.611700
      5 C6          5.1440    0.9250   -0.2150 c3        1 ITE      0.165100
      6 C7          0.9540   -0.9570    0.0470 ca        1 ITE      0.131400
      7 C8         -0.2220   -1.6980   -0.0340 ca        1 ITE     -0.081000
      8 C10        -3.7760   -1.0790   -0.1170 cd        1 ITE      0.481800
      9 C1         -1.4510   -1.0070   -0.0390 ca        1 ITE      0.160400
     10 C2         -1.4750    0.4210    0.0340 ca        1 ITE     -0.183600
     11 C3         -0.3050    1.1820    0.1070 ca        1 ITE     -0.057000
     12 N2          2.2350    0.9480    0.1220 na        1 ITE     -0.286300
     13 N4          2.2950   -1.3860    0.0690 nd        1 ITE     -0.617100
     14 C9         -2.7770    1.1210    0.0320 c         1 ITE      0.707100
     15 O1         -2.9210    2.3560    0.0950 o         1 ITE     -0.630500
     16 N5         -3.9170    0.3040   -0.0480 n         1 ITE     -0.502400
     17 H6          4.8670    1.8600    0.3410 h1        1 ITE      0.046700
     18 H6A         6.2430    0.7440   -0.0770 h1        1 ITE      0.046700
     19 H8         -0.1910   -2.7970   -0.0950 ha        1 ITE      0.170000
     20 H10        -4.7210   -1.6610   -0.1780 h5        1 ITE      0.051800
     21 H3         -0.3660    2.2800    0.1530 ha        1 ITE      0.163000
     22 HN5        -4.8180    0.7250   -0.0550 hn        1 ITE      0.337500
     23 HN2         2.5150    1.8140    0.5060 hn        1 ITE      0.299700
     24 H81         4.8640   -1.0810    0.1470 hn        1 ITE      0.426800
     25 H9          4.9380    1.0850   -1.3080 h1        1 ITE      0.046700
@<TRIPOS>BOND
     1    1    8 2   
     2    1    9 1   
     3    2    4 1   
     4    2    5 1   
     5    2   24 1   
     6    3    6 ar  
     7    3   11 ar  
     8    3   12 1   
     9    4   12 1   
    10    4   13 2   
    11    5   17 1   
    12    5   18 1   
    13    5   25 1   
    14    6    7 ar  
    15    6   13 1   
    16    7    9 ar  
    17    7   19 1   
    18    8   16 1   
    19    8   20 1   
    20    9   10 ar  
    21   10   11 ar  
    22   10   14 1   
    23   11   21 1   
    24   12   23 1   
    25   14   15 2   
    26   14   16 1   
    27   16   22 1   
@<TRIPOS>SUBSTRUCTURE
     1 ITE         1 TEMP              0 ****  ****    0 ROOT
