@<TRIPOS>MOLECULE
ITE
   25    27     1     0     0
SMALL
bcc


@<TRIPOS>ATOM
      1 N1         -0.0260    0.1010   -0.0600 nc        1 ITE     -0.609100
      2 N3         -5.4910   -0.3520    4.7040 nu        1 ITE     -0.773200
      3 C4         -2.0610   -0.1260    3.6120 ca        1 ITE     -0.106200
      4 C5         -4.2890   -0.1790    3.9910 cc        1 ITE      0.611700
      5 C6         -5.5750    0.2060    6.0260 c3        1 ITE      0.165100
      6 C7         -2.8060   -0.0600    2.3610 ca        1 ITE      0.131400
      7 C8         -2.1320    0.0200    1.1460 ca        1 ITE     -0.081000
      8 C10         1.2830    0.1030   -0.0210 cd        1 ITE      0.481800
      9 C1         -0.7220    0.0260    1.1610 ca        1 ITE      0.160400
     10 C2         -0.0130   -0.0450    2.4010 ca        1 ITE     -0.183600
     11 C3         -0.6740   -0.1160    3.6310 ca        1 ITE     -0.057000
     12 N2         -3.0130   -0.1320    4.6480 na        1 ITE     -0.286300
     13 N4         -4.1890   -0.0820    2.6300 nd        1 ITE     -0.617100
     14 C9          1.4640   -0.0410    2.3890 c         1 ITE      0.707100
     15 O1          2.1840   -0.1020    3.4020 o         1 ITE     -0.630500
     16 N5          2.0710    0.0370    1.1240 ns        1 ITE     -0.502400
     17 H6         -6.6250    0.0680    6.3960 h1        1 ITE      0.046700
     18 H6A        -4.8820   -0.3490    6.7130 h1        1 ITE      0.046700
     19 H8         -2.6870    0.0780    0.1970 ha        1 ITE      0.170000
     20 H10         1.8310    0.1630   -0.9860 h5        1 ITE      0.051800
     21 H3         -0.0920   -0.1600    4.5650 ha        1 ITE      0.163000
     22 HN5         3.0630    0.0440    1.0600 hn        1 ITE      0.337500
     23 HN2        -2.8420   -0.5130    5.5430 hn        1 ITE      0.299700
     24 H81        -6.2930   -0.1590    4.1330 hn        1 ITE      0.426800
     25 H9         -5.3170    1.2990    6.0660 h1        1 ITE      0.046700
@<TRIPOS>BOND
     1    1    8 2   
     2    1    9 1   
     3    2    4 1   
     4    2    5 1   
     5    2   24 1   
     6    3    6 ar  
     7    3   11 ar  
     8    3   12 1   
     9    4   12 1   
    10    4   13 2   
    11    5   17 1   
    12    5   18 1   
    13    5   25 1   
    14    6    7 ar  
    15    6   13 1   
    16    7    9 ar  
    17    7   19 1   
    18    8   16 1   
    19    8   20 1   
    20    9   10 ar  
    21   10   11 ar  
    22   10   14 1   
    23   11   21 1   
    24   12   23 1   
    25   14   15 2   
    26   14   16 1   
    27   16   22 1   
@<TRIPOS>SUBSTRUCTURE
     1 ITE         1 TEMP              0 ****  ****    0 ROOT
