@<TRIPOS>MOLECULE
ITI
   72    78     1     0     0
SMALL
bcc


@<TRIPOS>ATOM
      1 C4         -1.3370    0.6160    2.6760 ca        1 ITI     -0.114000
      2 C5         -1.4120   -0.7580    2.4600 ca        1 ITI     -0.131000
      3 C6         -4.5830    4.5350   -1.9340 ca        1 ITI     -0.126000
      4 C7         -5.3260    4.9850    0.3220 ca        1 ITI     -0.126000
      5 C8          4.4440    1.8350   -0.6550 ca        1 ITI     -0.157000
      6 C10        -2.2560    1.4790    2.0920 ca        1 ITI     -0.178000
      7 C13         0.9440   -4.2020    1.1810 ca        1 ITI     -0.423600
      8 C15         2.2710   -3.8570    0.8770 ca        1 ITI      0.461200
      9 C17        -5.2750    4.1300   -0.7860 ca        1 ITI     -0.097300
     10 C20        -3.2900    0.9700    1.2700 ca        1 ITI      0.060600
     11 C21        -0.0610   -3.3060    0.7470 ca        1 ITI      0.566800
     12 C22        -2.5240   -2.7110    1.4270 cc        1 ITI      0.439800
     13 C24         1.5690   -1.9310   -0.2020 ca        1 ITI      0.868900
     14 C26        -1.7080   -6.1770    0.6850 cc        1 ITI     -0.080300
     15 C28        -5.0690    1.6530   -0.3460 c         1 ITI      0.666100
     16 C1         -4.0010    6.6220   -0.8620 ca        1 ITI     -0.125000
     17 C2         -3.9480    5.7750   -1.9690 ca        1 ITI     -0.127000
     18 C3         -4.6920    6.2250    0.2830 ca        1 ITI     -0.127000
     19 C9          5.4930   -0.1860   -1.4660 ca        1 ITI     -0.157000
     20 C11         3.2250    1.1780   -0.5990 ca        1 ITI     -0.109000
     21 C12         4.2680   -0.8420   -1.4280 ca        1 ITI     -0.109000
     22 C14        -3.3670   -0.4220    1.0560 ca        1 ITI     -0.113000
     23 C16        -2.4270   -1.2740    1.6460 ca        1 ITI     -0.085500
     24 C18         5.6130    1.1680   -1.0870 ca        1 ITI      0.125600
     25 C19         3.1110   -0.1750   -0.9850 ca        1 ITI      0.096600
     26 C23        -1.4600   -3.5870    1.0500 cd        1 ITI     -0.271100
     27 C25        -3.4200   -4.7060    1.3310 cd        1 ITI      0.402900
     28 C27        -2.7980   -7.0030    0.7970 cd        1 ITI     -0.170100
     29 C29         7.9220    1.2130   -1.8770 c3        1 ITI      0.147800
     30 C30         7.2620    2.5710    0.0120 c3        1 ITI      0.147800
     31 C31         9.1320    2.1360   -2.0790 c3        1 ITI      0.123900
     32 C32         8.4900    3.4570   -0.2310 c3        1 ITI      0.123900
     33 C33        -5.9670    2.8160   -0.7540 c3        1 ITI     -0.115100
     34 N34         2.6170   -2.7510    0.2030 nb        1 ITI     -0.731000
     35 N35         0.2260   -2.1740    0.0640 nb        1 ITI     -0.725000
     36 N36        -3.7220   -3.4160    1.5980 nc        1 ITI     -0.622000
     37 N37        -2.0310   -4.8610    0.9950 na        1 ITI     -0.129900
     38 N38         6.8270    1.8950   -1.2050 nh        1 ITI     -0.629000
     39 N39         1.8410   -0.8030   -1.0050 nh        1 ITI     -0.696300
     40 N40        -4.2200    1.8740    0.7280 n         1 ITI     -0.468100
     41 O41        -5.1570    0.5640   -0.9400 o         1 ITI     -0.585100
     42 O42         9.5450    2.7360   -0.8570 os        1 ITI     -0.413600
     43 S43        -4.2220   -6.2000    1.2660 ss        1 ITI     -0.012300
     44 H4         -0.5420    1.0240    3.3180 ha        1 ITI      0.130000
     45 H5         -0.6810   -1.4340    2.9260 ha        1 ITI      0.135000
     46 H7         -5.8790    4.6800    1.2240 ha        1 ITI      0.137500
     47 H8          4.4840    2.8970   -0.3650 ha        1 ITI      0.136500
     48 H10        -2.1720    2.5600    2.2800 ha        1 ITI      0.127000
     49 H13         0.7060   -5.1060    1.7500 ha        1 ITI      0.153000
     50 H15         3.1130   -4.4990    1.1960 h4        1 ITI      0.027100
     51 H26        -0.6830   -6.4320    0.3910 h4        1 ITI      0.192000
     52 H1         -3.5010    7.6010   -0.8920 ha        1 ITI      0.135000
     53 H2         -3.4050    6.0860   -2.8740 ha        1 ITI      0.136000
     54 H3         -4.7400    6.8930    1.1560 ha        1 ITI      0.136000
     55 H9          6.3710   -0.7560   -1.8070 ha        1 ITI      0.136500
     56 H11         2.3380    1.7340   -0.2550 ha        1 ITI      0.144000
     57 H12         4.2190   -1.8970   -1.7430 ha        1 ITI      0.144000
     58 H14        -4.1620   -0.8500    0.4200 ha        1 ITI      0.183000
     59 H27        -2.7830   -8.0760    0.6070 h4        1 ITI      0.188000
     60 H29         7.5580    0.8760   -2.8880 h1        1 ITI      0.047700
     61 H29A        8.2640    0.3050   -1.3000 h1        1 ITI      0.047700
     62 H30         7.5130    1.8260    0.8220 h1        1 ITI      0.047700
     63 H30A        6.4230    3.2210    0.3840 h1        1 ITI      0.047700
     64 H31        10.0190    1.5360   -2.4110 h1        1 ITI      0.055950
     65 H31A        8.9000    2.9360   -2.8310 h1        1 ITI      0.055950
     66 H32         8.2200    4.3470   -0.8580 h1        1 ITI      0.055950
     67 H32A        8.9220    3.7900    0.7490 h1        1 ITI      0.055950
     68 H33        -6.8320    2.8430   -0.0370 hc        1 ITI      0.085200
     69 H33A       -6.3770    2.5710   -1.7720 hc        1 ITI      0.085200
     70 HN39        1.0740   -0.1640   -1.0890 hn        1 ITI      0.440800
     71 HN40       -4.1490    2.8130    1.0580 hn        1 ITI      0.320500
     72 H6         -4.5410    3.8690   -2.8100 ha        1 ITI      0.137500
@<TRIPOS>BOND
     1    1    2 ar  
     2    1    6 ar  
     3    1   44 1   
     4    2   23 ar  
     5    2   45 1   
     6    3    9 ar  
     7    3   17 ar  
     8    3   72 1   
     9    4    9 ar  
    10    4   18 ar  
    11    4   46 1   
    12    5   20 ar  
    13    5   24 ar  
    14    5   47 1   
    15    6   10 ar  
    16    6   48 1   
    17    7    8 ar  
    18    7   11 ar  
    19    7   49 1   
    20    8   34 ar  
    21    8   50 1   
    22    9   33 1   
    23   10   22 ar  
    24   10   40 1   
    25   11   26 1   
    26   11   35 ar  
    27   12   23 1   
    28   12   26 2   
    29   12   36 1   
    30   13   34 ar  
    31   13   35 ar  
    32   13   39 1   
    33   14   28 2   
    34   14   37 1   
    35   14   51 1   
    36   15   33 1   
    37   15   40 1   
    38   15   41 2   
    39   16   17 ar  
    40   16   18 ar  
    41   16   52 1   
    42   17   53 1   
    43   18   54 1   
    44   19   21 ar  
    45   19   24 ar  
    46   19   55 1   
    47   20   25 ar  
    48   20   56 1   
    49   21   25 ar  
    50   21   57 1   
    51   22   23 ar  
    52   22   58 1   
    53   24   38 1   
    54   25   39 1   
    55   26   37 1   
    56   27   36 2   
    57   27   37 1   
    58   27   43 1   
    59   28   43 1   
    60   28   59 1   
    61   29   31 1   
    62   29   38 1   
    63   29   60 1   
    64   29   61 1   
    65   30   32 1   
    66   30   38 1   
    67   30   62 1   
    68   30   63 1   
    69   31   42 1   
    70   31   64 1   
    71   31   65 1   
    72   32   42 1   
    73   32   66 1   
    74   32   67 1   
    75   33   68 1   
    76   33   69 1   
    77   39   70 1   
    78   40   71 1   
@<TRIPOS>SUBSTRUCTURE
     1 ITI         1 TEMP              0 ****  ****    0 ROOT
