@<TRIPOS>MOLECULE
ITI
   74    80     1     0     0
SMALL
bcc


@<TRIPOS>ATOM
      1 C4         -1.7850   -0.0020    2.4050 ca        1 ITI     -0.105000
      2 C5         -1.1650   -1.1880    2.0140 ca        1 ITI     -0.080000
      3 C6          2.6040    1.7660    8.0960 ca        1 ITI     -0.126500
      4 C7          2.8440   -0.2150    6.7210 ca        1 ITI     -0.126500
      5 C8          1.1530   -4.4450   -6.5110 ca        1 ITI     -0.208000
      6 C10        -1.1620    0.8640    3.2990 ca        1 ITI     -0.089000
      7 C13         0.1360   -1.7500   -0.7370 ca        1 ITI     -0.333600
      8 C15        -0.3590   -1.4310   -2.0120 ca        1 ITI      0.467200
      9 C17         2.0260    0.7520    7.3240 ca        1 ITI     -0.173300
     10 C20         0.1080    0.5260    3.8020 ca        1 ITI     -0.052400
     11 C21         0.2320   -3.1200   -0.3850 ca        1 ITI      0.576800
     12 C22         0.7300   -2.7970    2.1750 cc        1 ITI      0.418800
     13 C24        -0.6000   -3.6650   -2.4780 ca        1 ITI      0.733900
     14 C26         1.7940   -5.8830    0.5580 cc        1 ITI     -0.088300
     15 C28        -0.0000    1.4950    6.0820 c         1 ITI      0.563100
     16 C1          4.8010    0.8610    7.6470 ca        1 ITI     -0.088000
     17 C2          3.9900    1.8200    8.2530 ca        1 ITI     -0.114000
     18 C3          4.2260   -0.1570    6.8830 ca        1 ITI     -0.114000
     19 C9          1.8360   -6.4080   -5.2370 ca        1 ITI     -0.208000
     20 C11         0.2040   -4.1540   -5.5550 ca        1 ITI     -0.032000
     21 C12         0.8880   -6.1150   -4.2800 ca        1 ITI     -0.032000
     22 C14         0.7490   -0.6580    3.4040 ca        1 ITI     -0.077000
     23 C16         0.1050   -1.5210    2.5040 ca        1 ITI     -0.098500
     24 C18         1.9890   -5.6030   -6.4110 ca        1 ITI      0.262600
     25 C19         0.0430   -4.9990   -4.4380 ca        1 ITI     -0.175400
     26 C23         0.7350   -3.5020    0.9190 cd        1 ITI     -0.306100
     27 C25         1.7730   -4.6850    2.5660 cd        1 ITI      0.391900
     28 C27         2.4580   -6.7120    1.4350 cd        1 ITI     -0.162100
     29 C29         3.8140   -7.0220   -7.1830 c3        1 ITI      0.164300
     30 C30         3.1170   -5.0040   -8.4870 c3        1 ITI      0.164300
     31 C31         4.6430   -7.4260   -8.4090 c3        1 ITI      0.115400
     32 C32         3.9940   -5.5390   -9.6270 c3        1 ITI      0.115400
     33 C33         0.5480    0.6600    7.2050 c3        1 ITI     -0.092100
     34 N34        -0.7410   -2.3670   -2.9040 nb        1 ITI     -0.671000
     35 N35        -0.1290   -4.0990   -1.2700 nb        1 ITI     -0.699000
     36 N36         1.3760   -3.5280    3.1640 nc        1 ITI     -0.635000
     37 N37         1.3830   -4.7120    1.1880 na        1 ITI     -0.089900
     38 N38         2.8660   -5.9470   -7.4110 nh        1 ITI     -0.626000
     39 N39        -1.0050   -4.7280   -3.4590 n4        1 ITI     -0.583100
     40 N40         0.7660    1.4200    4.7590 n4        1 ITI     -0.557200
     41 O41        -0.9700    2.2320    6.0790 o         1 ITI     -0.408100
     42 O42         5.0900   -6.2950   -9.1380 os        1 ITI     -0.384600
     43 S43         2.5940   -6.0920    3.0000 ss        1 ITI      0.123700
     44 H4         -2.7880    0.2500    2.0180 ha        1 ITI      0.176000
     45 H5         -1.6850   -1.8800    1.3290 ha        1 ITI      0.161000
     46 H8          1.2520   -3.7550   -7.3640 ha        1 ITI      0.164000
     47 H10        -1.6750    1.7900    3.6170 ha        1 ITI      0.178000
     48 H13         0.4520   -0.9650   -0.0360 ha        1 ITI      0.182000
     49 H15        -0.4580   -0.3800   -2.3550 h4        1 ITI      0.069100
     50 H26         1.5770   -6.0520   -0.5020 h4        1 ITI      0.201000
     51 H1          5.8950    0.8980    7.7820 ha        1 ITI      0.164000
     52 H2          4.4400    2.6150    8.8700 ha        1 ITI      0.160500
     53 H3          4.8660   -0.9270    6.4230 ha        1 ITI      0.160500
     54 H9          2.4790   -7.2870   -5.0740 ha        1 ITI      0.164000
     55 H11        -0.4230   -3.2540   -5.6760 ha        1 ITI      0.150500
     56 H12         0.7990   -6.7710   -3.3970 ha        1 ITI      0.150500
     57 H14         1.7440   -0.9320    3.7990 ha        1 ITI      0.172000
     58 H27         2.8660   -7.6880    1.1630 h4        1 ITI      0.212000
     59 H29         3.2450   -7.9390   -6.8520 h1        1 ITI      0.061200
     60 H29A        4.5180   -6.7180   -6.3540 h1        1 ITI      0.061200
     61 H30         2.1280   -4.7070   -8.9430 h1        1 ITI      0.061200
     62 H30A        3.6060   -4.0820   -8.0570 h1        1 ITI      0.061200
     63 H31         4.0500   -8.1050   -9.0780 h1        1 ITI      0.076450
     64 H31A        5.5840   -7.9410   -8.0740 h1        1 ITI      0.076450
     65 H32         3.3830   -6.1610  -10.3330 h1        1 ITI      0.076450
     66 H32A        4.4630   -4.6790  -10.1760 h1        1 ITI      0.076450
     67 H33         0.0510    1.0220    8.1520 hc        1 ITI      0.128200
     68 H33A        0.2210   -0.4060    7.0360 hc        1 ITI      0.128200
     69 HN39       -1.2230   -5.5930   -2.9460 hn        1 ITI      0.474300
     70 HN40        1.7230    1.0850    4.9480 hn        1 ITI      0.468800
     71 H6          1.9680    2.5120    8.5990 ha        1 ITI      0.142000
     72 H392       -1.8470   -4.4040   -3.9560 hn        1 ITI      0.474300
     73 H402        0.8130    2.3600    4.3450 hn        1 ITI      0.468800
     74 H7          2.3950   -1.0470    6.1570 ha        1 ITI      0.142000
@<TRIPOS>BOND
     1    1    2 ar  
     2    1    6 ar  
     3    1   44 1   
     4    2   23 ar  
     5    2   45 1   
     6    3    9 ar  
     7    3   17 ar  
     8    3   71 1   
     9    4    9 ar  
    10    4   18 ar  
    11    4   74 1   
    12    5   20 ar  
    13    5   24 ar  
    14    5   46 1   
    15    6   10 ar  
    16    6   47 1   
    17    7    8 ar  
    18    7   11 ar  
    19    7   48 1   
    20    8   34 ar  
    21    8   49 1   
    22    9   33 1   
    23   10   22 ar  
    24   10   40 1   
    25   11   26 1   
    26   11   35 ar  
    27   12   23 1   
    28   12   26 2   
    29   12   36 1   
    30   13   34 ar  
    31   13   35 ar  
    32   13   39 1   
    33   14   28 2   
    34   14   37 1   
    35   14   50 1   
    36   15   33 1   
    37   15   40 1   
    38   15   41 2   
    39   16   17 ar  
    40   16   18 ar  
    41   16   51 1   
    42   17   52 1   
    43   18   53 1   
    44   19   21 ar  
    45   19   24 ar  
    46   19   54 1   
    47   20   25 ar  
    48   20   55 1   
    49   21   25 ar  
    50   21   56 1   
    51   22   23 ar  
    52   22   57 1   
    53   24   38 1   
    54   25   39 1   
    55   26   37 1   
    56   27   36 2   
    57   27   37 1   
    58   27   43 1   
    59   28   43 1   
    60   28   58 1   
    61   29   31 1   
    62   29   38 1   
    63   29   59 1   
    64   29   60 1   
    65   30   32 1   
    66   30   38 1   
    67   30   61 1   
    68   30   62 1   
    69   31   42 1   
    70   31   63 1   
    71   31   64 1   
    72   32   42 1   
    73   32   65 1   
    74   32   66 1   
    75   33   67 1   
    76   33   68 1   
    77   39   69 1   
    78   39   72 1   
    79   40   70 1   
    80   40   73 1   
@<TRIPOS>SUBSTRUCTURE
     1 ITI         1 TEMP              0 ****  ****    0 ROOT
