@<TRIPOS>MOLECULE
ITI
   72    78     1     0     0
SMALL
bcc


@<TRIPOS>ATOM
      1 C4          0.3380    0.0930    0.4980 ca        1 ITI     -0.114000
      2 C5          1.6480    0.4870    0.2440 ca        1 ITI     -0.131000
      3 C6         -0.5640   -3.7650    6.1110 ca        1 ITI     -0.126000
      4 C7         -1.9690   -1.7980    6.1230 ca        1 ITI     -0.126000
      5 C8          0.2700   -5.5900   -3.1960 ca        1 ITI     -0.157000
      6 C10        -0.0500   -0.3180    1.7680 ca        1 ITI     -0.178000
      7 C13         5.0320   -0.2260   -2.4180 ca        1 ITI     -0.423600
      8 C15         4.7420   -1.1840   -3.4030 ca        1 ITI      0.461200
      9 C17        -0.6970   -2.3750    6.2160 ca        1 ITI     -0.097300
     10 C20         0.8890   -0.3350    2.8280 ca        1 ITI      0.060600
     11 C21         4.5550   -0.4920   -1.1130 ca        1 ITI      0.566800
     12 C22         3.9580    0.8960    1.0320 cc        1 ITI      0.439800
     13 C24         3.6390   -2.5070   -1.8550 ca        1 ITI      0.868900
     14 C26         7.2590    1.2930   -0.4410 cc        1 ITI     -0.080300
     15 C28         1.2350   -1.1310    5.1710 c         1 ITI      0.666100
     16 C1         -2.9530   -3.9830    5.8170 ca        1 ITI     -0.125000
     17 C2         -1.6890   -4.5640    5.9110 ca        1 ITI     -0.127000
     18 C3         -3.0920   -2.5990    5.9250 ca        1 ITI     -0.127000
     19 C9          2.3180   -5.9170   -4.4380 ca        1 ITI     -0.157000
     20 C11         0.9410   -4.7590   -2.3120 ca        1 ITI     -0.109000
     21 C12         2.9970   -5.0990   -3.5420 ca        1 ITI     -0.109000
     22 C14         2.2160    0.0700    2.5710 ca        1 ITI     -0.113000
     23 C16         2.5870    0.4700    1.2830 ca        1 ITI     -0.085500
     24 C18         0.9430   -6.1890   -4.2870 ca        1 ITI      0.125600
     25 C19         2.3190   -4.4970   -2.4660 ca        1 ITI      0.096600
     26 C23         4.7960    0.4700   -0.0440 cd        1 ITI     -0.271100
     27 C25         5.8380    1.9870    1.2930 cd        1 ITI      0.402900
     28 C27         8.0380    2.1800    0.2590 cd        1 ITI     -0.170100
     29 C29         1.0460   -7.8500   -6.0720 c3        1 ITI      0.147800
     30 C30        -0.9700   -6.5560   -5.7370 c3        1 ITI      0.147800
     31 C31         0.2130   -8.8980   -6.8220 c3        1 ITI      0.123900
     32 C32        -1.7530   -7.6320   -6.5010 c3        1 ITI      0.123900
     33 C33         0.5000   -1.5250    6.4480 c3        1 ITI     -0.115100
     34 N34         4.0590   -2.3130   -3.1670 nb        1 ITI     -0.731000
     35 N35         3.8590   -1.6130   -0.8130 nb        1 ITI     -0.725000
     36 N36         4.6120    1.8310    1.8430 nc        1 ITI     -0.622000
     37 N37         5.9930    1.1710    0.1200 na        1 ITI     -0.129900
     38 N38         0.2400   -7.0940   -5.1260 nh        1 ITI     -0.629000
     39 N39         3.0050   -3.7180   -1.5020 nh        1 ITI     -0.696300
     40 N40         0.4480   -0.7220    4.1060 n         1 ITI     -0.468100
     41 O41         2.4780   -1.1450    5.1420 o         1 ITI     -0.585100
     42 O42        -0.9310   -8.3180   -7.4380 os        1 ITI     -0.413600
     43 S43         7.2550    2.8650    1.6050 ss        1 ITI     -0.012300
     44 H4         -0.4040    0.1070   -0.3160 ha        1 ITI      0.130000
     45 H5          1.9460    0.8100   -0.7630 ha        1 ITI      0.135000
     46 H7         -2.0840   -0.7070    6.2180 ha        1 ITI      0.137500
     47 H8         -0.8000   -5.7860   -3.0270 ha        1 ITI      0.136500
     48 H10        -1.0920   -0.6240    1.9390 ha        1 ITI      0.127000
     49 H13         5.5770    0.6920   -2.6570 ha        1 ITI      0.153000
     50 H15         5.0690   -1.0400   -4.4500 h4        1 ITI      0.027100
     51 H26         7.5200    0.7090   -1.3320 h4        1 ITI      0.192000
     52 H1         -3.8400   -4.6150    5.6620 ha        1 ITI      0.135000
     53 H2         -1.5770   -5.6550    5.8280 ha        1 ITI      0.136000
     54 H3         -4.0890   -2.1390    5.8570 ha        1 ITI      0.136000
     55 H9          2.8910   -6.3530   -5.2710 ha        1 ITI      0.136500
     56 H11         0.3800   -4.3120   -1.4760 ha        1 ITI      0.144000
     57 H12         4.0740   -4.9230   -3.6920 ha        1 ITI      0.144000
     58 H14         2.9700    0.0680    3.3760 ha        1 ITI      0.183000
     59 H27         9.0650    2.4380    0.0030 h4        1 ITI      0.188000
     60 H29         1.5340   -7.1760   -6.8350 h1        1 ITI      0.047700
     61 H29A        1.8550   -8.3820   -5.4980 h1        1 ITI      0.047700
     62 H30        -0.7250   -5.7180   -6.4520 h1        1 ITI      0.047700
     63 H30A       -1.6310   -6.1430   -4.9280 h1        1 ITI      0.047700
     64 H31        -0.1090   -9.7200   -6.1300 h1        1 ITI      0.055950
     65 H31A        0.8060   -9.3200   -7.6750 h1        1 ITI      0.055950
     66 H32        -2.5510   -7.1530   -7.1260 h1        1 ITI      0.055950
     67 H32A       -2.2090   -8.3710   -5.7900 h1        1 ITI      0.055950
     68 H33         0.2120   -0.5770    6.9790 hc        1 ITI      0.085200
     69 H33A        1.2400   -2.0680    7.0970 hc        1 ITI      0.085200
     70 HN39        2.5620   -3.7020   -0.6030 hn        1 ITI      0.440800
     71 HN40       -0.5370   -0.8550    4.1970 hn        1 ITI      0.320500
     72 H6          0.4330   -4.2260    6.1870 ha        1 ITI      0.137500
@<TRIPOS>BOND
     1    1    2 ar  
     2    1    6 ar  
     3    1   44 1   
     4    2   23 ar  
     5    2   45 1   
     6    3    9 ar  
     7    3   17 ar  
     8    3   72 1   
     9    4    9 ar  
    10    4   18 ar  
    11    4   46 1   
    12    5   20 ar  
    13    5   24 ar  
    14    5   47 1   
    15    6   10 ar  
    16    6   48 1   
    17    7    8 ar  
    18    7   11 ar  
    19    7   49 1   
    20    8   34 ar  
    21    8   50 1   
    22    9   33 1   
    23   10   22 ar  
    24   10   40 1   
    25   11   26 1   
    26   11   35 ar  
    27   12   23 1   
    28   12   26 2   
    29   12   36 1   
    30   13   34 ar  
    31   13   35 ar  
    32   13   39 1   
    33   14   28 2   
    34   14   37 1   
    35   14   51 1   
    36   15   33 1   
    37   15   40 1   
    38   15   41 2   
    39   16   17 ar  
    40   16   18 ar  
    41   16   52 1   
    42   17   53 1   
    43   18   54 1   
    44   19   21 ar  
    45   19   24 ar  
    46   19   55 1   
    47   20   25 ar  
    48   20   56 1   
    49   21   25 ar  
    50   21   57 1   
    51   22   23 ar  
    52   22   58 1   
    53   24   38 1   
    54   25   39 1   
    55   26   37 1   
    56   27   36 2   
    57   27   37 1   
    58   27   43 1   
    59   28   43 1   
    60   28   59 1   
    61   29   31 1   
    62   29   38 1   
    63   29   60 1   
    64   29   61 1   
    65   30   32 1   
    66   30   38 1   
    67   30   62 1   
    68   30   63 1   
    69   31   42 1   
    70   31   64 1   
    71   31   65 1   
    72   32   42 1   
    73   32   66 1   
    74   32   67 1   
    75   33   68 1   
    76   33   69 1   
    77   39   70 1   
    78   40   71 1   
@<TRIPOS>SUBSTRUCTURE
     1 ITI         1 TEMP              0 ****  ****    0 ROOT
