@<TRIPOS>MOLECULE
ITI
   72    62     1     0     0
SMALL
bcc


@<TRIPOS>ATOM
      1 C4         -0.7210    1.7850    5.6010 c1        1 ITI     -0.132625
      2 C5          0.2980    1.2300    4.8270 c1        1 ITI     -0.126000
      3 C6         -5.2780    4.5880    0.0780 c1        1 ITI     -0.132625
      4 C7         -6.4300    4.3160    2.1780 c1        1 ITI     -0.137000
      5 C8          2.9780   -4.1720   -3.6550 c1        1 ITI     -0.132625
      6 C10        -1.5380    2.7570    5.0680 c1        1 ITI     -0.132625
      7 C13         2.7070   -1.7320    2.4310 c1        1 ITI     -0.258000
      8 C15         2.6040   -2.8270    1.6340 c1        1 ITI     -0.002000
      9 C17        -5.3230    4.7630    1.4540 c1        1 ITI     -0.091000
     10 C20        -1.3470    3.1840    3.7670 c1        1 ITI      0.071000
     11 C21         2.8350   -0.4880    1.8710 c1        1 ITI      0.134000
     12 C22         1.8710    1.3320    3.2580 c2        1 ITI     -0.021000
     13 C24         2.7570   -1.4460   -0.2710 c1        1 ITI      0.151000
     14 C26         5.6650    0.8120    3.3540 c1        1 ITI     -0.031000
     15 C28        -2.9800    4.4540    2.3150 c1        1 ITI      0.310000
     16 C1         -7.4580    3.5120    0.1360 c1        1 ITI     -0.132625
     17 C2         -6.3550    3.9570   -0.5890 c1        1 ITI     -0.132625
     18 C3         -7.5030    3.6880    1.5120 c1        1 ITI     -0.132625
     19 C9          0.8960   -2.9780   -3.8810 c1        1 ITI     -0.168000
     20 C11         3.4830   -3.1340   -2.9010 c1        1 ITI     -0.132625
     21 C12         1.4030   -1.9460   -3.1290 c1        1 ITI     -0.080000
     22 C14        -0.3250    2.6280    2.9910 c1        1 ITI     -0.134000
     23 C16         0.4890    1.6590    3.5210 c1        1 ITI      0.007000
     24 C18         1.6860   -4.1030   -4.1490 c1        1 ITI      0.028000
     25 C19         2.6950   -2.0170   -2.6370 c1        1 ITI      0.020000
     26 C23         2.9380    0.5940    2.7300 c1        1 ITI     -0.061000
     27 C25         3.7440    2.1570    4.0980 c2        1 ITI     -0.270000
     28 C27         6.2210    1.7470    4.3020 c1        1 ITI     -0.452000
     29 C29        -0.3750   -5.2000   -4.7830 c3        1 ITI     -0.093500
     30 C30         1.5980   -5.5210   -6.1000 c3        1 ITI     -0.093500
     31 C31        -0.8520   -4.1360   -5.7600 c3        1 ITI     -0.057500
     32 C32         1.1190   -4.4570   -7.0740 c3        1 ITI     -0.057500
     33 C33        -4.1650    5.4500    2.1710 c2        1 ITI     -0.150000
     34 N34         2.6290   -2.6870    0.2850 n1        1 ITI     -0.203000
     35 N35         2.8600   -0.3510    0.5260 n1        1 ITI     -0.248000
     36 N36         2.3910    2.2880    4.0970 n2        1 ITI     -0.101000
     37 N37         4.0770    1.0900    3.2360 n3        1 ITI     -0.074000
     38 N38         1.0590   -5.3370   -4.7810 n3        1 ITI     -0.221000
     39 N39         3.1260   -1.1900   -1.6530 n3        1 ITI     -0.219000
     40 N40        -2.4530    4.1300    3.6370 n3        1 ITI     -0.322000
     41 O41        -2.5110    3.9500    1.3540 o         1 ITI     -0.348000
     42 O42        -0.3080   -4.3200   -7.0780 os        1 ITI     -0.268000
     43 S43         5.0740    2.6320    4.8200 ss        1 ITI      0.564000
     44 H4         -0.8560    1.4860    6.5170 ha        1 ITI      0.135250
     45 H5          0.8520    0.5700    5.1870 ha        1 ITI      0.147000
     46 H6         -4.4440    4.9240   -0.4700 ha        1 ITI      0.135250
     47 H7         -6.4620    4.4380    3.1430 ha        1 ITI      0.133000
     48 H8          3.5210   -4.9440   -3.8380 ha        1 ITI      0.135250
     49 H10        -2.2520    3.1460    5.6090 ha        1 ITI      0.135250
     50 H13         2.6880   -1.8320    3.4120 ha        1 ITI      0.170000
     51 H15         2.5140   -3.6970    2.0240 ha        1 ITI      0.165000
     52 H26         6.1820    0.1050    2.8450 DU        1 ITI      0.196500
     53 H1         -8.2230    3.0630   -0.3370 ha        1 ITI      0.135250
     54 H2         -6.3250    3.8360   -1.5460 ha        1 ITI      0.135250
     55 H3         -8.2830    3.3750    2.0220 ha        1 ITI      0.135250
     56 H9          0.0170   -2.9290   -4.2160 ha        1 ITI      0.134000
     57 H11         4.4050   -3.1820   -2.5480 ha        1 ITI      0.135250
     58 H12         0.8530   -1.1590   -2.9420 ha        1 ITI      0.157000
     59 H14        -0.1900    2.9290    2.0710 ha        1 ITI      0.179000
     60 H27         7.1550    1.7970    4.5770 DU        1 ITI      0.196500
     61 H29        -0.7830   -6.0770   -5.0320 h1        1 ITI      0.105000
     62 H29A       -0.6590   -4.9690   -3.9200 h1        1 ITI      0.105000
     63 H30         1.3300   -6.3890   -6.4280 h1        1 ITI      0.105000
     64 H30A        2.6110   -5.4880   -6.0500 h1        1 ITI      0.105000
     65 H31        -0.5820   -3.2510   -5.4250 h1        1 ITI      0.093500
     66 H31A       -1.8390   -4.1700   -5.8140 h1        1 ITI      0.093500
     67 H32         1.4400   -4.7120   -8.0400 h1        1 ITI      0.093500
     68 H32A        1.5290   -3.5730   -6.8160 h1        1 ITI      0.093500
     69 H33        -3.8800    6.2160    1.6620 ha        1 ITI      0.125500
     70 H33A       -4.4490    5.7300    3.0320 ha        1 ITI      0.125500
     71 HN39        3.6570   -0.4290   -1.8700 hn        1 ITI      0.224000
     72 HN40       -2.8100    4.5220    4.3810 hn        1 ITI      0.236000
@<TRIPOS>BOND
     1    1    6 1   
     2    1   44 1   
     3    2   23 1   
     4    2   45 1   
     5    3   17 1   
     6    3   46 1   
     7    4    9 1   
     8    4   47 1   
     9    5   20 1   
    10    5   48 1   
    11    6   49 1   
    12    7   11 1   
    13    7   50 1   
    14    8   34 1   
    15    8   51 1   
    16    9   33 1   
    17   10   22 1   
    18   10   40 1   
    19   12   23 1   
    20   12   26 1   
    21   12   36 1   
    22   13   35 1   
    23   13   39 1   
    24   14   28 1   
    25   14   37 1   
    26   15   40 1   
    27   15   41 1   
    28   16   18 1   
    29   16   53 1   
    30   17   54 1   
    31   18   55 1   
    32   19   24 1   
    33   19   56 1   
    34   20   57 1   
    35   21   25 1   
    36   21   58 1   
    37   22   59 1   
    38   24   38 1   
    39   25   39 1   
    40   26   37 1   
    41   27   36 1   
    42   27   37 1   
    43   27   43 1   
    44   28   43 1   
    45   29   31 1   
    46   29   38 1   
    47   29   61 1   
    48   29   62 1   
    49   30   32 1   
    50   30   38 1   
    51   30   63 1   
    52   30   64 1   
    53   31   42 1   
    54   31   65 1   
    55   31   66 1   
    56   32   42 1   
    57   32   67 1   
    58   32   68 1   
    59   33   69 1   
    60   33   70 1   
    61   39   71 1   
    62   40   72 1   
@<TRIPOS>SUBSTRUCTURE
     1 ITI         1 TEMP              0 ****  ****    0 ROOT
