@<TRIPOS>MOLECULE
ITI
   72    78     1     0     0
SMALL
bcc


@<TRIPOS>ATOM
      1 C4          0.3070    0.0860    0.4870 ca        1 ITI     -0.114000
      2 C5          1.6130    0.4930    0.2330 ca        1 ITI     -0.131000
      3 C6         -0.5700   -3.7700    6.1010 ca        1 ITI     -0.126000
      4 C7         -1.9830   -1.8080    6.1180 ca        1 ITI     -0.126000
      5 C8          0.3030   -5.6140   -3.1840 ca        1 ITI     -0.157000
      6 C10        -0.0760   -0.3270    1.7580 ca        1 ITI     -0.178000
      7 C13         5.0070   -0.1960   -2.4240 ca        1 ITI     -0.423600
      8 C15         4.7280   -1.1600   -3.4060 ca        1 ITI      0.461200
      9 C17        -0.7080   -2.3810    6.2080 ca        1 ITI     -0.097300
     10 C20         0.8620   -0.3330    2.8180 ca        1 ITI      0.060600
     11 C21         4.5320   -0.4630   -1.1190 ca        1 ITI      0.566800
     12 C22         3.9190    0.9270    1.0200 cc        1 ITI      0.439800
     13 C24         3.6380   -2.4900   -1.8550 ca        1 ITI      0.868900
     14 C26         7.2160    1.3550   -0.4520 cc        1 ITI     -0.080300
     15 C28         1.2160   -1.1270    5.1600 c         1 ITI      0.666100
     16 C1         -2.9590   -3.9980    5.8120 ca        1 ITI     -0.125000
     17 C2         -1.6920   -4.5730    5.9020 ca        1 ITI     -0.127000
     18 C3         -3.1030   -2.6140    5.9220 ca        1 ITI     -0.127000
     19 C9          2.3550   -5.9230   -4.4250 ca        1 ITI     -0.157000
     20 C11         0.9640   -4.7720   -2.3030 ca        1 ITI     -0.109000
     21 C12         3.0240   -5.0940   -3.5320 ca        1 ITI     -0.109000
     22 C14         2.1850    0.0840    2.5600 ca        1 ITI     -0.113000
     23 C16         2.5520    0.4870    1.2720 ca        1 ITI     -0.085500
     24 C18         0.9820   -6.2090   -4.2730 ca        1 ITI      0.125600
     25 C19         2.3400   -4.4960   -2.4580 ca        1 ITI      0.096600
     26 C23         4.7620    0.5070   -0.0530 cd        1 ITI     -0.271100
     27 C25         5.7860    2.0390    1.2800 cd        1 ITI      0.401900
     28 C27         7.9850    2.2530    0.2460 cd        1 ITI     -0.170100
     29 C29         1.1040   -7.8750   -6.0520 c3        1 ITI      0.147800
     30 C30        -0.9270   -6.6040   -5.7210 c3        1 ITI      0.147800
     31 C31         0.2820   -8.9350   -6.7980 c3        1 ITI      0.123900
     32 C32        -1.6980   -7.6910   -6.4810 c3        1 ITI      0.123900
     33 C33         0.4850   -1.5270    6.4380 c3        1 ITI     -0.115100
     34 N34         4.0570   -2.2960   -3.1660 nb        1 ITI     -0.731000
     35 N35         3.8480   -1.5900   -0.8150 nb        1 ITI     -0.725000
     36 N36         4.5620    1.8720    1.8290 nc        1 ITI     -0.622000
     37 N37         5.9510    1.2210    0.1090 na        1 ITI     -0.129900
     38 N38         0.2890   -7.1250   -5.1080 nh        1 ITI     -0.629000
     39 N39         3.0170   -3.7050   -1.4970 nu        1 ITI     -0.696300
     40 N40         0.4250   -0.7230    4.0960 ns        1 ITI     -0.468100
     41 O41         2.4590   -1.1320    5.1290 o         1 ITI     -0.585100
     42 O42        -0.8690   -8.3700   -7.4160 os        1 ITI     -0.413600
     43 S43         7.1940    2.9340    1.5890 ss        1 ITI     -0.012300
     44 H4         -0.4340    0.0910   -0.3270 ha        1 ITI      0.130000
     45 H5          1.9090    0.8180   -0.7750 ha        1 ITI      0.135000
     46 H7         -2.1020   -0.7190    6.2140 ha        1 ITI      0.137500
     47 H8         -0.7650   -5.8210   -3.0140 ha        1 ITI      0.136500
     48 H10        -1.1160   -0.6440    1.9280 ha        1 ITI      0.127000
     49 H13         5.5420    0.7270   -2.6670 ha        1 ITI      0.153000
     50 H15         5.0540   -1.0170   -4.4540 h4        1 ITI      0.027100
     51 H26         7.4840    0.7710   -1.3410 h4        1 ITI      0.192000
     52 H1         -3.8440   -4.6330    5.6580 ha        1 ITI      0.135000
     53 H2         -1.5760   -5.6640    5.8180 ha        1 ITI      0.136000
     54 H3         -4.1010   -2.1580    5.8560 ha        1 ITI      0.136000
     55 H9          2.9320   -6.3550   -5.2560 ha        1 ITI      0.136500
     56 H11         0.3980   -4.3280   -1.4680 ha        1 ITI      0.144000
     57 H12         4.0990   -4.9070   -3.6830 ha        1 ITI      0.144000
     58 H14         2.9390    0.0910    3.3660 ha        1 ITI      0.183000
     59 H27         9.0090    2.5220   -0.0110 h4        1 ITI      0.188000
     60 H29         1.9190   -8.3960   -5.4760 h1        1 ITI      0.047700
     61 H29A        1.5840   -7.1980   -6.8170 h1        1 ITI      0.047700
     62 H30        -1.5930   -6.1950   -4.9120 h1        1 ITI      0.047700
     63 H30A       -0.6920   -5.7650   -6.4390 h1        1 ITI      0.047700
     64 H31        -0.0300   -9.7580   -6.1030 h1        1 ITI      0.055950
     65 H31A        0.8800   -9.3530   -7.6500 h1        1 ITI      0.055950
     66 H32        -2.1460   -8.4320   -5.7680 h1        1 ITI      0.055950
     67 H32A       -2.5020   -7.2230   -7.1070 h1        1 ITI      0.055950
     68 H33         1.2300   -2.0680    7.0840 hc        1 ITI      0.085200
     69 H33A        0.1960   -0.5810    6.9710 hc        1 ITI      0.085200
     70 HN39        2.5730   -3.6910   -0.5980 hn        1 ITI      0.440800
     71 HN40       -0.5590   -0.8630    4.1890 hn        1 ITI      0.320500
     72 H6          0.4290   -4.2280    6.1740 ha        1 ITI      0.137500
@<TRIPOS>BOND
     1    1    2 ar  
     2    1    6 ar  
     3    1   44 1   
     4    2   23 ar  
     5    2   45 1   
     6    3    9 ar  
     7    3   17 ar  
     8    3   72 1   
     9    4    9 ar  
    10    4   18 ar  
    11    4   46 1   
    12    5   20 ar  
    13    5   24 ar  
    14    5   47 1   
    15    6   10 ar  
    16    6   48 1   
    17    7    8 ar  
    18    7   11 ar  
    19    7   49 1   
    20    8   34 ar  
    21    8   50 1   
    22    9   33 1   
    23   10   22 ar  
    24   10   40 1   
    25   11   26 1   
    26   11   35 ar  
    27   12   23 1   
    28   12   26 2   
    29   12   36 1   
    30   13   34 ar  
    31   13   35 ar  
    32   13   39 1   
    33   14   28 2   
    34   14   37 1   
    35   14   51 1   
    36   15   33 1   
    37   15   40 1   
    38   15   41 2   
    39   16   17 ar  
    40   16   18 ar  
    41   16   52 1   
    42   17   53 1   
    43   18   54 1   
    44   19   21 ar  
    45   19   24 ar  
    46   19   55 1   
    47   20   25 ar  
    48   20   56 1   
    49   21   25 ar  
    50   21   57 1   
    51   22   23 ar  
    52   22   58 1   
    53   24   38 1   
    54   25   39 1   
    55   26   37 1   
    56   27   36 2   
    57   27   37 1   
    58   27   43 1   
    59   28   43 1   
    60   28   59 1   
    61   29   31 1   
    62   29   38 1   
    63   29   60 1   
    64   29   61 1   
    65   30   32 1   
    66   30   38 1   
    67   30   62 1   
    68   30   63 1   
    69   31   42 1   
    70   31   64 1   
    71   31   65 1   
    72   32   42 1   
    73   32   66 1   
    74   32   67 1   
    75   33   68 1   
    76   33   69 1   
    77   39   70 1   
    78   40   71 1   
@<TRIPOS>SUBSTRUCTURE
     1 ITI         1 TEMP              0 ****  ****    0 ROOT
