@<TRIPOS>MOLECULE
ITP
   30    30     1     0     0
SMALL
bcc


@<TRIPOS>ATOM
      1 C1         -0.0290    0.1290    0.0350 c3        1 ITP      0.189600
      2 O1         -0.4050   -0.0190   -1.2910 os        1 ITP     -0.584700
      3 C2          1.5300    0.1500    0.1030 c3        1 ITP      0.114100
      4 O2          2.0450   -0.9280   -0.6750 oh        1 ITP     -0.626800
      5 C3          2.1320    0.0730    1.5340 c3        1 ITP      0.189600
      6 O3          3.5080    0.0200    1.5000 os        1 ITP     -0.584700
      7 C4          1.5650   -1.1920    2.2440 c3        1 ITP      0.114100
      8 O4          2.0290   -1.3470    3.5710 oh        1 ITP     -0.704800
      9 C5          0.0330   -1.1020    2.2770 c3        1 ITP      0.131100
     10 O5         -0.4820   -2.2300    2.9940 oh        1 ITP     -0.636800
     11 C6         -0.5300   -1.0920    0.8480 c3        1 ITP      0.114100
     12 O6         -1.9420   -1.1530    0.9710 oh        1 ITP     -0.704800
     13 P1         -1.7210    0.8790   -1.9350 p5        1 ITP      1.330900
     14 OP1        -1.5480    0.7000   -3.4210 o         1 ITP     -0.937667
     15 OP2        -2.9020    0.1270   -1.3500 o         1 ITP     -0.937667
     16 OP3        -1.5710    2.2800   -1.4130 o         1 ITP     -0.937667
     17 P3          4.4300    1.0550    2.5190 p5        1 ITP      1.330900
     18 O10         5.7990    1.0670    1.8880 o         1 ITP     -0.937667
     19 O11         4.3600    0.2970    3.8310 o         1 ITP     -0.937667
     20 O12         3.7050    2.3730    2.5360 o         1 ITP     -0.937667
     21 H1         -0.4560    1.0810    0.4550 h1        1 ITP      0.046700
     22 H2          1.8830    1.1130   -0.3640 h1        1 ITP      0.036700
     23 HO2         1.4810   -0.9700   -1.4610 ho        1 ITP      0.398000
     24 H3          1.7980    0.9940    2.0980 h1        1 ITP      0.046700
     25 H4          1.8740   -2.1050    1.6620 h1        1 ITP      0.022700
     26 HO4         2.8520   -0.8070    3.6550 ho        1 ITP      0.484500
     27 H5         -0.2870   -0.1750    2.8270 h1        1 ITP      0.027700
     28 HO5        -1.4100   -2.2970    2.7380 ho        1 ITP      0.380000
     29 H6         -0.1900   -2.0260    0.3140 h1        1 ITP      0.022700
     30 HO6        -2.3200   -0.7110    0.1690 ho        1 ITP      0.484500
@<TRIPOS>BOND
     1    1    2 1   
     2    1    3 1   
     3    1   11 1   
     4    1   21 1   
     5    2   13 1   
     6    3    4 1   
     7    3    5 1   
     8    3   22 1   
     9    4   23 1   
    10    5    6 1   
    11    5    7 1   
    12    5   24 1   
    13    6   17 1   
    14    7    8 1   
    15    7    9 1   
    16    7   25 1   
    17    8   26 1   
    18    9   10 1   
    19    9   11 1   
    20    9   27 1   
    21   10   28 1   
    22   11   12 1   
    23   11   29 1   
    24   12   30 1   
    25   13   14 1   
    26   13   15 1   
    27   13   16 1   
    28   17   18 1   
    29   17   19 1   
    30   17   20 1   
@<TRIPOS>SUBSTRUCTURE
     1 ITP         1 TEMP              0 ****  ****    0 ROOT
