@<TRIPOS>MOLECULE
ITP
   30    30     1     0     0
SMALL
bcc


@<TRIPOS>ATOM
      1 C1         -0.0280    0.1310    0.0350 c3        1 ITP      0.189600
      2 O1         -0.4080   -0.0210   -1.2900 os        1 ITP     -0.584700
      3 C2          1.5320    0.1400    0.0990 c3        1 ITP      0.114100
      4 O2          2.0350   -0.9480   -0.6740 oh        1 ITP     -0.626800
      5 C3          2.1360    0.0650    1.5290 c3        1 ITP      0.189600
      6 O3          3.5120    0.0010    1.4930 os        1 ITP     -0.584700
      7 C4          1.5600   -1.1910    2.2480 c3        1 ITP      0.114100
      8 O4          2.0250   -1.3420    3.5750 oh        1 ITP     -0.704800
      9 C5          0.0290   -1.0880    2.2830 c3        1 ITP      0.131100
     10 O5         -0.4950   -2.2070    3.0080 oh        1 ITP     -0.636800
     11 C6         -0.5370   -1.0810    0.8550 c3        1 ITP      0.114100
     12 O6         -1.9490   -1.1300    0.9810 oh        1 ITP     -0.704800
     13 P1         -1.7170    0.8840   -1.9360 p5        1 ITP      1.330900
     14 OP1        -1.5500    0.6950   -3.4210 o         1 ITP     -0.937667
     15 OP2        -2.9030    0.1450   -1.3450 o         1 ITP     -0.937667
     16 OP3        -1.5550    2.2860   -1.4230 o         1 ITP     -0.937667
     17 P3          4.4440    1.0340    2.5040 p5        1 ITP      1.330900
     18 O10         5.8120    1.0300    1.8700 o         1 ITP     -0.937667
     19 O11         4.3710    0.2840    3.8200 o         1 ITP     -0.937667
     20 O12         3.7310    2.3580    2.5140 o         1 ITP     -0.937667
     21 H1         -0.4450    1.0890    0.4500 h1        1 ITP      0.046700
     22 H2          1.8910    1.0960   -0.3740 h1        1 ITP      0.036700
     23 HO2         1.4690   -0.9890   -1.4580 ho        1 ITP      0.398000
     24 H3          1.8110    0.9930    2.0880 h1        1 ITP      0.046700
     25 H4          1.8600   -2.1090    1.6710 h1        1 ITP      0.022700
     26 HO4         2.8530   -0.8080    3.6540 ho        1 ITP      0.484500
     27 H5         -0.2820   -0.1540    2.8280 h1        1 ITP      0.027700
     28 HO5        -1.4230   -2.2680    2.7550 ho        1 ITP      0.380000
     29 H6         -0.2060   -2.0210    0.3260 h1        1 ITP      0.022700
     30 HO6        -2.3250   -0.6890    0.1780 ho        1 ITP      0.484500
@<TRIPOS>BOND
     1    1    2 1   
     2    1    3 1   
     3    1   11 1   
     4    1   21 1   
     5    2   13 1   
     6    3    4 1   
     7    3    5 1   
     8    3   22 1   
     9    4   23 1   
    10    5    6 1   
    11    5    7 1   
    12    5   24 1   
    13    6   17 1   
    14    7    8 1   
    15    7    9 1   
    16    7   25 1   
    17    8   26 1   
    18    9   10 1   
    19    9   11 1   
    20    9   27 1   
    21   10   28 1   
    22   11   12 1   
    23   11   29 1   
    24   12   30 1   
    25   13   14 1   
    26   13   15 1   
    27   13   16 1   
    28   17   18 1   
    29   17   19 1   
    30   17   20 1   
@<TRIPOS>SUBSTRUCTURE
     1 ITP         1 TEMP              0 ****  ****    0 ROOT
