@<TRIPOS>MOLECULE
ITP
   30    30     1     0     0
SMALL
bcc


@<TRIPOS>ATOM
      1 C1          0.1830   -0.0340    1.2760 c3        1 ITP      0.219100
      2 O1         -0.3600   -0.7180    2.3490 os        1 ITP     -0.575700
      3 C2         -0.4330   -0.5990   -0.0450 c3        1 ITP      0.098100
      4 O2         -0.3080   -2.0190   -0.0210 oh        1 ITP     -0.620800
      5 C3          0.1690   -0.0660   -1.3860 c3        1 ITP      0.219100
      6 O3         -0.3400   -0.7510   -2.4580 os        1 ITP     -0.575700
      7 C4          1.7140   -0.2570   -1.3130 c3        1 ITP      0.108100
      8 O4          2.3280    0.3690   -2.4320 oh        1 ITP     -0.646800
      9 C5          2.2900    0.3780   -0.0400 c3        1 ITP      0.090100
     10 O5          3.7170    0.2270   -0.0860 oh        1 ITP     -0.670800
     11 C6          1.7120   -0.2850    1.2140 c3        1 ITP      0.108100
     12 O6          2.4460    0.1990    2.3230 oh        1 ITP     -0.646800
     13 P1         -0.7970    0.1170    3.7880 p5        1 ITP      1.335400
     14 OP1        -0.8630   -1.0080    4.7900 o         1 ITP     -0.940667
     15 OP2         0.3860    1.0480    3.9760 o         1 ITP     -0.940667
     16 OP3        -2.1010    0.8100    3.5150 o         1 ITP     -0.940667
     17 P3         -1.0750    0.0860   -3.7860 p5        1 ITP      1.335400
     18 O10        -0.2310   -0.3150   -4.9740 o         1 ITP     -0.940667
     19 O11        -1.0080    1.5460   -3.4110 o         1 ITP     -0.940667
     20 O12        -2.4700   -0.4890   -3.8370 o         1 ITP     -0.940667
     21 H1         -0.0160    1.0680    1.3730 h1        1 ITP      0.050700
     22 H2         -1.5290   -0.3420   -0.0500 h1        1 ITP      0.042700
     23 HO2        -0.5690   -2.2800    0.8740 ho        1 ITP      0.393000
     24 H3         -0.0620    1.0360   -1.4740 h1        1 ITP      0.050700
     25 H4          1.9380   -1.3580   -1.3250 h1        1 ITP      0.028700
     26 HO4         3.2570    0.1150   -2.3850 ho        1 ITP      0.420500
     27 H5          2.0720    1.4820   -0.0300 h1        1 ITP      0.038700
     28 HO5         4.0160    0.2840    0.8290 ho        1 ITP      0.396000
     29 H6          1.8860   -1.3980    1.1630 h1        1 ITP      0.028700
     30 HO6         1.7880    0.5020    3.0010 ho        1 ITP      0.420500
@<TRIPOS>BOND
     1    1    2 1   
     2    1    3 1   
     3    1   11 1   
     4    1   21 1   
     5    2   13 1   
     6    3    4 1   
     7    3    5 1   
     8    3   22 1   
     9    4   23 1   
    10    5    6 1   
    11    5    7 1   
    12    5   24 1   
    13    6   17 1   
    14    7    8 1   
    15    7    9 1   
    16    7   25 1   
    17    8   26 1   
    18    9   10 1   
    19    9   11 1   
    20    9   27 1   
    21   10   28 1   
    22   11   12 1   
    23   11   29 1   
    24   12   30 1   
    25   13   14 1   
    26   13   15 1   
    27   13   16 1   
    28   17   18 1   
    29   17   19 1   
    30   17   20 1   
@<TRIPOS>SUBSTRUCTURE
     1 ITP         1 TEMP              0 ****  ****    0 ROOT
