@<TRIPOS>MOLECULE
ITQ
   63    70     1     0     0
SMALL
bcc


@<TRIPOS>ATOM
      1 C1         -3.5110   -2.7100    0.4520 c3        1 ITQ     -0.018200
      2 N1         -2.1700    4.4960   -0.1210 nc        1 ITQ     -0.616100
      3 C2         -4.9740   -2.3650    0.6870 c3        1 ITQ     -0.073400
      4 N2          1.6050   -0.0730    0.5790 na        1 ITQ     -0.073300
      5 C3         -5.4360   -1.1900   -0.1530 c3        1 ITQ     -0.077400
      6 N3         -1.2900   -1.4140    0.4480 na        1 ITQ     -0.098400
      7 C4         -4.6700    0.0810    0.1780 c3        1 ITQ     -0.015200
      8 N4          0.6930   -1.3150   -1.9850 n3        1 ITQ     -0.820200
      9 O4          0.7290   -2.1170    1.4840 os        1 ITQ     -0.411600
     10 C5         -3.2280   -0.1870    0.2630 cc        1 ITQ     -0.117400
     11 C6         -2.1250    0.7470    0.2410 ca        1 ITQ      0.012200
     12 O6          3.4500   -1.7280   -0.9270 os        1 ITQ     -0.399600
     13 C7         -1.9710    2.1150    0.1240 ca        1 ITQ     -0.178600
     14 C8         -2.9500    3.2450   -0.0600 c         1 ITQ      0.692100
     15 C9         -0.9100    4.1780   -0.0000 cd        1 ITQ      0.514800
     16 C10        -0.6800    2.7120    0.1560 ca        1 ITQ     -0.171900
     17 C11         0.4670    1.9590    0.3030 cp        1 ITQ     -0.028000
     18 C12         1.8870    2.2380    0.3610 cp        1 ITQ     -0.081000
     19 C13         2.6250    3.4130    0.2850 ca        1 ITQ     -0.078000
     20 C14         4.0140    3.3460    0.3460 ca        1 ITQ     -0.162000
     21 C15         4.6670    2.1150    0.4660 ca        1 ITQ     -0.105000
     22 C16         3.9620    0.9170    0.5440 ca        1 ITQ     -0.149000
     23 C17         2.5620    0.9640    0.5150 ca        1 ITQ      0.027800
     24 C18         0.3420    0.5180    0.4310 ca        1 ITQ      0.042800
     25 C19        -0.9240   -0.0660    0.3810 ca        1 ITQ     -0.044200
     26 C20        -2.6960   -1.4750    0.4050 cd        1 ITQ     -0.050300
     27 C21         1.8690   -1.4700    0.8790 c3        1 ITQ      0.302500
     28 C22         2.3010   -2.3340   -0.3540 c3        1 ITQ      0.112100
     29 C23         1.1450   -2.5440   -1.3600 c3        1 ITQ      0.163500
     30 C24         0.0400   -3.2680   -0.5810 c3        1 ITQ     -0.125400
     31 C25        -0.3850   -2.5120    0.6900 c3        1 ITQ      0.270800
     32 C26         2.9460   -1.6500    1.9820 c3        1 ITQ     -0.104100
     33 C27         4.1980   -2.6010   -1.7610 c3        1 ITQ      0.109700
     34 H1         -3.1550   -3.3950    1.2680 hc        1 ITQ      0.048200
     35 H1A        -3.4010   -3.2610   -0.5220 hc        1 ITQ      0.048200
     36 H2         -5.5990   -3.2650    0.4510 hc        1 ITQ      0.046200
     37 H2A        -5.1250   -2.1220    1.7720 hc        1 ITQ      0.046200
     38 H3         -5.3010   -1.4350   -1.2390 hc        1 ITQ      0.044200
     39 H3A        -6.5290   -1.0170    0.0210 hc        1 ITQ      0.044200
     40 H4         -4.8750    0.8710   -0.5960 hc        1 ITQ      0.067200
     41 H4A        -5.0270    0.4940    1.1620 hc        1 ITQ      0.067200
     42 HN4        -0.2890   -1.3550   -2.1790 hn        1 ITQ      0.374800
     43 H9         -0.0970    4.9150   -0.0110 h4        1 ITQ      0.043800
     44 H13         2.1150    4.3810    0.1740 ha        1 ITQ      0.132000
     45 H14         4.6070    4.2710    0.2910 ha        1 ITQ      0.132000
     46 H15         5.7670    2.0880    0.4920 ha        1 ITQ      0.130000
     47 H16         4.4940   -0.0430    0.5910 ha        1 ITQ      0.145000
     48 H22         2.5780   -3.3510    0.0550 h1        1 ITQ      0.047700
     49 H23         1.5310   -3.2710   -2.1430 h1        1 ITQ      0.028700
     50 H24        -0.8530   -3.4500   -1.2320 hc        1 ITQ      0.066700
     51 H24A        0.4350   -4.2660   -0.2560 hc        1 ITQ      0.066700
     52 H25        -0.9190   -3.2440    1.3830 h2        1 ITQ      0.088700
     53 H26         2.9650   -0.7800    2.6790 hc        1 ITQ      0.063367
     54 H26A        2.7070   -2.5700    2.5690 hc        1 ITQ      0.063367
     55 H26B        3.9470   -1.7700    1.5050 hc        1 ITQ      0.063367
     56 H27         4.5040   -3.5210   -1.2040 h1        1 ITQ      0.038367
     57 H27A        3.6090   -2.8780   -2.6700 h1        1 ITQ      0.038367
     58 H27B        5.0950   -1.9960   -2.0480 h1        1 ITQ      0.038367
     59 H28         2.5080   -0.7470   -2.8600 h1        1 ITQ      0.036033
     60 H28A        1.4170   -1.6870   -3.9770 h1        1 ITQ      0.036033
     61 H28B        1.0040    0.0360   -3.5380 h1        1 ITQ      0.036033
     62 O5         -4.1730    3.1810   -0.1550 o         1 ITQ     -0.483100
     63 C28         1.4370   -0.9230   -3.1500 c3        1 ITQ      0.153100
@<TRIPOS>BOND
     1    1    3 1   
     2    1   26 1   
     3    1   34 1   
     4    1   35 1   
     5    2   14 1   
     6    2   15 2   
     7    3    5 1   
     8    3   36 1   
     9    3   37 1   
    10    4   23 1   
    11    4   24 1   
    12    4   27 1   
    13    5    7 1   
    14    5   38 1   
    15    5   39 1   
    16    6   25 1   
    17    6   26 1   
    18    6   31 1   
    19    7   10 1   
    20    7   40 1   
    21    7   41 1   
    22    8   29 1   
    23    8   42 1   
    24    8   63 1   
    25    9   27 1   
    26    9   31 1   
    27   10   11 1   
    28   10   26 2   
    29   11   13 ar  
    30   11   25 ar  
    31   12   28 1   
    32   12   33 1   
    33   13   14 1   
    34   13   16 ar  
    35   14   62 2   
    36   15   16 1   
    37   15   43 1   
    38   16   17 ar  
    39   17   18 1   
    40   17   24 ar  
    41   18   19 ar  
    42   18   23 ar  
    43   19   20 ar  
    44   19   44 1   
    45   20   21 ar  
    46   20   45 1   
    47   21   22 ar  
    48   21   46 1   
    49   22   23 ar  
    50   22   47 1   
    51   24   25 ar  
    52   27   28 1   
    53   27   32 1   
    54   28   29 1   
    55   28   48 1   
    56   29   30 1   
    57   29   49 1   
    58   30   31 1   
    59   30   50 1   
    60   30   51 1   
    61   31   52 1   
    62   32   53 1   
    63   32   54 1   
    64   32   55 1   
    65   33   56 1   
    66   33   57 1   
    67   33   58 1   
    68   59   63 1   
    69   60   63 1   
    70   61   63 1   
@<TRIPOS>SUBSTRUCTURE
     1 ITQ         1 TEMP              0 ****  ****    0 ROOT
