@<TRIPOS>MOLECULE
ITQ
   64    68     1     0     0
SMALL
bcc


@<TRIPOS>ATOM
      1 C1         -0.0900    0.2360    0.2880 c3        1 ITQ     -0.159000
      2 N1          1.7960    5.8950    4.3310 n         1 ITQ     -0.276000
      3 C2          1.3270   -0.3120    0.4530 c3        1 ITQ     -0.187000
      4 N2         -3.5180    4.3150    2.2880 na        1 ITQ     -0.061000
      5 C3          1.9600   -0.1470    1.8280 c3        1 ITQ     -0.263000
      6 N3         -1.6500    1.9310    1.4730 nh        1 ITQ     -0.228000
      7 C4          1.7580    1.1210    2.5320 c1        1 ITQ      0.056000
      8 N4         -4.2500   -0.8480    3.3220 n3        1 ITQ     -0.314000
      9 O4         -3.9620    2.2980    1.1000 os        1 ITQ     -0.180000
     10 C5          0.7550    1.9640    1.8690 c3        1 ITQ     -0.153000
     11 C6          0.1270    3.1510    2.5120 ca        1 ITQ      0.015000
     12 O6         -7.6590    0.9700    0.6000 oh        1 ITQ     -0.277000
     13 C7          0.6010    4.2320    3.1840 ca        1 ITQ     -0.081000
     14 C8          1.9800    4.6330    3.6280 c2        1 ITQ      0.307000
     15 C9          0.5290    6.3330    4.3460 c1        1 ITQ      0.066000
     16 C10        -0.2820    5.3040    3.6040 ca        1 ITQ     -0.156000
     17 C11        -1.6050    5.2720    3.2930 ca        1 ITQ      0.082000
     18 C12        -2.7120    6.2030    3.5170 c2        1 ITQ     -0.084000
     19 C13        -2.6590    7.3670    4.1710 c2        1 ITQ     -0.078000
     20 C14        -6.2160    6.7340    2.8260 c1        1 ITQ     -0.053000
     21 C15        -7.3590    7.3610    2.8410 c2        1 ITQ     -0.091000
     22 C16        -5.1100    6.1260    2.8090 c1        1 ITQ     -0.149000
     23 C17        -3.9060    5.6000    2.8650 c2        1 ITQ      0.099000
     24 C18        -2.1290    4.1310    2.5610 ca        1 ITQ     -0.077000
     25 C19        -1.2970    3.0920    2.1930 ca        1 ITQ      0.053000
     26 C20        -0.4760    1.0340    1.5230 c3        1 ITQ     -0.004000
     27 C21        -4.3230    3.4950    1.6030 c2        1 ITQ      0.270000
     28 C22        -5.7360    0.2730    1.7100 c2        1 ITQ     -0.246000
     29 C23        -4.5370   -0.6020    1.9080 c3        1 ITQ      0.023000
     30 C24        -3.3190    0.0400    1.2040 c3        1 ITQ     -0.157000
     31 C25        -2.9790    1.4260    1.7710 c3        1 ITQ      0.136000
     32 C26        -5.7440    3.8190    1.2470 c3        1 ITQ     -0.217000
     33 C27        -6.6730    0.0240    0.7810 c2        1 ITQ     -0.009000
     34 H1          1.2360    2.3350    0.9050 hc        1 ITQ      0.164000
     35 H1A        -0.6270    0.3070    2.3790 h1        1 ITQ      0.098000
     36 H2         -0.1410    0.8800   -0.6280 hc        1 ITQ      0.101000
     37 H2A        -0.8080   -0.6100    0.1320 hc        1 ITQ      0.101000
     38 H3          1.3240   -1.4020    0.1870 hc        1 ITQ      0.100000
     39 H3A         1.9880    0.2000   -0.2990 hc        1 ITQ      0.100000
     40 H4          3.0750   -0.3110    1.7420 hc        1 ITQ      0.157500
     41 H4A         1.5930   -0.9480    2.5370 hc        1 ITQ      0.157500
     42 H9          2.5650    6.3670    4.7480 hn        1 ITQ      0.279000
     43 H13        -1.7110    7.7190    4.6160 ha        1 ITQ      0.158000
     44 H14        -3.5370    8.0150    4.2960 ha        1 ITQ      0.158000
     45 H15        -8.2640    6.9490    2.3670 ha        1 ITQ      0.167000
     46 H16        -7.4770    8.3400    3.3340 ha        1 ITQ      0.167000
     47 H22        -8.3590    0.5710    0.0630 ho        1 ITQ      0.232000
     48 H23        -5.8010    1.1720    2.3420 ha        1 ITQ      0.133000
     49 H24        -3.5520    0.1350    0.1120 hc        1 ITQ      0.121000
     50 H24A       -4.7180   -1.5840    1.3620 h1        1 ITQ      0.077000
     51 H25        -2.4330   -0.6360    1.3230 hc        1 ITQ      0.121000
     52 H26        -6.3370    3.9900    2.1830 hc        1 ITQ      0.151000
     53 H26A       -6.1980    2.9560    0.6850 hc        1 ITQ      0.151000
     54 H26B       -5.7790    4.7420    0.6150 hc        1 ITQ      0.151000
     55 H27        -8.9880    2.9440    0.5490 ha        1 ITQ      0.002000
     56 H27A       -8.4140    3.2180    0.7850 ha        1 ITQ      0.002000
     57 H27B       -6.7030   -0.8640    0.1320 h4        1 ITQ      0.141000
     58 H28        -5.7750   -2.3220    3.6910 h1        1 ITQ      0.082333
     59 H28A       -6.1950   -0.5910    4.0640 h1        1 ITQ      0.082333
     60 H28B       -5.0330   -1.4970    5.1400 h1        1 ITQ      0.082333
     61 O5          3.0620    4.0920    3.4390 o         1 ITQ     -0.211000
     62 C28        -5.3670   -1.3480    4.0790 c3        1 ITQ     -0.130000
     63 H41        -3.4720   -1.4800    3.3890 hn        1 ITQ      0.159000
     64 HN4        -3.2070    1.4790    2.8800 h2        1 ITQ      0.141000
@<TRIPOS>BOND
     1    1    3 1   
     2    1   26 1   
     3    1   36 1   
     4    1   37 1   
     5    2   14 1   
     6    2   15 1   
     7    2   42 1   
     8    3    5 1   
     9    3   38 1   
    10    3   39 1   
    11    4   23 1   
    12    4   24 1   
    13    4   27 1   
    14    5    7 1   
    15    5   40 1   
    16    5   41 1   
    17    6   25 1   
    18    6   26 1   
    19    6   31 1   
    20    7   10 1   
    21    8   29 1   
    22    8   62 1   
    23    8   63 1   
    24    9   27 1   
    25    9   31 1   
    26   10   11 1   
    27   10   26 1   
    28   10   34 1   
    29   11   13 1   
    30   11   25 1   
    31   12   33 1   
    32   12   47 1   
    33   13   14 1   
    34   13   16 1   
    35   14   61 1   
    36   15   16 1   
    37   16   17 1   
    38   17   18 1   
    39   17   24 1   
    40   18   19 1   
    41   18   23 1   
    42   19   43 1   
    43   19   44 1   
    44   20   21 1   
    45   20   22 1   
    46   21   45 1   
    47   21   46 1   
    48   22   23 1   
    49   24   25 1   
    50   26   35 1   
    51   27   32 1   
    52   28   29 1   
    53   28   33 1   
    54   28   48 1   
    55   29   30 1   
    56   29   50 1   
    57   30   31 1   
    58   30   49 1   
    59   30   51 1   
    60   31   64 1   
    61   32   52 1   
    62   32   53 1   
    63   32   54 1   
    64   33   57 1   
    65   55   56 1   
    66   58   62 1   
    67   59   62 1   
    68   60   62 1   
@<TRIPOS>SUBSTRUCTURE
     1 ITQ         1 TEMP              0 ****  ****    0 ROOT
