@<TRIPOS>MOLECULE
ITQ
   63    60     1     0     0
SMALL
bcc


@<TRIPOS>ATOM
      1 C1          3.4160   -1.0220   -2.4160 c3        1 ITQ     -0.101000
      2 N1          2.1900    1.2650    4.1810 n1        1 ITQ     -0.189000
      3 C2          4.8170   -0.8080   -2.2070 c3        1 ITQ     -0.152000
      4 N2         -1.4100    1.1320    0.1880 n2        1 ITQ     -0.183000
      5 C3          5.2740   -0.7570   -0.8420 c3        1 ITQ     -0.156000
      6 N3          1.0260   -0.1280   -1.3290 n2        1 ITQ     -0.190000
      7 C4          4.6130    0.1350    0.0150 c3        1 ITQ     -0.098000
      8 N4         -0.3090   -1.4070   -0.6160 n3        1 ITQ     -0.299000
      9 O4         -0.6190    1.4700   -2.1480 os        1 ITQ     -0.268000
     10 C5          3.0340    0.3160   -0.2160 c2        1 ITQ     -0.125000
     11 O5          3.8670    2.2110    2.9070 o         1 ITQ     -0.244000
     12 C6          2.0010    0.9080    0.5140 c1        1 ITQ      0.024000
     13 O6         -3.0480   -0.9720   -0.4810 os        1 ITQ     -0.256000
     14 C7          2.0080    0.7990    1.8860 c1        1 ITQ     -0.158000
     15 C8          2.9390    1.4160    3.0590 c1        1 ITQ      0.293000
     16 C9          1.0540    0.7090    3.9800 c1        1 ITQ      0.014000
     17 C10         0.8040    0.3480    2.5830 c1        1 ITQ     -0.088000
     18 C11        -0.3360    0.0330    1.8550 c1        1 ITQ     -0.028000
     19 C12        -1.4030    0.7110    2.4520 c1        1 ITQ     -0.081000
     20 C13        -1.9560    0.6110    3.7560 c1        1 ITQ     -0.123500
     21 C14        -3.1830    1.2010    4.0390 c1        1 ITQ     -0.123500
     22 C15        -3.8740    1.8940    3.0380 c1        1 ITQ     -0.123500
     23 C16        -3.3300    1.9950    1.7490 c1        1 ITQ     -0.123500
     24 C17        -2.0830    1.3960    1.4600 c1        1 ITQ      0.073000
     25 C18        -0.3800    0.2940    0.4290 c1        1 ITQ      0.088000
     26 C19         0.7500    0.7070   -0.2290 c1        1 ITQ      0.001000
     27 C20         2.4390   -0.3410   -1.3810 c2        1 ITQ     -0.019000
     28 C21        -1.8120    1.0740   -1.1930 c2        1 ITQ      0.250000
     29 C22        -2.3490   -0.4730   -1.5490 c3        1 ITQ      0.001000
     30 C23        -1.2210   -1.3350   -1.8360 c3        1 ITQ     -0.034000
     31 C24        -0.5110   -0.8110   -2.9160 c3        1 ITQ     -0.204000
     32 C25         0.2810    0.2710   -2.4710 c2        1 ITQ      0.179000
     33 C26        -2.8670    1.9750   -1.3980 c3        1 ITQ     -0.222000
     34 C27        -4.4130   -1.3330   -0.7900 c3        1 ITQ     -0.080000
     35 C28        -0.6520   -2.5560    0.1720 c3        1 ITQ     -0.123000
     36 H1          3.2480   -2.0160   -2.3960 hc        1 ITQ      0.087500
     37 H1A         3.1920   -0.6950   -3.2960 hc        1 ITQ      0.087500
     38 H2          5.2740   -1.4860   -2.6340 hc        1 ITQ      0.085500
     39 H2A         5.0580    0.0350   -2.6350 hc        1 ITQ      0.085500
     40 H3          5.1890   -1.6470   -0.4670 hc        1 ITQ      0.083500
     41 H3A         6.2590   -0.5120   -0.8500 hc        1 ITQ      0.083500
     42 H4          5.0370    1.0150   -0.0830 hc        1 ITQ      0.106500
     43 H4A         4.7560   -0.1800    0.9620 hc        1 ITQ      0.106500
     44 HN4         0.5250   -1.4690   -0.8770 hn        1 ITQ      0.170000
     45 H9          0.6120    0.2150    4.7020 ha        1 ITQ      0.173000
     46 H13        -1.4760    0.1290    4.4550 ha        1 ITQ      0.134750
     47 H14        -3.5730    1.1280    4.9600 ha        1 ITQ      0.134750
     48 H15        -4.7360    2.3060    3.2370 ha        1 ITQ      0.134750
     49 H16        -3.8210    2.4850    1.0410 ha        1 ITQ      0.134750
     50 H22        -2.9390   -0.4400   -2.3330 h1        1 ITQ      0.087000
     51 H23        -1.5410   -2.2330   -2.0580 h1        1 ITQ      0.068000
     52 H24        -1.1380   -0.4970   -3.6010 hc        1 ITQ      0.106000
     53 H24A        0.0770   -1.5180   -3.3030 hc        1 ITQ      0.106000
     54 H25         0.9070    0.5240   -3.1860 h4        1 ITQ      0.128000
     55 H26        -3.0830    2.0220   -2.3800 hc        1 ITQ      0.102667
     56 H26A       -3.6250    1.6830   -0.9240 hc        1 ITQ      0.102667
     57 H26B       -2.5960    2.8930   -1.0670 hc        1 ITQ      0.102667
     58 H27        -4.6750   -2.1500   -0.2620 h1        1 ITQ      0.077667
     59 H27A       -4.4920   -1.5350   -1.7930 h1        1 ITQ      0.077667
     60 H27B       -5.0280   -0.5660   -0.5510 h1        1 ITQ      0.077667
     61 H28        -1.6080   -2.6490    0.2020 h1        1 ITQ      0.075333
     62 H28A       -0.2960   -2.4420    1.1100 h1        1 ITQ      0.075333
     63 H28B       -0.2700   -3.3300   -0.2180 h1        1 ITQ      0.075333
@<TRIPOS>BOND
     1    1    3 1   
     2    1   27 1   
     3    1   36 1   
     4    1   37 1   
     5    2   16 1   
     6    3    5 1   
     7    3   38 1   
     8    3   39 1   
     9    4   24 1   
    10    4   25 1   
    11    5    7 1   
    12    5   40 1   
    13    5   41 1   
    14    6   26 1   
    15    6   27 1   
    16    7   10 1   
    17    7   42 1   
    18    7   43 1   
    19    8   30 1   
    20    8   35 1   
    21    8   44 1   
    22    9   28 1   
    23    9   32 1   
    24   10   12 1   
    25   10   27 1   
    26   11   15 1   
    27   12   26 1   
    28   13   29 1   
    29   13   34 1   
    30   14   15 1   
    31   14   17 1   
    32   16   45 1   
    33   17   18 1   
    34   18   25 1   
    35   19   24 1   
    36   20   21 1   
    37   20   46 1   
    38   21   47 1   
    39   22   23 1   
    40   22   48 1   
    41   23   49 1   
    42   28   29 1   
    43   28   33 1   
    44   29   30 1   
    45   29   50 1   
    46   30   31 1   
    47   30   51 1   
    48   31   32 1   
    49   31   52 1   
    50   31   53 1   
    51   32   54 1   
    52   33   55 1   
    53   33   56 1   
    54   33   57 1   
    55   34   58 1   
    56   34   59 1   
    57   34   60 1   
    58   35   61 1   
    59   35   62 1   
    60   35   63 1   
@<TRIPOS>SUBSTRUCTURE
     1 ITQ         1 TEMP              0 ****  ****    0 ROOT
