@<TRIPOS>MOLECULE
ITQ
   64    67     1     0     0
SMALL
bcc


@<TRIPOS>ATOM
      1 C1         -0.6860   -0.7310    0.8550 c3        1 ITQ     -0.065400
      2 N1          1.9070    5.9410    4.0560 n         1 ITQ     -0.432500
      3 C2          0.8090   -0.9820    0.5450 c3        1 ITQ     -0.081400
      4 N2         -3.4760    3.7700    2.8440 na        1 ITQ     -0.413000
      5 C3          1.9180   -0.3800    1.4370 c3        1 ITQ     -0.012300
      6 N3         -1.7690    1.6880    1.5810 n         1 ITQ     -0.351400
      7 C4          1.7450    1.0110    1.7740 c1        1 ITQ     -0.046100
      8 N4         -4.7660    1.2200    2.5500 n4        1 ITQ     -0.751000
      9 O4         -2.1590    2.7190   -0.5180 o         1 ITQ     -0.519500
     10 C5          1.2190    2.0650    2.0460 cg        1 ITQ     -0.196300
     11 C6          0.2790    3.0690    2.3780 cc        1 ITQ      0.077700
     12 O6         -7.7820    1.1740    1.9920 oh        1 ITQ     -0.665800
     13 C7          0.7050    4.2200    3.0030 cd        1 ITQ     -0.142200
     14 C8          2.0960    4.7180    3.2870 c         1 ITQ      0.631300
     15 C9          0.6200    6.2480    4.2780 c1        1 ITQ      0.128100
     16 C10        -0.1860    5.1640    3.6080 cd        1 ITQ     -0.198100
     17 C11        -1.5240    4.9360    3.5390 cd        1 ITQ      0.036000
     18 C12        -2.6510    5.5750    4.2230 cd        1 ITQ     -0.103000
     19 C13        -2.6020    6.6640    4.9950 c2        1 ITQ     -0.098000
     20 C14        -7.0200    3.1550    4.2000 c1        1 ITQ     -0.164500
     21 C15        -6.0790    3.8850    4.3460 cg        1 ITQ     -0.154300
     22 C16        -4.9950    4.7410    4.5720 ce        1 ITQ     -0.033700
     23 C17        -3.8250    4.7280    3.8970 cd        1 ITQ      0.103000
     24 C18        -2.0230    3.8190    2.7600 cc        1 ITQ     -0.025600
     25 C19        -1.1680    2.8640    2.1930 cc        1 ITQ      0.221200
     26 C20        -0.7230    0.6910    1.3680 c3        1 ITQ     -0.018000
     27 C21        -4.1880    4.0720    1.6220 c2        1 ITQ      0.118800
     28 C22        -4.8700    3.1320    0.9340 c2        1 ITQ     -0.247200
     29 C23        -4.8720    1.6470    1.1100 c3        1 ITQ      0.193700
     30 C24        -3.7610    1.0800    0.2170 c3        1 ITQ     -0.165400
     31 C25        -2.5040    1.9210    0.3560 c         1 ITQ      0.650500
     32 C26        -4.2220    5.4890    1.1350 c3        1 ITQ     -0.094900
     33 C27        -8.8740    0.2750    1.8920 c3        1 ITQ      0.110700
     34 H1         -0.0710    1.2020    0.5800 h1        1 ITQ      0.079700
     35 H1A        -0.3340    0.5490    2.4270 h1        1 ITQ      0.079700
     36 H2         -1.0580   -1.4580    1.6200 hc        1 ITQ      0.047200
     37 H2A        -1.2810   -0.8810   -0.0800 hc        1 ITQ      0.047200
     38 H3          0.9930   -0.6180   -0.5020 hc        1 ITQ      0.061700
     39 H3A         0.9700   -2.0930    0.5500 hc        1 ITQ      0.061700
     40 H4          2.8960   -0.5370    0.9010 hc        1 ITQ      0.081700
     41 H4A         1.9680   -0.9620    2.4010 hc        1 ITQ      0.081700
     42 H9          2.6820    6.4790    4.3660 hn        1 ITQ      0.362500
     43 H13        -1.6470    7.1930    5.1650 ha        1 ITQ      0.152000
     44 H14        -3.4890    7.0800    5.4910 ha        1 ITQ      0.152000
     45 H15        -7.8700    2.5270    4.0900 ha        1 ITQ      0.178500
     46 H16        -5.1310    5.4740    5.3920 ha        1 ITQ      0.175000
     47 H22        -8.1230    2.0580    1.8060 ho        1 ITQ      0.419000
     48 H23        -5.4500    3.4430    0.0450 ha        1 ITQ      0.174000
     49 H24        -4.1130    1.1540   -0.8500 hc        1 ITQ      0.100200
     50 H24A       -5.8720    1.2390    0.7510 hx        1 ITQ      0.122700
     51 H25        -3.5430    0.0030    0.4340 hc        1 ITQ      0.100200
     52 H26        -4.8500    5.5840    0.2160 hc        1 ITQ      0.074700
     53 H26A       -3.1820    5.8250    0.8880 hc        1 ITQ      0.074700
     54 H26B       -4.6360    6.1690    1.9210 hc        1 ITQ      0.074700
     55 H27        -9.6600    0.5300    2.6450 h1        1 ITQ      0.046700
     56 H27A       -9.3070    0.2960    0.8610 h1        1 ITQ      0.046700
     57 H27B       -8.4450   -0.7360    2.1090 h1        1 ITQ      0.046700
     58 H28        -4.4270   -0.8570    2.1730 hx        1 ITQ      0.100367
     59 H28A       -6.1810   -0.3750    2.4330 hx        1 ITQ      0.100367
     60 H28B       -5.0200   -0.4360    3.8540 hx        1 ITQ      0.100367
     61 O5          3.1870    4.2550    2.9760 o         1 ITQ     -0.462100
     62 C28        -5.1190   -0.1980    2.7600 c3        1 ITQ      0.081100
     63 H41        -5.4180    1.8150    3.0910 hn        1 ITQ      0.474800
     64 HN4        -3.8090    1.3880    2.8920 hn        1 ITQ      0.474800
@<TRIPOS>BOND
     1    1    3 1   
     2    1   26 1   
     3    1   36 1   
     4    1   37 1   
     5    2   14 1   
     6    2   15 2   
     7    2   42 1   
     8    3    5 1   
     9    3   38 1   
    10    3   39 1   
    11    4   23 1   
    12    4   24 1   
    13    4   27 1   
    14    5    7 1   
    15    5   40 1   
    16    5   41 1   
    17    6   25 2   
    18    6   26 1   
    19    6   31 1   
    20    7   10 3   
    21    8   29 1   
    22    8   62 1   
    23    8   63 1   
    24    8   64 1   
    25    9   31 2   
    26   10   11 1   
    27   11   13 2   
    28   11   25 1   
    29   12   33 1   
    30   12   47 1   
    31   13   14 1   
    32   13   16 1   
    33   14   61 2   
    34   15   16 2   
    35   16   17 1   
    36   17   18 1   
    37   17   24 2   
    38   18   19 2   
    39   18   23 1   
    40   19   43 1   
    41   19   44 1   
    42   20   21 3   
    43   20   45 1   
    44   21   22 1   
    45   22   23 2   
    46   22   46 1   
    47   24   25 1   
    48   26   34 1   
    49   26   35 1   
    50   27   28 2   
    51   27   32 1   
    52   28   29 1   
    53   28   48 1   
    54   29   30 1   
    55   29   50 1   
    56   30   31 1   
    57   30   49 1   
    58   30   51 1   
    59   32   52 1   
    60   32   53 1   
    61   32   54 1   
    62   33   55 1   
    63   33   56 1   
    64   33   57 1   
    65   58   62 1   
    66   59   62 1   
    67   60   62 1   
@<TRIPOS>SUBSTRUCTURE
     1 ITQ         1 TEMP              0 ****  ****    0 ROOT
