@<TRIPOS>MOLECULE
ITQ
   64    67     1     0     0
SMALL
bcc


@<TRIPOS>ATOM
      1 C1         -0.3250   -0.5680    1.5260 c3        1 ITQ     -0.145000
      2 N1          1.7740    6.8950    2.7440 ns        1 ITQ     -0.282000
      3 C2          1.1270   -0.7150    1.0110 c3        1 ITQ     -0.159000
      4 N2         -3.2490    3.9050    3.5060 na        1 ITQ     -0.156000
      5 C3          2.2640    0.1680    1.5730 c3        1 ITQ     -0.060000
      6 N3         -1.5990    1.8220    2.0100 n         1 ITQ     -0.220000
      7 C4          1.9520    1.5700    1.6770 c1        1 ITQ     -0.090000
      8 N4         -5.4860   -0.2820    2.4130 ny        1 ITQ     -0.027000
      9 O4         -2.7950    2.5970    0.1140 o         1 ITQ     -0.288000
     10 C5          1.3300    2.5930    1.8440 c1        1 ITQ     -0.150000
     11 C6          0.3260    3.5390    2.1610 ca        1 ITQ      0.134000
     12 O6         -6.6760   -0.2780   -0.1750 oh        1 ITQ     -0.409000
     13 C7          0.6870    4.8400    2.4260 ca        1 ITQ     -0.141000
     14 C8          2.0090    5.5370    2.2710 c2        1 ITQ      0.309000
     15 C9          0.5190    7.1120    3.1670 c1        1 ITQ      0.064000
     16 C10        -0.2120    5.8060    2.9840 ca        1 ITQ     -0.130000
     17 C11        -1.4770    5.4240    3.2920 ca        1 ITQ      0.032000
     18 C12        -2.5590    6.1480    3.9620 c2        1 ITQ     -0.079000
     19 C13        -2.5340    7.4110    4.3920 c2        1 ITQ     -0.107000
     20 C14        -7.2240    5.8280    4.7140 c1        1 ITQ      0.009000
     21 C15        -5.9720    5.5160    5.2690 c2        1 ITQ     -0.113000
     22 C16        -4.8260    5.3700    4.6620 c1        1 ITQ     -0.265000
     23 C17        -3.6730    5.1730    4.0760 c2        1 ITQ      0.104000
     24 C18        -1.9230    4.0730    2.9790 ca        1 ITQ      0.055000
     25 C19        -1.0810    3.1410    2.3440 ca        1 ITQ      0.017000
     26 C20        -0.4820    0.9150    1.7800 c3        1 ITQ     -0.118000
     27 C21        -4.2050    3.1670    2.7570 c2        1 ITQ      0.117000
     28 C22        -4.2620    1.8230    2.9530 c2        1 ITQ     -0.291000
     29 C23        -4.7550    0.9210    1.8730 c3        1 ITQ     -0.013000
     30 C24        -3.5110    0.5100    1.0540 c3        1 ITQ     -0.200000
     31 C25        -2.5960    1.7420    0.9860 c2        1 ITQ      0.280000
     32 C26        -5.0950    3.8740    1.7850 c3        1 ITQ     -0.239000
     33 C27        -7.9740   -0.7270   -0.5310 c3        1 ITQ     -0.076000
     34 H1         -0.0410    1.3290    0.8100 h1        1 ITQ      0.118500
     35 H1A         0.0880    1.0220    2.7580 h1        1 ITQ      0.118500
     36 H2         -1.0200   -0.9640    0.7450 hc        1 ITQ      0.081500
     37 H2A        -0.4780   -1.1660    2.4580 hc        1 ITQ      0.081500
     38 H3          1.4380   -1.7790    1.1880 hc        1 ITQ      0.096500
     39 H3A         1.0990   -0.5490   -0.0990 hc        1 ITQ      0.096500
     40 H4          2.5360   -0.2000    2.6040 hc        1 ITQ      0.119000
     41 H4A         3.1630    0.0090    0.9150 hc        1 ITQ      0.119000
     42 H9          2.4970    7.5750    2.7370 hn        1 ITQ      0.273000
     43 H13        -1.6370    8.0390    4.2580 ha        1 ITQ      0.148000
     44 H14        -3.3930    7.8760    4.8940 ha        1 ITQ      0.148000
     45 H15        -7.5590    6.8580    4.5550 ha        1 ITQ      0.109000
     46 H16        -6.0580    5.2560    6.3560 ha        1 ITQ      0.195000
     47 H22        -6.2300   -0.0170   -0.9900 ho        1 ITQ      0.228000
     48 H23        -3.7040    1.3390    3.7730 ha        1 ITQ      0.167000
     49 H24        -3.8140    0.2300    0.0110 hc        1 ITQ      0.125000
     50 H24A       -5.4900    1.4380    1.1800 hx        1 ITQ      0.164000
     51 H25        -2.9720   -0.3540    1.5200 hc        1 ITQ      0.125000
     52 H26        -6.1080    3.4050    1.7630 hc        1 ITQ      0.114667
     53 H26A       -4.6420    3.8250    0.7590 hc        1 ITQ      0.114667
     54 H26B       -5.2230    4.9540    2.0530 hc        1 ITQ      0.114667
     55 H27        -7.9070   -1.6360   -1.1790 h1        1 ITQ      0.087667
     56 H27A       -8.5370    0.0820   -1.0570 h1        1 ITQ      0.087667
     57 H27B       -8.4730   -0.9770    0.4390 h1        1 ITQ      0.087667
     58 H28        -7.1890   -0.7930    3.5870 hx        1 ITQ      0.146667
     59 H28A       -7.4760    0.4540    2.2670 hx        1 ITQ      0.146667
     60 H28B       -5.6820   -0.9130    1.6210 hn        1 ITQ      0.250500
     61 O5          3.0840    5.1280    1.8470 o         1 ITQ     -0.235000
     62 C28        -6.7600    0.1000    3.0590 c3        1 ITQ     -0.190000
     63 H41        -4.8850   -0.7630    3.0880 hn        1 ITQ      0.250500
     64 HN4        -6.5730    0.9280    3.7970 hx        1 ITQ      0.146667
@<TRIPOS>BOND
     1    1    3 1   
     2    1   26 1   
     3    1   36 1   
     4    1   37 1   
     5    2   14 1   
     6    2   15 1   
     7    2   42 1   
     8    3    5 1   
     9    3   38 1   
    10    3   39 1   
    11    4   23 1   
    12    4   24 1   
    13    4   27 1   
    14    5    7 1   
    15    5   40 1   
    16    5   41 1   
    17    6   25 1   
    18    6   26 1   
    19    6   31 1   
    20    7   10 1   
    21    8   29 1   
    22    8   60 1   
    23    8   62 1   
    24    8   63 1   
    25    9   31 1   
    26   10   11 1   
    27   11   13 1   
    28   11   25 1   
    29   12   33 1   
    30   12   47 1   
    31   13   14 1   
    32   13   16 1   
    33   14   61 1   
    34   15   16 1   
    35   16   17 1   
    36   17   18 1   
    37   17   24 1   
    38   18   19 1   
    39   18   23 1   
    40   19   43 1   
    41   19   44 1   
    42   20   21 1   
    43   20   45 1   
    44   21   22 1   
    45   21   46 1   
    46   22   23 1   
    47   24   25 1   
    48   26   34 1   
    49   26   35 1   
    50   27   28 1   
    51   27   32 1   
    52   28   29 1   
    53   28   48 1   
    54   29   30 1   
    55   29   50 1   
    56   30   31 1   
    57   30   49 1   
    58   30   51 1   
    59   32   52 1   
    60   32   53 1   
    61   32   54 1   
    62   33   55 1   
    63   33   56 1   
    64   33   57 1   
    65   58   62 1   
    66   59   62 1   
    67   62   64 1   
@<TRIPOS>SUBSTRUCTURE
     1 ITQ         1 TEMP              0 ****  ****    0 ROOT
