@<TRIPOS>MOLECULE
ITR
   24    25     1     0     0
SMALL
bcc


@<TRIPOS>ATOM
      1 N           0.0870   -0.9530   -0.3020 n2        1 ITR     -0.795100
      2 CA          1.2250   -0.3900   -0.1460 ce        1 ITR      0.377300
      3 CB          1.7300    0.3580    1.0690 c3        1 ITR     -0.127500
      4 CG          0.8950    0.2560    2.2720 cc        1 ITR     -0.099400
      5 CD1         0.4160   -0.9120    2.8620 cd        1 ITR     -0.126100
      6 NE1        -0.2880   -0.6170    4.0430 na        1 ITR     -0.198400
      7 CE2        -0.3430    0.7760    4.1710 ca        1 ITR     -0.054200
      8 CZ2        -0.9480    1.5840    5.1450 ca        1 ITR     -0.157000
      9 CH2        -0.7850    2.9580    5.0370 ca        1 ITR     -0.124000
     10 CZ3        -0.0410    3.5320    3.9940 ca        1 ITR     -0.173000
     11 CE3         0.5640    2.7450    3.0220 ca        1 ITR     -0.073000
     12 CD2         0.4230    1.3600    3.0900 ca        1 ITR     -0.085800
     13 C           2.3200   -0.3960   -1.2460 c         1 ITR      0.839300
     14 O           3.1670   -1.3240   -1.1890 o         1 ITR     -0.817300
     15 OXT         2.3120    0.5590   -2.0640 o         1 ITR     -0.817300
     16 HN         -0.5280   -0.8800    0.4880 hn        1 ITR      0.331400
     17 HB1         1.8470    1.4360    0.7700 hc        1 ITR      0.074700
     18 HB2         2.7590   -0.0420    1.2940 hc        1 ITR      0.074700
     19 HD1         0.5540   -1.9470    2.5420 h4        1 ITR      0.177000
     20 HE1        -0.9290   -1.2300    4.4700 hn        1 ITR      0.279700
     21 HZ2        -1.5290    1.1440    5.9640 ha        1 ITR      0.119000
     22 HH2        -1.2520    3.6150    5.7850 ha        1 ITR      0.114000
     23 HZ3         0.0600    4.6250    3.9490 ha        1 ITR      0.119000
     24 HE3         1.1450    3.1980    2.2050 ha        1 ITR      0.142000
@<TRIPOS>BOND
     1    1    2 2   
     2    1   16 1   
     3    2    3 1   
     4    2   13 1   
     5    3    4 1   
     6    3   17 1   
     7    3   18 1   
     8    4    5 2   
     9    4   12 1   
    10    5    6 1   
    11    5   19 1   
    12    6    7 1   
    13    6   20 1   
    14    7    8 ar  
    15    7   12 ar  
    16    8    9 ar  
    17    8   21 1   
    18    9   10 ar  
    19    9   22 1   
    20   10   11 ar  
    21   10   23 1   
    22   11   12 ar  
    23   11   24 1   
    24   13   14 1   
    25   13   15 1   
@<TRIPOS>SUBSTRUCTURE
     1 ITR         1 TEMP              0 ****  ****    0 ROOT
