@<TRIPOS>MOLECULE
ITR
   24    25     1     0     0
SMALL
bcc


@<TRIPOS>ATOM
      1 N           0.1190   -1.0060   -0.2710 n2        1 ITR     -0.795100
      2 CA          1.2510   -0.4290   -0.1200 ce        1 ITR      0.377300
      3 CB          1.7420    0.3450    1.0840 c3        1 ITR     -0.127500
      4 CG          0.9010    0.2570    2.2840 cc        1 ITR     -0.099400
      5 CD1         0.4310   -0.9040    2.8930 cd        1 ITR     -0.126100
      6 NE1        -0.2830   -0.5940    4.0640 na        1 ITR     -0.198400
      7 CE2        -0.3530    0.8000    4.1670 ca        1 ITR     -0.054200
      8 CZ2        -0.9710    1.6200    5.1220 ca        1 ITR     -0.157000
      9 CH2        -0.8220    2.9930    4.9900 ca        1 ITR     -0.124000
     10 CZ3        -0.0770    3.5550    3.9400 ca        1 ITR     -0.173000
     11 CE3         0.5420    2.7560    2.9860 ca        1 ITR     -0.073000
     12 CD2         0.4140    1.3720    3.0790 ca        1 ITR     -0.085800
     13 C           2.3520   -0.4440   -1.2140 c         1 ITR      0.839300
     14 O           3.2090   -1.3620   -1.1350 o         1 ITR     -0.817300
     15 OXT         2.3390    0.4960   -2.0490 o         1 ITR     -0.817300
     16 HN         -0.5000   -0.9260    0.5140 hn        1 ITR      0.331400
     17 HB1         2.7740   -0.0400    1.3220 hc        1 ITR      0.074700
     18 HB2         1.8500    1.4190    0.7670 hc        1 ITR      0.074700
     19 HD1         0.5810   -1.9440    2.5930 h4        1 ITR      0.177000
     20 HE1        -0.9200   -1.2060    4.4990 hn        1 ITR      0.279700
     21 HZ2        -1.5530    1.1890    5.9460 ha        1 ITR      0.119000
     22 HH2        -1.2990    3.6590    5.7230 ha        1 ITR      0.114000
     23 HZ3         0.0130    4.6480    3.8750 ha        1 ITR      0.119000
     24 HE3         1.1220    3.2000    2.1640 ha        1 ITR      0.142000
@<TRIPOS>BOND
     1    1    2 2   
     2    1   16 1   
     3    2    3 1   
     4    2   13 1   
     5    3    4 1   
     6    3   17 1   
     7    3   18 1   
     8    4    5 2   
     9    4   12 1   
    10    5    6 1   
    11    5   19 1   
    12    6    7 1   
    13    6   20 1   
    14    7    8 ar  
    15    7   12 ar  
    16    8    9 ar  
    17    8   21 1   
    18    9   10 ar  
    19    9   22 1   
    20   10   11 ar  
    21   10   23 1   
    22   11   12 ar  
    23   11   24 1   
    24   13   14 1   
    25   13   15 1   
@<TRIPOS>SUBSTRUCTURE
     1 ITR         1 TEMP              0 ****  ****    0 ROOT
