@<TRIPOS>MOLECULE
ITR
   24    25     1     0     0
SMALL
bcc


@<TRIPOS>ATOM
      1 N           0.1060   -1.0080   -0.2670 n2        1 ITR     -0.795100
      2 CA          1.2370   -0.4300   -0.1240 ce        1 ITR      0.377300
      3 CB          1.7340    0.3480    1.0760 c3        1 ITR     -0.127500
      4 CG          0.9010    0.2590    2.2820 cc        1 ITR     -0.099400
      5 CD1         0.4370   -0.9030    2.8940 cd        1 ITR     -0.126100
      6 NE1        -0.2690   -0.5940    4.0700 na        1 ITR     -0.198400
      7 CE2        -0.3410    0.7990    4.1730 ca        1 ITR     -0.054200
      8 CZ2        -0.9540    1.6180    5.1320 ca        1 ITR     -0.157000
      9 CH2        -0.8090    2.9920    4.9980 ca        1 ITR     -0.124000
     10 CZ3        -0.0720    3.5550    3.9430 ca        1 ITR     -0.173000
     11 CE3         0.5410    2.7570    2.9860 ca        1 ITR     -0.073000
     12 CD2         0.4170    1.3720    3.0790 ca        1 ITR     -0.085800
     13 C           2.3310   -0.4450   -1.2240 c         1 ITR      0.839300
     14 O           3.1910   -1.3600   -1.1480 o         1 ITR     -0.817300
     15 OXT         2.3120    0.4930   -2.0610 o         1 ITR     -0.817300
     16 HN         -0.5100   -0.9280    0.5210 hn        1 ITR      0.331400
     17 HB1         1.8360    1.4210    0.7560 hc        1 ITR      0.074700
     18 HB2         2.7680   -0.0340    1.3070 hc        1 ITR      0.074700
     19 HD1         0.5880   -1.9430    2.5930 h4        1 ITR      0.177000
     20 HE1        -0.9020   -1.2080    4.5100 hn        1 ITR      0.279700
     21 HZ2        -1.5300    1.1870    5.9600 ha        1 ITR      0.119000
     22 HH2        -1.2820    3.6580    5.7340 ha        1 ITR      0.114000
     23 HZ3         0.0150    4.6480    3.8770 ha        1 ITR      0.119000
     24 HE3         1.1150    3.2010    2.1590 ha        1 ITR      0.142000
@<TRIPOS>BOND
     1    1    2 2   
     2    1   16 1   
     3    2    3 1   
     4    2   13 1   
     5    3    4 1   
     6    3   17 1   
     7    3   18 1   
     8    4    5 2   
     9    4   12 1   
    10    5    6 1   
    11    5   19 1   
    12    6    7 1   
    13    6   20 1   
    14    7    8 ar  
    15    7   12 ar  
    16    8    9 ar  
    17    8   21 1   
    18    9   10 ar  
    19    9   22 1   
    20   10   11 ar  
    21   10   23 1   
    22   11   12 ar  
    23   11   24 1   
    24   13   14 1   
    25   13   15 1   
@<TRIPOS>SUBSTRUCTURE
     1 ITR         1 TEMP              0 ****  ****    0 ROOT
