@<TRIPOS>MOLECULE
ITR
   24    25     1     0     0
SMALL
bcc


@<TRIPOS>ATOM
      1 N          -0.9960   -1.4560    2.1090 n2        1 ITR     -0.795100
      2 CA         -0.4250   -0.3190    2.2440 ce        1 ITR      0.377300
      3 CB         -0.0140    0.6450    1.1520 c3        1 ITR     -0.127500
      4 CG         -0.5000    0.3260   -0.1960 cc        1 ITR     -0.099400
      5 CD1        -1.8150    0.0540   -0.5680 cd        1 ITR     -0.126100
      6 NE1        -1.9060   -0.1340   -1.9590 na        1 ITR     -0.198400
      7 CE2        -0.6110   -0.0690   -2.4850 ca        1 ITR     -0.054200
      8 CZ2        -0.1470   -0.2190   -3.8000 ca        1 ITR     -0.157000
      9 CH2         1.2100   -0.0450   -4.0310 ca        1 ITR     -0.124000
     10 CZ3         2.0990    0.2730   -2.9910 ca        1 ITR     -0.173000
     11 CE3         1.6550    0.4250   -1.6840 ca        1 ITR     -0.073000
     12 CD2         0.3000    0.2550   -1.4070 ca        1 ITR     -0.085800
     13 C          -0.0540    0.2730    3.6290 c         1 ITR      0.839300
     14 O          -0.9040    1.0340    4.1600 o         1 ITR     -0.817300
     15 OXT         1.0880    0.0000    4.0790 o         1 ITR     -0.817300
     16 HN         -1.1860   -1.7210    1.1600 hn        1 ITR      0.331400
     17 HB1        -0.3920    1.6620    1.4550 hc        1 ITR      0.074700
     18 HB2         1.1100    0.6900    1.1560 hc        1 ITR      0.074700
     19 HD1        -2.7090    0.0100    0.0580 h4        1 ITR      0.177000
     20 HE1        -2.6550   -0.5920   -2.4050 hn        1 ITR      0.279700
     21 HZ2        -0.8350   -0.4650   -4.6190 ha        1 ITR      0.119000
     22 HH2         1.6020   -0.1600   -5.0520 ha        1 ITR      0.114000
     23 HZ3         3.1660    0.4010   -3.2210 ha        1 ITR      0.119000
     24 HE3         2.3540    0.6710   -0.8710 ha        1 ITR      0.142000
@<TRIPOS>BOND
     1    1    2 2   
     2    1   16 1   
     3    2    3 1   
     4    2   13 1   
     5    3    4 1   
     6    3   17 1   
     7    3   18 1   
     8    4    5 2   
     9    4   12 1   
    10    5    6 1   
    11    5   19 1   
    12    6    7 1   
    13    6   20 1   
    14    7    8 ar  
    15    7   12 ar  
    16    8    9 ar  
    17    8   21 1   
    18    9   10 ar  
    19    9   22 1   
    20   10   11 ar  
    21   10   23 1   
    22   11   12 ar  
    23   11   24 1   
    24   13   14 1   
    25   13   15 1   
@<TRIPOS>SUBSTRUCTURE
     1 ITR         1 TEMP              0 ****  ****    0 ROOT
