@<TRIPOS>MOLECULE
ITS
   36    36     1     0     0
SMALL
bcc


@<TRIPOS>ATOM
      1 C1         -0.8790    0.6670   -1.3560 c3        1 ITS      0.215100
      2 O1         -1.3100    0.4690   -2.6830 os        1 ITS     -0.615200
      3 C2          0.6350    0.6900   -1.3300 c3        1 ITS      0.111100
      4 O2          1.1180   -0.4590   -1.9820 oh        1 ITS     -0.654800
      5 C3          1.1920    0.7190    0.0870 c3        1 ITS      0.188600
      6 O3          2.5920    0.5670    0.0300 os        1 ITS     -0.598700
      7 C4          0.6140   -0.3790    0.9580 c3        1 ITS      0.237100
      8 O4          1.0970   -1.6310    0.4950 os        1 ITS     -0.609200
      9 C5         -0.9050   -0.4020    0.9310 c3        1 ITS      0.188600
     10 O5         -1.3670   -1.5580    1.6310 os        1 ITS     -0.598700
     11 C6         -1.4590   -0.4310   -0.4830 c3        1 ITS      0.111100
     12 O6         -2.8790   -0.2740   -0.4270 oh        1 ITS     -0.654800
     13 P1         -2.1110    1.6290   -3.3920 p5        1 ITS      1.380900
     14 OP1        -1.2060    2.7990   -3.6070 o         1 ITS     -0.986833
     15 OP2        -2.6320    1.1410   -4.7240 o         1 ITS     -0.986833
     16 OP3        -3.2700    2.0450   -2.5210 o         1 ITS     -0.986833
     17 P3          3.5030    1.8030    0.4390 p5        1 ITS      1.362400
     18 O10         3.1530    2.9960   -0.4270 o         1 ITS     -0.978667
     19 O11         4.9520    1.4440    0.2390 o         1 ITS     -0.978667
     20 O12         3.2630    2.1500    1.8970 o         1 ITS     -0.978667
     21 P4          1.9560   -2.5250    1.4850 p5        1 ITS      1.387900
     22 OP4         1.3800   -3.9490    1.5190 o         1 ITS     -0.978167
     23 OP5         3.4170   -2.5720    0.9980 o         1 ITS     -0.978167
     24 OP6         1.9090   -1.9300    2.8700 o         1 ITS     -0.978167
     25 P5         -2.3030   -1.3520    2.9050 p5        1 ITS      1.362400
     26 OP7        -3.3890   -0.3360    2.5790 o         1 ITS     -0.978667
     27 OP8        -2.9490   -2.6850    3.2820 o         1 ITS     -0.978667
     28 OP9        -1.4580   -0.8390    4.0850 o         1 ITS     -0.978667
     29 H1         -1.2150    1.5390   -1.0380 h1        1 ITS      0.005700
     30 H2          0.9510    1.4910   -1.8160 h1        1 ITS      0.037700
     31 HO          1.4700   -0.2280   -2.7760 ho        1 ITS      0.429500
     32 H3          0.9820    1.5940    0.4950 h1        1 ITS     -0.004300
     33 H4          0.9180   -0.2430    1.8900 h1        1 ITS      0.020700
     34 H5         -1.2440    0.4090    1.3910 h1        1 ITS     -0.004300
     35 H6         -1.2450   -1.3260   -0.9000 h1        1 ITS      0.037700
     36 HO6        -3.2820   -1.0330   -0.7420 ho        1 ITS      0.429500
@<TRIPOS>BOND
     1    1    2 1   
     2    1    3 1   
     3    1   11 1   
     4    1   29 1   
     5    2   13 1   
     6    3    4 1   
     7    3    5 1   
     8    3   30 1   
     9    4   31 1   
    10    5    6 1   
    11    5    7 1   
    12    5   32 1   
    13    6   17 1   
    14    7    8 1   
    15    7    9 1   
    16    7   33 1   
    17    8   21 1   
    18    9   10 1   
    19    9   11 1   
    20    9   34 1   
    21   10   25 1   
    22   11   12 1   
    23   11   35 1   
    24   12   36 1   
    25   13   14 1   
    26   13   15 1   
    27   13   16 1   
    28   17   18 1   
    29   17   19 1   
    30   17   20 1   
    31   21   22 1   
    32   21   23 1   
    33   21   24 1   
    34   25   26 1   
    35   25   27 1   
    36   25   28 1   
@<TRIPOS>SUBSTRUCTURE
     1 ITS         1 TEMP              0 ****  ****    0 ROOT
