@<TRIPOS>MOLECULE
ITS
   36    36     1     0     0
SMALL
bcc


@<TRIPOS>ATOM
      1 C1         -0.0140    0.1210    0.0710 c3        1 ITS      0.215100
      2 O1         -0.3460    0.0660   -1.2900 os        1 ITS     -0.615200
      3 C2          1.5340    0.3040    0.2580 c3        1 ITS      0.111100
      4 O2          2.2530   -0.5110   -0.6520 oh        1 ITS     -0.654800
      5 C3          2.0320    0.1190    1.7330 c3        1 ITS      0.188600
      6 O3          3.3820    0.4430    1.8740 os        1 ITS     -0.598700
      7 C4          1.6410   -1.3370    2.2790 c3        1 ITS      0.237100
      8 O4          2.1460   -2.3970    1.5350 os        1 ITS     -0.609200
      9 C5          0.0470   -1.2530    2.2980 c3        1 ITS      0.188600
     10 O5         -0.5920   -2.2720    3.0090 os        1 ITS     -0.598700
     11 C6         -0.4440   -1.1870    0.8130 c3        1 ITS      0.111100
     12 O6         -1.8570   -1.3260    0.7160 oh        1 ITS     -0.654800
     13 P1         -1.2620    1.1350   -2.2360 p5        1 ITS      1.380900
     14 OP1        -0.3240    1.7260   -3.2860 o         1 ITS     -0.986833
     15 OP2        -2.3040    0.2920   -2.9680 o         1 ITS     -0.986833
     16 OP3        -1.9050    2.2310   -1.4080 o         1 ITS     -0.986833
     17 P3          4.0100    1.9050    2.4860 p5        1 ITS      1.362400
     18 O10         4.8650    1.5950    3.7090 o         1 ITS     -0.978667
     19 O11         4.9160    2.4820    1.4010 o         1 ITS     -0.978667
     20 O12         2.8880    2.8600    2.8410 o         1 ITS     -0.978667
     21 P4          3.1020   -3.7470    2.0230 p5        1 ITS      1.387900
     22 OP4         2.3400   -5.0020    1.6190 o         1 ITS     -0.978167
     23 OP5         4.3680   -3.7060    1.1770 o         1 ITS     -0.978167
     24 OP6         3.4230   -3.7330    3.5030 o         1 ITS     -0.978167
     25 P5         -1.8020   -2.0800    4.1880 p5        1 ITS      1.362400
     26 OP7        -2.2580   -3.4880    4.5610 o         1 ITS     -0.978667
     27 OP8        -1.2980   -1.3530    5.4200 o         1 ITS     -0.978667
     28 OP9        -2.9440   -1.3310    3.5210 o         1 ITS     -0.978667
     29 H1         -0.5390    1.0000    0.5390 h1        1 ITS      0.005700
     30 H2          1.7800    1.3520   -0.0760 h1        1 ITS      0.037700
     31 HO          2.2980   -1.3880   -0.2480 ho        1 ITS      0.429500
     32 H3          1.4480    0.8610    2.3590 h1        1 ITS     -0.004300
     33 H4          2.0030   -1.4220    3.3380 h1        1 ITS      0.020700
     34 H5         -0.2320   -0.2790    2.8010 h1        1 ITS     -0.004300
     35 H6         -0.0010   -2.0600    0.2600 h1        1 ITS      0.037700
     36 HO6        -2.2090   -1.3040    1.6250 ho        1 ITS      0.429500
@<TRIPOS>BOND
     1    1    2 1   
     2    1    3 1   
     3    1   11 1   
     4    1   29 1   
     5    2   13 1   
     6    3    4 1   
     7    3    5 1   
     8    3   30 1   
     9    4   31 1   
    10    5    6 1   
    11    5    7 1   
    12    5   32 1   
    13    6   17 1   
    14    7    8 1   
    15    7    9 1   
    16    7   33 1   
    17    8   21 1   
    18    9   10 1   
    19    9   11 1   
    20    9   34 1   
    21   10   25 1   
    22   11   12 1   
    23   11   35 1   
    24   12   36 1   
    25   13   14 1   
    26   13   15 1   
    27   13   16 1   
    28   17   18 1   
    29   17   19 1   
    30   17   20 1   
    31   21   22 1   
    32   21   23 1   
    33   21   24 1   
    34   25   26 1   
    35   25   27 1   
    36   25   28 1   
@<TRIPOS>SUBSTRUCTURE
     1 ITS         1 TEMP              0 ****  ****    0 ROOT
