@<TRIPOS>MOLECULE
ITS
   36    36     1     0     0
SMALL
bcc


@<TRIPOS>ATOM
      1 C1         -0.2540   -0.3340    1.9300 c3        1 ITS      0.215100
      2 O1         -0.4080   -1.2600    2.9710 os        1 ITS     -0.615200
      3 C2         -1.4440   -0.4390    0.9110 c3        1 ITS      0.111100
      4 O2         -1.7750   -1.7940    0.6590 oh        1 ITS     -0.654800
      5 C3         -1.2310    0.3710   -0.4150 c3        1 ITS      0.188600
      6 O3         -2.3740    0.3720   -1.2150 os        1 ITS     -0.598700
      7 C4          0.1000   -0.1170   -1.1630 c3        1 ITS      0.237100
      8 O4          0.1250   -1.4670   -1.4930 os        1 ITS     -0.609200
      9 C5          1.2300    0.3220   -0.1250 c3        1 ITS      0.188600
     10 O5          2.5340    0.2980   -0.6230 os        1 ITS     -0.598700
     11 C6          1.0800   -0.5750    1.1490 c3        1 ITS      0.111100
     12 O6          2.1730   -0.4080    2.0460 oh        1 ITS     -0.654800
     13 P1         -0.6730   -1.0090    4.6270 p5        1 ITS      1.380900
     14 OP1        -0.5910    0.4560    5.0090 o         1 ITS     -0.986833
     15 OP2        -2.0500   -1.5810    4.9560 o         1 ITS     -0.986833
     16 OP3         0.3650   -1.8470    5.3700 o         1 ITS     -0.986833
     17 P3         -3.5160    1.6320   -1.3410 p5        1 ITS      1.362400
     18 O10        -3.5720    2.0970   -2.7920 o         1 ITS     -0.978667
     19 O11        -4.8720    1.0340   -0.9770 o         1 ITS     -0.978667
     20 O12        -3.1470    2.7800   -0.4220 o         1 ITS     -0.978667
     21 P4          0.3820   -2.2400   -3.0140 p5        1 ITS      1.387900
     22 OP4         1.5650   -3.1840   -2.8410 o         1 ITS     -0.978167
     23 OP5        -0.8430   -3.1080   -3.2690 o         1 ITS     -0.978167
     24 OP6         0.6080   -1.2540   -4.1410 o         1 ITS     -0.978167
     25 P5          3.6860    1.5460   -0.5080 p5        1 ITS      1.362400
     26 OP7         4.9810    0.9810   -1.0860 o         1 ITS     -0.978667
     27 OP8         3.2710    2.7860   -1.2760 o         1 ITS     -0.978667
     28 OP9         3.8670    1.8340    0.9730 o         1 ITS     -0.978667
     29 H1         -0.2440    0.7050    2.3640 h1        1 ITS      0.005700
     30 H2         -2.3570   -0.0370    1.4360 h1        1 ITS      0.037700
     31 HO         -1.1560   -2.1000   -0.0170 ho        1 ITS      0.429500
     32 H3         -1.0460    1.4440   -0.1030 h1        1 ITS     -0.004300
     33 H4          0.2200    0.4940   -2.0970 h1        1 ITS      0.020700
     34 H5          1.0130    1.3910    0.1750 h1        1 ITS     -0.004300
     35 H6          1.1000   -1.6510    0.8230 h1        1 ITS      0.037700
     36 HO6         2.7080    0.3340    1.7080 ho        1 ITS      0.429500
@<TRIPOS>BOND
     1    1    2 1   
     2    1    3 1   
     3    1   11 1   
     4    1   29 1   
     5    2   13 1   
     6    3    4 1   
     7    3    5 1   
     8    3   30 1   
     9    4   31 1   
    10    5    6 1   
    11    5    7 1   
    12    5   32 1   
    13    6   17 1   
    14    7    8 1   
    15    7    9 1   
    16    7   33 1   
    17    8   21 1   
    18    9   10 1   
    19    9   11 1   
    20    9   34 1   
    21   10   25 1   
    22   11   12 1   
    23   11   35 1   
    24   12   36 1   
    25   13   14 1   
    26   13   15 1   
    27   13   16 1   
    28   17   18 1   
    29   17   19 1   
    30   17   20 1   
    31   21   22 1   
    32   21   23 1   
    33   21   24 1   
    34   25   26 1   
    35   25   27 1   
    36   25   28 1   
@<TRIPOS>SUBSTRUCTURE
     1 ITS         1 TEMP              0 ****  ****    0 ROOT
