@<TRIPOS>MOLECULE
ITS
   36    36     1     0     0
SMALL
bcc


@<TRIPOS>ATOM
      1 C1         -0.0090    0.1270    0.0710 c3        1 ITS      0.215100
      2 O1         -0.3370    0.0770   -1.2920 os        1 ITS     -0.615200
      3 C2          1.5380    0.3080    0.2640 c3        1 ITS      0.111100
      4 O2          2.2600   -0.5040   -0.6470 oh        1 ITS     -0.654800
      5 C3          2.0310    0.1170    1.7400 c3        1 ITS      0.188600
      6 O3          3.3810    0.4400    1.8860 os        1 ITS     -0.598700
      7 C4          1.6380   -1.3400    2.2780 c3        1 ITS      0.237100
      8 O4          2.1440   -2.3970    1.5320 os        1 ITS     -0.609200
      9 C5          0.0440   -1.2560    2.2930 c3        1 ITS      0.188600
     10 O5         -0.5970   -2.2780    2.9980 os        1 ITS     -0.598700
     11 C6         -0.4430   -1.1840    0.8070 c3        1 ITS      0.111100
     12 O6         -1.8550   -1.3220    0.7050 oh        1 ITS     -0.654800
     13 P1         -1.2500    1.1500   -2.2360 p5        1 ITS      1.380900
     14 OP1        -0.3090    1.7440   -3.2810 o         1 ITS     -0.986833
     15 OP2        -2.2900    0.3100   -2.9750 o         1 ITS     -0.986833
     16 OP3        -1.8950    2.2430   -1.4060 o         1 ITS     -0.986833
     17 P3          4.0070    1.9000    2.5060 p5        1 ITS      1.362900
     18 O10         4.8590    1.5850    3.7300 o         1 ITS     -0.978667
     19 O11         4.9160    2.4810    1.4250 o         1 ITS     -0.978667
     20 O12         2.8840    2.8540    2.8610 o         1 ITS     -0.978667
     21 P4          3.0990   -3.7500    2.0180 p5        1 ITS      1.387900
     22 OP4         2.3380   -5.0030    1.6070 o         1 ITS     -0.978167
     23 OP5         4.3680   -3.7060    1.1760 o         1 ITS     -0.978167
     24 OP6         3.4160   -3.7420    3.4990 o         1 ITS     -0.978167
     25 P5         -1.8120   -2.0890    4.1740 p5        1 ITS      1.362900
     26 OP7        -2.2710   -3.4990    4.5380 o         1 ITS     -0.978667
     27 OP8        -1.3100   -1.3700    5.4110 o         1 ITS     -0.978667
     28 OP9        -2.9500   -1.3350    3.5070 o         1 ITS     -0.978667
     29 H1         -0.5350    1.0040    0.5410 h1        1 ITS      0.005700
     30 H2          1.7850    1.3580   -0.0650 h1        1 ITS      0.037700
     31 HO          2.3030   -1.3820   -0.2460 ho        1 ITS      0.429500
     32 H3          1.4460    0.8580    2.3660 h1        1 ITS     -0.004300
     33 H4          1.9970   -1.4290    3.3390 h1        1 ITS      0.020700
     34 H5         -0.2360   -0.2830    2.7990 h1        1 ITS     -0.004300
     35 H6          0.0010   -2.0550    0.2520 h1        1 ITS      0.037700
     36 HO6        -2.2100   -1.3030    1.6130 ho        1 ITS      0.429500
@<TRIPOS>BOND
     1    1    2 1   
     2    1    3 1   
     3    1   11 1   
     4    1   29 1   
     5    2   13 1   
     6    3    4 1   
     7    3    5 1   
     8    3   30 1   
     9    4   31 1   
    10    5    6 1   
    11    5    7 1   
    12    5   32 1   
    13    6   17 1   
    14    7    8 1   
    15    7    9 1   
    16    7   33 1   
    17    8   21 1   
    18    9   10 1   
    19    9   11 1   
    20    9   34 1   
    21   10   25 1   
    22   11   12 1   
    23   11   35 1   
    24   12   36 1   
    25   13   14 1   
    26   13   15 1   
    27   13   16 1   
    28   17   18 1   
    29   17   19 1   
    30   17   20 1   
    31   21   22 1   
    32   21   23 1   
    33   21   24 1   
    34   25   26 1   
    35   25   27 1   
    36   25   28 1   
@<TRIPOS>SUBSTRUCTURE
     1 ITS         1 TEMP              0 ****  ****    0 ROOT
