@<TRIPOS>MOLECULE
ITT
   42    44     1     0     0
SMALL
bcc


@<TRIPOS>ATOM
      1 PG          0.0000    0.0000    0.0000 p5        1 ITT      0.781900
      2 O1G         1.4800    0.0000    0.0000 o         1 ITT     -0.628167
      3 O2G        -0.5360    0.0000    1.5180 o         1 ITT     -0.628167
      4 O3G        -0.5370   -1.3140   -0.7590 o         1 ITT     -0.628167
      5 PB          0.3350    1.4640   -2.1040 p5        1 ITT      0.977800
      6 O1B         1.7470    1.1280   -1.8160 o         1 ITT     -0.459000
      7 O2B        -0.2370    0.4630   -3.2270 o         1 ITT     -0.459000
      8 O3B        -0.5370    1.3140   -0.7580 os        1 ITT     -0.463800
      9 PA          1.4200    3.1660   -3.7180 p5        1 ITT      0.930800
     10 O1A         2.6390    2.4730   -3.2440 o         1 ITT     -0.653000
     11 O2A         0.9590    2.5380   -5.1270 o         1 ITT     -0.653000
     12 O3A         0.2420    2.9800   -2.6380 os        1 ITT     -0.477800
     13 O5'         1.7330    4.7340   -3.9060 os        1 ITT     -0.465200
     14 C5'         2.8590    4.8290   -4.7810 c3        1 ITT      0.248400
     15 C4'         3.2120    6.3010   -5.0020 c3        1 ITT      0.147100
     16 O4'         3.6830    6.8970   -3.7720 os        1 ITT     -0.360600
     17 C3'         4.3970    6.4370   -5.9830 c3        1 ITT      0.123100
     18 O3'         3.9270    6.7270   -7.3000 oh        1 ITT     -0.569800
     19 C2'         5.2160    7.6220   -5.4260 c3        1 ITT      0.109100
     20 O2'         5.2800    8.6810   -6.3830 oh        1 ITT     -0.554800
     21 C1'         4.4290    8.0670   -4.1740 c3        1 ITT      0.157800
     22 N9          5.3490    8.4780   -3.1110 na        1 ITT      0.173000
     23 C8          5.8040    7.6960   -2.0910 cc        1 ITT      0.022700
     24 N7          6.6070    8.3810   -1.3290 nd        1 ITT     -0.523100
     25 C5          6.7190    9.6430   -1.8110 ca        1 ITT     -0.220200
     26 C6          7.4240   10.7900   -1.4180 ca        1 ITT      0.339600
     27 O6          8.2160   10.7730   -0.3180 oh        1 ITT     -0.602300
     28 N1          7.2970   11.8910   -2.1470 nb        1 ITT     -0.670000
     29 C2          6.5280   11.9170   -3.2200 ca        1 ITT      0.389900
     30 N3          5.8480   10.8660   -3.6270 nb        1 ITT     -0.813000
     31 C4          5.9170    9.7180   -2.9630 ca        1 ITT      0.299800
     32 H5'1        2.6180    4.3690   -5.7320 h1        1 ITT      0.008700
     33 H5'2        3.7050    4.3180   -4.3380 h1        1 ITT      0.008700
     34 H4'         2.3540    6.8460   -5.3760 h1        1 ITT      0.021700
     35 H3'         4.9940    5.5330   -5.9790 h1        1 ITT      0.010700
     36 H1          4.3340    6.1410   -7.9160 ho        1 ITT      0.361000
     37 H2'         6.2110    7.2950   -5.1480 h1        1 ITT      0.017700
     38 H3          6.1590    8.7510   -6.7160 ho        1 ITT      0.364000
     39 H1'         3.7510    8.8740   -4.4250 h2        1 ITT      0.037700
     40 H8          5.5350    6.6580   -1.9370 h5        1 ITT      0.032800
     41 HO6         8.0320   11.5310    0.2120 ho        1 ITT      0.323000
     42 H2          6.4530   12.8370   -3.7860 h5        1 ITT     -0.058900
@<TRIPOS>BOND
     1    1    2 1   
     2    1    3 1   
     3    1    4 1   
     4    1    8 1   
     5    5    6 1   
     6    5    7 1   
     7    5    8 1   
     8    5   12 1   
     9    9   10 1   
    10    9   11 1   
    11    9   12 1   
    12    9   13 1   
    13   13   14 1   
    14   14   15 1   
    15   14   32 1   
    16   14   33 1   
    17   15   16 1   
    18   15   17 1   
    19   15   34 1   
    20   16   21 1   
    21   17   18 1   
    22   17   19 1   
    23   17   35 1   
    24   18   36 1   
    25   19   20 1   
    26   19   21 1   
    27   19   37 1   
    28   20   38 1   
    29   21   22 1   
    30   21   39 1   
    31   22   23 1   
    32   22   31 1   
    33   23   24 2   
    34   23   40 1   
    35   24   25 1   
    36   25   26 ar  
    37   25   31 ar  
    38   26   27 1   
    39   26   28 ar  
    40   27   41 1   
    41   28   29 ar  
    42   29   30 ar  
    43   29   42 1   
    44   30   31 ar  
@<TRIPOS>SUBSTRUCTURE
     1 ITT         1 TEMP              0 ****  ****    0 ROOT
