@<TRIPOS>MOLECULE
ITU
   15    14     1     0     0
SMALL
bcc


@<TRIPOS>ATOM
      1 C1          0.0030    0.1490    0.1410 c3        1 ITU     -0.109100
      2 C2          1.4760    0.0000   -0.1090 c3        1 ITU     -0.003300
      3 S           2.2030    0.0940    1.5130 ss        1 ITU     -0.183300
      4 C3          3.8910   -0.0790    1.2190 c2        1 ITU      0.522100
      5 N1          4.6530   -0.0210    2.5150 nz        1 ITU     -0.816600
      6 N2          4.6080   -0.2400    0.1720 n2        1 ITU     -0.737100
      7 H11        -0.3850   -0.6730    0.7930 hc        1 ITU      0.077700
      8 H12        -0.5430    0.1030   -0.8370 hc        1 ITU      0.077700
      9 H13        -0.2310    1.1320    0.6210 hc        1 ITU      0.077700
     10 H21         1.7050   -0.9820   -0.5890 h1        1 ITU      0.088700
     11 H22         1.8580    0.8220   -0.7620 h1        1 ITU      0.088700
     12 HN11        4.3210   -0.7780    3.1230 hn        1 ITU      0.476467
     13 HN12        4.4700    0.8850    2.9620 hn        1 ITU      0.476467
     14 HN2         4.1780   -0.2880   -0.7270 hn        1 ITU      0.488400
     15 H131        5.6670   -0.1260    2.3670 hn        1 ITU      0.476467
@<TRIPOS>BOND
     1    1    2 1   
     2    1    7 1   
     3    1    8 1   
     4    1    9 1   
     5    2    3 1   
     6    2   10 1   
     7    2   11 1   
     8    3    4 1   
     9    4    5 1   
    10    4    6 2   
    11    5   12 1   
    12    5   13 1   
    13    5   15 1   
    14    6   14 1   
@<TRIPOS>SUBSTRUCTURE
     1 ITU         1 TEMP              0 ****  ****    0 ROOT
