@<TRIPOS>MOLECULE
ITU
   14    12     1     0     0
SMALL
bcc


@<TRIPOS>ATOM
      1 C1         -2.3610    0.0890   -0.7720 c3        1 ITU     -0.091100
      2 C2         -0.8480    0.0890   -0.7720 c3        1 ITU      0.006700
      3 S          -0.2570    0.0890    0.9000 ss        1 ITU     -0.355700
      4 C3          1.5160    0.1100    0.9000 c2        1 ITU      0.299600
      5 N1          2.2400   -1.1100    0.9070 nh        1 ITU     -0.821600
      6 N2          2.1570    1.2490    0.8940 n1        1 ITU     -0.279000
      7 H11        -2.6860    0.8970   -0.3300 hc        1 ITU      0.049700
      8 H12        -2.6860    0.0670   -1.6920 hc        1 ITU      0.049700
      9 H13        -2.6860   -0.6970   -0.2930 hc        1 ITU      0.049700
     10 H21        -0.5220    0.8860   -1.2320 h1        1 ITU      0.068700
     11 H22        -0.5220   -0.7080   -1.2320 h1        1 ITU      0.068700
     12 HN11        2.0800   -1.7320    1.5550 hn        1 ITU      0.392800
     13 HN12        2.8830   -1.2620    0.2790 hn        1 ITU      0.392800
     14 HN2         1.6910    2.0340    0.8890 DU        1 ITU      0.169000
@<TRIPOS>BOND
     1    1    2 1   
     2    1    7 1   
     3    1    8 1   
     4    1    9 1   
     5    2    3 1   
     6    2   10 1   
     7    2   11 1   
     8    3    4 1   
     9    4    5 1   
    10    4    6 2   
    11    5   12 1   
    12    5   13 1   
@<TRIPOS>SUBSTRUCTURE
     1 ITU         1 TEMP              0 ****  ****    0 ROOT
