@<TRIPOS>MOLECULE
ITU
   15    14     1     0     0
SMALL
bcc


@<TRIPOS>ATOM
      1 C1          0.0040   -0.1620    0.1400 c3        1 ITU     -0.109100
      2 C2          1.4770   -0.0120   -0.1100 c3        1 ITU     -0.003300
      3 S           2.2020   -0.0880    1.5140 ss        1 ITU     -0.183300
      4 C3          3.8900    0.0860    1.2190 c2        1 ITU      0.522100
      5 N1          4.6510    0.0420    2.5170 n4        1 ITU     -0.816600
      6 N2          4.6080    0.2390    0.1730 n2        1 ITU     -0.737100
      7 H11        -0.5400   -0.1260   -0.8390 hc        1 ITU      0.077700
      8 H12        -0.3860    0.6650    0.7830 hc        1 ITU      0.077700
      9 H13        -0.2280   -1.1410    0.6290 hc        1 ITU      0.077700
     10 H21         1.7040    0.9660   -0.6000 h1        1 ITU      0.088700
     11 H22         1.8620   -0.8390   -0.7550 h1        1 ITU      0.088700
     12 HN11        4.3150    0.8030    3.1190 hn        1 ITU      0.476467
     13 HN12        5.6650    0.1500    2.3690 hn        1 ITU      0.476467
     14 HN2         4.1800    0.2780   -0.7280 hn        1 ITU      0.488400
     15 H131        4.4710   -0.8610    2.9710 hn        1 ITU      0.476467
@<TRIPOS>BOND
     1    1    2 1   
     2    1    7 1   
     3    1    8 1   
     4    1    9 1   
     5    2    3 1   
     6    2   10 1   
     7    2   11 1   
     8    3    4 1   
     9    4    5 1   
    10    4    6 2   
    11    5   12 1   
    12    5   13 1   
    13    5   15 1   
    14    6   14 1   
@<TRIPOS>SUBSTRUCTURE
     1 ITU         1 TEMP              0 ****  ****    0 ROOT
