@<TRIPOS>MOLECULE
ITU
   14    13     1     0     0
SMALL
bcc


@<TRIPOS>ATOM
      1 C1         -0.0370   -0.0050    2.8160 c3        1 ITU     -0.094100
      2 C2          0.6790   -0.0030    1.4980 c3        1 ITU      0.005700
      3 S          -0.5860   -0.0020    0.2530 ss        1 ITU     -0.255300
      4 C3          0.2740    0.0330   -1.2820 c2        1 ITU      0.645100
      5 N1         -0.6060    0.1780   -2.3690 nh        1 ITU     -0.938800
      6 N2          1.5680   -0.0060   -1.2910 n2        1 ITU     -0.861100
      7 H11        -0.6840   -0.9110    2.9200 hc        1 ITU      0.048367
      8 H12         0.7080   -0.0110    3.6500 hc        1 ITU      0.048367
      9 H13        -0.6790    0.9030    2.9260 hc        1 ITU      0.048367
     10 H21         1.3290    0.8990    1.3920 h1        1 ITU      0.080200
     11 H22         1.3310   -0.9040    1.3900 h1        1 ITU      0.080200
     12 HN11       -0.2850   -0.1570   -3.2480 hn        1 ITU      0.401800
     13 HN12       -1.5600   -0.0310   -2.1770 hn        1 ITU      0.401800
     14 HN2         2.0230    0.0160   -2.1780 hn        1 ITU      0.391400
@<TRIPOS>BOND
     1    1    2 1   
     2    1    7 1   
     3    1    8 1   
     4    1    9 1   
     5    2    3 1   
     6    2   10 1   
     7    2   11 1   
     8    3    4 1   
     9    4    5 1   
    10    4    6 2   
    11    5   12 1   
    12    5   13 1   
    13    6   14 1   
@<TRIPOS>SUBSTRUCTURE
     1 ITU         1 TEMP              0 ****  ****    0 ROOT
