@<TRIPOS>MOLECULE
ITU
   15    14     1     0     0
SMALL
bcc


@<TRIPOS>ATOM
      1 C1          0.0020   -0.1140    0.1370 c3        1 ITU     -0.109100
      2 C2          1.4770    0.0170   -0.1100 c3        1 ITU     -0.003300
      3 S           2.2000   -0.0910    1.5120 ss        1 ITU     -0.183300
      4 C3          3.8920    0.0600    1.2210 c2        1 ITU      0.522100
      5 N1          4.6500   -0.0130    2.5180 n4        1 ITU     -0.816600
      6 N2          4.6120    0.2150    0.1760 n2        1 ITU     -0.737100
      7 H11        -0.2450   -1.0960    0.6130 hc        1 ITU      0.077700
      8 H12        -0.5410   -0.0570   -0.8420 hc        1 ITU      0.077700
      9 H13        -0.3760    0.7110    0.7910 hc        1 ITU      0.077700
     10 H21         1.8500   -0.8070   -0.7650 h1        1 ITU      0.088700
     11 H22         1.7200    0.9970   -0.5870 h1        1 ITU      0.088700
     12 HN11        4.3310    0.7490    3.1270 hn        1 ITU      0.476467
     13 HN12        5.6670    0.0740    2.3720 hn        1 ITU      0.476467
     14 HN2         4.1850    0.2730   -0.7230 hn        1 ITU      0.488400
     15 H131        4.4510   -0.9170    2.9630 hn        1 ITU      0.476467
@<TRIPOS>BOND
     1    1    2 1   
     2    1    7 1   
     3    1    8 1   
     4    1    9 1   
     5    2    3 1   
     6    2   10 1   
     7    2   11 1   
     8    3    4 1   
     9    4    5 1   
    10    4    6 2   
    11    5   12 1   
    12    5   13 1   
    13    5   15 1   
    14    6   14 1   
@<TRIPOS>SUBSTRUCTURE
     1 ITU         1 TEMP              0 ****  ****    0 ROOT
