@<TRIPOS>MOLECULE
IU
   32    33     1     0     0
SMALL
bcc


@<TRIPOS>ATOM
      1 P           3.2290   -1.2820   -3.8830 p5        1 IU       1.427800
      2 OP1         4.5490   -1.7090   -4.3940 o         1 IU      -0.843000
      3 OP2         2.4490   -0.8100   -5.2420 oh        1 IU      -0.779400
      4 OP3         2.3110   -2.0580   -3.0240 o         1 IU      -0.843000
      5 O5'         3.4230    0.2060   -3.2000 os        1 IU      -0.585200
      6 C5'         2.3470    0.7310   -2.4810 c3        1 IU       0.181400
      7 C4'         2.7250    0.8590   -0.9970 c3        1 IU       0.083100
      8 O4'         2.2480    2.1180   -0.4840 os        1 IU      -0.399600
      9 C3'         2.1520   -0.2740   -0.1210 c3        1 IU       0.111100
     10 O3'         3.1210   -0.7650    0.7850 oh        1 IU      -0.588800
     11 C2'         0.9580    0.3810    0.6000 c3        1 IU       0.069100
     12 O2'         0.9440   -0.0450    1.9500 oh        1 IU      -0.618800
     13 C1'         1.2480    1.9160    0.5200 c3        1 IU       0.298500
     14 N1          0.0600    2.7380    0.3310 n         1 IU      -0.326400
     15 C2         -0.6100    3.1030    1.5350 c         1 IU       0.707100
     16 O2         -0.2910    2.6440    2.6720 o         1 IU      -0.731100
     17 N3         -1.6850    3.9880    1.4440 n         1 IU      -0.588500
     18 C4         -2.1560    4.5080    0.2060 c         1 IU       0.693300
     19 O4         -3.1250    5.3010    0.2980 o         1 IU      -0.698100
     20 C5         -1.4560    4.0460   -0.9610 ce        1 IU      -0.394500
     21 C6         -0.3670    3.1800   -0.8910 c1        1 IU       0.010100
     22 I5         -2.0090    4.6320   -2.8000 i         1 IU      -0.183800
     23 H5'         2.1280    1.7650   -2.8740 h1        1 IU       0.053700
     24 H5''        1.4390    0.0810   -2.6050 h1        1 IU       0.053700
     25 H4'         3.8450    0.9070   -0.8980 h1        1 IU       0.074700
     26 H3'         1.8560   -1.1680   -0.7400 h1        1 IU       0.146700
     27 HO3'        3.2020   -0.1150    1.4940 ho        1 IU       0.390000
     28 H2'        -0.0060    0.1060    0.1000 h1        1 IU       0.073700
     29 HO2'        0.3770    0.5790    2.4290 ho        1 IU       0.428000
     30 H1'         1.7310    2.2440    1.4960 h2        1 IU       0.055700
     31 H3         -2.1460    4.2410    2.2860 hn        1 IU       0.305500
     32 H6          3.0590   -0.5800   -5.9310 ho        1 IU       0.418000
@<TRIPOS>BOND
     1    1    2 1   
     2    1    3 1   
     3    1    4 1   
     4    1    5 1   
     5    3   32 1   
     6    5    6 1   
     7    6    7 1   
     8    6   23 1   
     9    6   24 1   
    10    7    8 1   
    11    7    9 1   
    12    7   25 1   
    13    8   13 1   
    14    9   10 1   
    15    9   11 1   
    16    9   26 1   
    17   10   27 1   
    18   11   12 1   
    19   11   13 1   
    20   11   28 1   
    21   12   29 1   
    22   13   14 1   
    23   13   30 1   
    24   14   15 1   
    25   14   21 2   
    26   15   16 2   
    27   15   17 1   
    28   17   18 1   
    29   17   31 1   
    30   18   19 2   
    31   18   20 1   
    32   20   21 2   
    33   20   22 1   
@<TRIPOS>SUBSTRUCTURE
     1 IU          1 TEMP              0 ****  ****    0 ROOT
