@<TRIPOS>MOLECULE
IU5
   67    70     1     0     0
SMALL
bcc


@<TRIPOS>ATOM
      1 C1         -0.0580   -0.0520    0.1780 c3        1 IU5     -0.072400
      2 C10         1.4760    0.0080    0.1410 c3        1 IU5     -0.035000
      3 C11         1.5600   -0.9660   -2.2120 c3        1 IU5     -0.072400
      4 C12         2.1400   -2.0170   -3.1460 c3        1 IU5     -0.066400
      5 C13         3.6600   -1.9970   -3.1210 c3        1 IU5     -0.047000
      6 C14         4.0830   -2.1990   -1.6420 c3        1 IU5     -0.060700
      7 C15         5.5650   -2.5270   -1.7270 c3        1 IU5     -0.066400
      8 C16         5.7100   -3.2990   -3.0400 c3        1 IU5     -0.081400
      9 C17         4.3660   -3.2030   -3.7900 c3        1 IU5     -0.047700
     10 C18         4.1870   -0.6990   -3.7080 c3        1 IU5     -0.080100
     11 C19         1.8450    1.4140   -0.3260 c3        1 IU5     -0.088100
     12 O1A         5.5430   -1.0060    0.6410 oh        1 IU5     -0.591800
     13 O1B        -0.6780   -0.5280    3.0400 oh        1 IU5     -0.603800
     14 C2         -0.6120   -1.3120    0.7980 c3        1 IU5     -0.072400
     15 C20         4.5600   -3.1540   -5.3020 c3        1 IU5     -0.061700
     16 C21         3.2380   -3.0200   -6.0320 c3        1 IU5     -0.086100
     17 C22         5.2830   -4.4140   -5.7790 c3        1 IU5     -0.067400
     18 C23         5.8870   -4.2620   -7.1540 c3        1 IU5     -0.195400
     19 C24         6.8130   -5.4470   -7.4870 c         1 IU5      0.907600
     20 C3         -0.0790   -1.5200    2.2110 c3        1 IU5      0.143100
     21 C4          1.4430   -1.4590    2.2310 c3        1 IU5     -0.109400
     22 O4          7.6320   -5.8410   -6.6060 o         1 IU5     -0.852300
     23 O4A         6.7210   -5.9570   -8.6410 o         1 IU5     -0.852300
     24 C5          1.9910   -0.1980    1.5790 c3        1 IU5     -0.046700
     25 C6          3.5070   -0.1990    1.6280 c3        1 IU5     -0.109400
     26 C7          4.1330   -1.2160    0.6770 c3        1 IU5      0.146100
     27 C8          3.6180   -1.0570   -0.7570 c3        1 IU5     -0.041700
     28 C9          2.0780   -1.0630   -0.7810 c3        1 IU5     -0.046700
     29 HC11       -0.4650    0.0670   -0.8590 hc        1 IU5      0.046700
     30 HC12       -0.4220    0.8240    0.7820 hc        1 IU5      0.046700
     31 H111        0.4440   -1.0930   -2.2050 hc        1 IU5      0.036200
     32 H112        1.7790    0.0540   -2.6220 hc        1 IU5      0.036200
     33 H121        1.7660   -1.8230   -4.1850 hc        1 IU5      0.042200
     34 H122        1.7760   -3.0330   -2.8430 hc        1 IU5      0.042200
     35 H141        3.5640   -3.1330   -1.2720 hc        1 IU5      0.035700
     36 H151        5.8930   -3.1340   -0.8480 hc        1 IU5      0.040700
     37 H152        6.1790   -1.5920   -1.7310 hc        1 IU5      0.040700
     38 H161        5.9630   -4.3700   -2.8450 hc        1 IU5      0.054700
     39 H162        6.5350   -2.8650   -3.6580 hc        1 IU5      0.054700
     40 H171        3.7580   -4.1220   -3.5580 hc        1 IU5      0.040700
     41 H181        3.8610   -0.6000   -4.7720 hc        1 IU5      0.033700
     42 H182        5.3030   -0.6890   -3.6770 hc        1 IU5      0.033700
     43 H183        3.8090    0.1900   -3.1500 hc        1 IU5      0.033700
     44 H191        1.3300    1.6470   -1.2890 hc        1 IU5      0.035700
     45 H192        2.9450    1.5140   -0.4800 hc        1 IU5      0.035700
     46 H193        1.5250    2.1680    0.4340 hc        1 IU5      0.035700
     47 HOA1        5.8680   -1.1920    1.5290 ho        1 IU5      0.389000
     48 HOB1       -0.1470   -0.4720    3.8420 ho        1 IU5      0.395000
     49 HC21       -1.7310   -1.2420    0.8390 hc        1 IU5      0.050700
     50 HC22       -0.3420   -2.2080    0.1810 hc        1 IU5      0.050700
     51 H201        5.2030   -2.2640   -5.5530 hc        1 IU5      0.043700
     52 H211        2.4800   -3.7220   -5.6070 hc        1 IU5      0.025033
     53 H212        2.8390   -1.9800   -5.9590 hc        1 IU5      0.025033
     54 H213        3.3740   -3.2620   -7.1150 hc        1 IU5      0.025033
     55 H221        4.5620   -5.2730   -5.7780 hc        1 IU5      0.047700
     56 H222        6.1140   -4.6800   -5.0710 hc        1 IU5      0.047700
     57 H231        5.0910   -4.1910   -7.9360 hc        1 IU5      0.019700
     58 H232        6.5010   -3.3270   -7.2030 hc        1 IU5      0.019700
     59 HC31       -0.4090   -2.5300    2.5940 h1        1 IU5      0.027700
     60 HC41        1.8380   -2.3680    1.7070 hc        1 IU5      0.045200
     61 HC42        1.8010   -1.5030    3.2940 hc        1 IU5      0.045200
     62 HC51        1.6210    0.6760    2.1910 hc        1 IU5      0.047700
     63 HC61        3.8900    0.8210    1.3620 hc        1 IU5      0.042200
     64 HC62        3.8480   -0.4200    2.6740 hc        1 IU5      0.042200
     65 HC71        3.9230   -2.2630    1.0390 h1        1 IU5      0.029700
     66 HC81        4.0150   -0.0850   -1.1560 hc        1 IU5      0.070700
     67 HC91        1.7460   -2.0660   -0.3810 hc        1 IU5      0.042700
@<TRIPOS>BOND
     1    1    2 1   
     2    1   14 1   
     3    1   29 1   
     4    1   30 1   
     5    2   11 1   
     6    2   24 1   
     7    2   28 1   
     8    3    4 1   
     9    3   28 1   
    10    3   31 1   
    11    3   32 1   
    12    4    5 1   
    13    4   33 1   
    14    4   34 1   
    15    5    6 1   
    16    5    9 1   
    17    5   10 1   
    18    6    7 1   
    19    6   27 1   
    20    6   35 1   
    21    7    8 1   
    22    7   36 1   
    23    7   37 1   
    24    8    9 1   
    25    8   38 1   
    26    8   39 1   
    27    9   15 1   
    28    9   40 1   
    29   10   41 1   
    30   10   42 1   
    31   10   43 1   
    32   11   44 1   
    33   11   45 1   
    34   11   46 1   
    35   12   26 1   
    36   12   47 1   
    37   13   20 1   
    38   13   48 1   
    39   14   20 1   
    40   14   49 1   
    41   14   50 1   
    42   15   16 1   
    43   15   17 1   
    44   15   51 1   
    45   16   52 1   
    46   16   53 1   
    47   16   54 1   
    48   17   18 1   
    49   17   55 1   
    50   17   56 1   
    51   18   19 1   
    52   18   57 1   
    53   18   58 1   
    54   19   22 1   
    55   19   23 1   
    56   20   21 1   
    57   20   59 1   
    58   21   24 1   
    59   21   60 1   
    60   21   61 1   
    61   24   25 1   
    62   24   62 1   
    63   25   26 1   
    64   25   63 1   
    65   25   64 1   
    66   26   27 1   
    67   26   65 1   
    68   27   28 1   
    69   27   66 1   
    70   28   67 1   
@<TRIPOS>SUBSTRUCTURE
     1 IU5         1 TEMP              0 ****  ****    0 ROOT
