@<TRIPOS>MOLECULE
IU5
   67    70     1     0     0
SMALL
bcc


@<TRIPOS>ATOM
      1 C1         -0.0540   -0.0430    0.1750 c3        1 IU5     -0.072400
      2 C10         1.4790    0.0100    0.1420 c3        1 IU5     -0.035000
      3 C11         1.5640   -0.9580   -2.2140 c3        1 IU5     -0.072400
      4 C12         2.1420   -2.0090   -3.1490 c3        1 IU5     -0.066400
      5 C13         3.6620   -1.9960   -3.1200 c3        1 IU5     -0.047000
      6 C14         4.0800   -2.2040   -1.6410 c3        1 IU5     -0.060700
      7 C15         5.5610   -2.5400   -1.7230 c3        1 IU5     -0.066400
      8 C16         5.7060   -3.3090   -3.0380 c3        1 IU5     -0.081400
      9 C17         4.3630   -3.2040   -3.7920 c3        1 IU5     -0.047700
     10 C18         4.1960   -0.6990   -3.7030 c3        1 IU5     -0.080100
     11 C19         1.8560    1.4150   -0.3200 c3        1 IU5     -0.088100
     12 O1A         5.5400   -1.0250    0.6490 oh        1 IU5     -0.591800
     13 O1B        -0.6840   -0.5240    3.0340 oh        1 IU5     -0.603800
     14 C2         -0.6160   -1.3020    0.7910 c3        1 IU5     -0.072400
     15 C20         4.5620   -3.1520   -5.3020 c3        1 IU5     -0.061700
     16 C21         3.2420   -3.0100   -6.0360 c3        1 IU5     -0.086100
     17 C22         5.2790   -4.4140   -5.7810 c3        1 IU5     -0.067400
     18 C23         5.8880   -4.2610   -7.1540 c3        1 IU5     -0.195400
     19 C24         6.8090   -5.4490   -7.4890 c         1 IU5      0.907600
     20 C3         -0.0870   -1.5170    2.2040 c3        1 IU5      0.143100
     21 C4          1.4340   -1.4630    2.2280 c3        1 IU5     -0.109400
     22 O4          7.6230   -5.8510   -6.6070 o         1 IU5     -0.852300
     23 O4A         6.7170   -5.9550   -8.6450 o         1 IU5     -0.852300
     24 C5          1.9910   -0.2030    1.5810 c3        1 IU5     -0.046700
     25 C6          3.5060   -0.2110    1.6330 c3        1 IU5     -0.109400
     26 C7          4.1300   -1.2290    0.6810 c3        1 IU5      0.146100
     27 C8          3.6190   -1.0630   -0.7540 c3        1 IU5     -0.041700
     28 C9          2.0790   -1.0620   -0.7820 c3        1 IU5     -0.046700
     29 HC11       -0.4590    0.0810   -0.8620 hc        1 IU5      0.046700
     30 HC12       -0.4160    0.8330    0.7810 hc        1 IU5      0.046700
     31 H111        0.4480   -1.0800   -2.2090 hc        1 IU5      0.036200
     32 H112        1.7900    0.0620   -2.6200 hc        1 IU5      0.036200
     33 H121        1.7730   -3.0250   -2.8490 hc        1 IU5      0.042200
     34 H122        1.7720   -1.8110   -4.1880 hc        1 IU5      0.042200
     35 H141        3.5560   -3.1370   -1.2750 hc        1 IU5      0.035700
     36 H151        6.1790   -1.6080   -1.7230 hc        1 IU5      0.040700
     37 H152        5.8840   -3.1500   -0.8450 hc        1 IU5      0.040700
     38 H161        6.5340   -2.8760   -3.6540 hc        1 IU5      0.054700
     39 H162        5.9530   -4.3810   -2.8460 hc        1 IU5      0.054700
     40 H171        3.7500   -4.1200   -3.5630 hc        1 IU5      0.040700
     41 H181        3.8210    0.1900   -3.1430 hc        1 IU5      0.033700
     42 H182        3.8730   -0.5960   -4.7680 hc        1 IU5      0.033700
     43 H183        5.3130   -0.6950   -3.6680 hc        1 IU5      0.033700
     44 H191        1.5390    2.1690    0.4410 hc        1 IU5      0.035700
     45 H192        1.3450    1.6530   -1.2830 hc        1 IU5      0.035700
     46 H193        2.9570    1.5110   -0.4720 hc        1 IU5      0.035700
     47 HOA1        5.8630   -1.2150    1.5370 ho        1 IU5      0.389000
     48 HOB1       -0.1550   -0.4730    3.8380 ho        1 IU5      0.395000
     49 HC21       -0.3480   -2.1970    0.1720 hc        1 IU5      0.050700
     50 HC22       -1.7340   -1.2270    0.8290 hc        1 IU5      0.050700
     51 H201        5.2090   -2.2640   -5.5500 hc        1 IU5      0.043700
     52 H211        2.4800   -3.7090   -5.6150 hc        1 IU5      0.025033
     53 H212        3.3800   -3.2490   -7.1190 hc        1 IU5      0.025033
     54 H213        2.8470   -1.9680   -5.9600 hc        1 IU5      0.025033
     55 H221        4.5540   -5.2690   -5.7850 hc        1 IU5      0.047700
     56 H222        6.1070   -4.6860   -5.0720 hc        1 IU5      0.047700
     57 H231        5.0940   -4.1840   -7.9380 hc        1 IU5      0.019700
     58 H232        6.5070   -3.3290   -7.1990 hc        1 IU5      0.019700
     59 HC31       -0.4230   -2.5260    2.5830 h1        1 IU5      0.027700
     60 HC41        1.7900   -1.5120    3.2910 hc        1 IU5      0.045200
     61 HC42        1.8270   -2.3720    1.7020 hc        1 IU5      0.045200
     62 HC51        1.6230    0.6710    2.1950 hc        1 IU5      0.047700
     63 HC61        3.8440   -0.4370    2.6790 hc        1 IU5      0.042200
     64 HC62        3.8940    0.8080    1.3710 hc        1 IU5      0.042200
     65 HC71        3.9140   -2.2750    1.0400 h1        1 IU5      0.029700
     66 HC81        4.0210   -0.0920   -1.1490 hc        1 IU5      0.070700
     67 HC91        1.7420   -2.0640   -0.3850 hc        1 IU5      0.042700
@<TRIPOS>BOND
     1    1    2 1   
     2    1   14 1   
     3    1   29 1   
     4    1   30 1   
     5    2   11 1   
     6    2   24 1   
     7    2   28 1   
     8    3    4 1   
     9    3   28 1   
    10    3   31 1   
    11    3   32 1   
    12    4    5 1   
    13    4   33 1   
    14    4   34 1   
    15    5    6 1   
    16    5    9 1   
    17    5   10 1   
    18    6    7 1   
    19    6   27 1   
    20    6   35 1   
    21    7    8 1   
    22    7   36 1   
    23    7   37 1   
    24    8    9 1   
    25    8   38 1   
    26    8   39 1   
    27    9   15 1   
    28    9   40 1   
    29   10   41 1   
    30   10   42 1   
    31   10   43 1   
    32   11   44 1   
    33   11   45 1   
    34   11   46 1   
    35   12   26 1   
    36   12   47 1   
    37   13   20 1   
    38   13   48 1   
    39   14   20 1   
    40   14   49 1   
    41   14   50 1   
    42   15   16 1   
    43   15   17 1   
    44   15   51 1   
    45   16   52 1   
    46   16   53 1   
    47   16   54 1   
    48   17   18 1   
    49   17   55 1   
    50   17   56 1   
    51   18   19 1   
    52   18   57 1   
    53   18   58 1   
    54   19   22 1   
    55   19   23 1   
    56   20   21 1   
    57   20   59 1   
    58   21   24 1   
    59   21   60 1   
    60   21   61 1   
    61   24   25 1   
    62   24   62 1   
    63   25   26 1   
    64   25   63 1   
    65   25   64 1   
    66   26   27 1   
    67   26   65 1   
    68   27   28 1   
    69   27   66 1   
    70   28   67 1   
@<TRIPOS>SUBSTRUCTURE
     1 IU5         1 TEMP              0 ****  ****    0 ROOT
