@<TRIPOS>MOLECULE
IU5
   67    70     1     0     0
SMALL
bcc


@<TRIPOS>ATOM
      1 C1          1.8410    0.2800   -4.2260 c3        1 IU5     -0.070400
      2 C10         0.5600    0.7180   -3.5030 c3        1 IU5     -0.035000
      3 C11         1.6740    0.5280   -1.2200 c3        1 IU5     -0.072400
      4 C12         1.6120   -0.0180    0.1980 c3        1 IU5     -0.066400
      5 C13         0.3120    0.3720    0.8820 c3        1 IU5     -0.047000
      6 C14        -0.8380   -0.1490   -0.0190 c3        1 IU5     -0.060700
      7 C15        -2.0690   -0.0580    0.8700 c3        1 IU5     -0.066400
      8 C16        -1.5440   -0.3410    2.2790 c3        1 IU5     -0.081400
      9 C17        -0.0030   -0.3650    2.2090 c3        1 IU5     -0.047700
     10 C18         0.2520    1.8740    1.0980 c3        1 IU5     -0.080100
     11 C19         0.5690    2.2440   -3.4920 c3        1 IU5     -0.088100
     12 O1A        -3.2120    0.6150   -1.6110 oh        1 IU5     -0.592800
     13 O1B         0.7180   -1.1730   -6.6240 oh        1 IU5     -0.604800
     14 C2          1.9150   -1.2070   -4.4830 c3        1 IU5     -0.111400
     15 C20         0.6330    0.1790    3.4830 c3        1 IU5     -0.061700
     16 C21         2.1470    0.1920    3.3910 c3        1 IU5     -0.086100
     17 C22         0.2010   -0.6610    4.6850 c3        1 IU5     -0.067400
     18 C23         0.4220    0.0410    6.0030 c3        1 IU5     -0.195400
     19 C24        -0.2400   -0.7310    7.1600 c         1 IU5      0.907600
     20 C3          0.7200   -1.6880   -5.2960 c3        1 IU5      0.143100
     21 C4         -0.5900   -1.2640   -4.6420 c3        1 IU5     -0.071400
     22 O4         -1.4190   -1.1620    7.0030 o         1 IU5     -0.852300
     23 O4A         0.4280   -0.8800    8.2240 o         1 IU5     -0.852300
     24 C5         -0.6420    0.2260   -4.3330 c3        1 IU5     -0.048700
     25 C6         -1.9560    0.5740   -3.6590 c3        1 IU5     -0.109400
     26 C7         -2.0430    0.0720   -2.2210 c3        1 IU5      0.145100
     27 C8         -0.8450    0.5240   -1.3790 c3        1 IU5     -0.040700
     28 C9          0.4730    0.1470   -2.0790 c3        1 IU5     -0.046700
     29 HC11        2.7380    0.6080   -3.6400 hc        1 IU5      0.042700
     30 HC12        1.8770    0.8110   -5.2160 hc        1 IU5      0.042700
     31 H111        2.6070    0.1290   -1.7000 hc        1 IU5      0.034700
     32 H112        1.7680    1.6450   -1.1810 hc        1 IU5      0.034700
     33 H121        1.6990   -1.1370    0.1750 hc        1 IU5      0.041700
     34 H122        2.4890    0.3740    0.7760 hc        1 IU5      0.041700
     35 H141       -0.6480   -1.2500   -0.1980 hc        1 IU5      0.035700
     36 H151       -2.8450   -0.7970    0.5570 hc        1 IU5      0.041700
     37 H152       -2.5320    0.9580    0.8010 hc        1 IU5      0.041700
     38 H161       -1.9240   -1.3230    2.6540 hc        1 IU5      0.054200
     39 H162       -1.8910    0.4490    2.9900 hc        1 IU5      0.054200
     40 H171        0.3360   -1.4320    2.0910 hc        1 IU5      0.040700
     41 H181        0.3280    2.4330    0.1350 hc        1 IU5      0.033367
     42 H182       -0.7100    2.1520    1.5930 hc        1 IU5      0.033367
     43 H183        1.0960    2.2010    1.7520 hc        1 IU5      0.033367
     44 H191        0.4890    2.6380   -4.5340 hc        1 IU5      0.035700
     45 H192       -0.2830    2.6500   -2.8970 hc        1 IU5      0.035700
     46 H193        1.5210    2.6220   -3.0460 hc        1 IU5      0.035700
     47 HOA1       -3.9630    0.2730   -2.1090 ho        1 IU5      0.390000
     48 HOB1        1.6330   -1.1670   -6.9270 ho        1 IU5      0.395000
     49 HC21        1.9420   -1.7680   -3.5130 hc        1 IU5      0.046200
     50 HC22        2.8630   -1.4430   -5.0340 hc        1 IU5      0.046200
     51 H201        0.2730    1.2340    3.6430 hc        1 IU5      0.043700
     52 H211        2.5240   -0.7690    2.9650 hc        1 IU5      0.025033
     53 H212        2.5060    1.0300    2.7480 hc        1 IU5      0.025033
     54 H213        2.5900    0.3230    4.4090 hc        1 IU5      0.025033
     55 H221       -0.8920   -0.9120    4.6140 hc        1 IU5      0.047200
     56 H222        0.7630   -1.6300    4.6760 hc        1 IU5      0.047200
     57 H231        1.5140    0.1530    6.2190 hc        1 IU5      0.019700
     58 H232       -0.0300    1.0640    5.9750 hc        1 IU5      0.019700
     59 HC31        0.7510   -2.8150   -5.3690 h1        1 IU5      0.028700
     60 HC41       -0.7200   -1.8640   -3.7050 hc        1 IU5      0.050700
     61 HC42       -1.4340   -1.5160   -5.3360 hc        1 IU5      0.050700
     62 HC51       -0.6030    0.7650   -5.3250 hc        1 IU5      0.056700
     63 HC61       -2.8040    0.1370   -4.2490 hc        1 IU5      0.043200
     64 HC62       -2.0900    1.6880   -3.6580 hc        1 IU5      0.043200
     65 HC71       -2.1090   -1.0530   -2.2080 h1        1 IU5      0.030700
     66 HC81       -0.9200    1.6370   -1.2480 hc        1 IU5      0.070700
     67 HC91        0.4820   -0.9780   -2.1750 hc        1 IU5      0.042700
@<TRIPOS>BOND
     1    1    2 1   
     2    1   14 1   
     3    1   29 1   
     4    1   30 1   
     5    2   11 1   
     6    2   24 1   
     7    2   28 1   
     8    3    4 1   
     9    3   28 1   
    10    3   31 1   
    11    3   32 1   
    12    4    5 1   
    13    4   33 1   
    14    4   34 1   
    15    5    6 1   
    16    5    9 1   
    17    5   10 1   
    18    6    7 1   
    19    6   27 1   
    20    6   35 1   
    21    7    8 1   
    22    7   36 1   
    23    7   37 1   
    24    8    9 1   
    25    8   38 1   
    26    8   39 1   
    27    9   15 1   
    28    9   40 1   
    29   10   41 1   
    30   10   42 1   
    31   10   43 1   
    32   11   44 1   
    33   11   45 1   
    34   11   46 1   
    35   12   26 1   
    36   12   47 1   
    37   13   20 1   
    38   13   48 1   
    39   14   20 1   
    40   14   49 1   
    41   14   50 1   
    42   15   16 1   
    43   15   17 1   
    44   15   51 1   
    45   16   52 1   
    46   16   53 1   
    47   16   54 1   
    48   17   18 1   
    49   17   55 1   
    50   17   56 1   
    51   18   19 1   
    52   18   57 1   
    53   18   58 1   
    54   19   22 1   
    55   19   23 1   
    56   20   21 1   
    57   20   59 1   
    58   21   24 1   
    59   21   60 1   
    60   21   61 1   
    61   24   25 1   
    62   24   62 1   
    63   25   26 1   
    64   25   63 1   
    65   25   64 1   
    66   26   27 1   
    67   26   65 1   
    68   27   28 1   
    69   27   66 1   
    70   28   67 1   
@<TRIPOS>SUBSTRUCTURE
     1 IU5         1 TEMP              0 ****  ****    0 ROOT
