@<TRIPOS>MOLECULE
IUP
   18    19     1     0     0
SMALL
bcc


@<TRIPOS>ATOM
      1 N1         -0.0220   -0.1260   -0.0900 n         1 IUP     -0.589500
      2 C2          1.3830   -0.0230   -0.0570 c         1 IUP      0.824500
      3 C6         -0.8350   -0.3560    1.0180 c         1 IUP      0.710500
      4 N3          2.0590    0.0070    1.1880 n         1 IUP     -0.453400
      5 O11         2.0380    0.0460   -1.1120 o         1 IUP     -0.590500
      6 C4          1.3230    0.0920    2.3530 c2        1 IUP      0.496900
      7 C5         -0.1100   -0.5810    2.3530 c3        1 IUP      0.060900
      8 N9          1.5810    0.7100    3.4890 ne        1 IUP     -0.591100
      9 O13        -2.0590   -0.4730    0.8940 o         1 IUP     -0.557500
     10 N7         -0.7160    0.0050    3.5360 n         1 IUP     -0.522900
     11 C8          0.3670    0.5950    4.3050 c         1 IUP      0.795900
     12 O24         0.2360    1.0090    5.4560 o         1 IUP     -0.518500
     13 O2          0.1350   -2.0270    2.4360 os        1 IUP     -0.187800
     14 O3         -0.8950   -2.6920    2.8100 oh        1 IUP     -0.373000
     15 H3         -1.4310   -2.9160    2.0110 ho        1 IUP      0.418000
     16 H31         3.0230    0.2740    1.1750 hn        1 IUP      0.373500
     17 H1         -0.4450   -0.0640   -0.9950 hn        1 IUP      0.365500
     18 H7         -1.3810   -0.5560    4.0220 hn        1 IUP      0.338500
@<TRIPOS>BOND
     1    1    2 1   
     2    1    3 1   
     3    1   17 1   
     4    2    4 1   
     5    2    5 2   
     6    3    7 1   
     7    3    9 2   
     8    4    6 1   
     9    4   16 1   
    10    6    7 1   
    11    6    8 2   
    12    7   10 1   
    13    7   13 1   
    14    8   11 1   
    15   10   11 1   
    16   10   18 1   
    17   11   12 2   
    18   13   14 1   
    19   14   15 1   
@<TRIPOS>SUBSTRUCTURE
     1 IUP         1 TEMP              0 ****  ****    0 ROOT
