@<TRIPOS>MOLECULE
IUP
   18    19     1     0     0
SMALL
bcc


@<TRIPOS>ATOM
      1 N1         -0.0320   -0.0290   -0.1460 ns        1 IUP     -0.590500
      2 C2          1.3740    0.0030   -0.1020 c         1 IUP      0.828500
      3 C6         -0.8660   -0.1900    0.9630 c         1 IUP      0.722500
      4 N3          2.0420    0.0280    1.1510 ns        1 IUP     -0.456400
      5 O11         2.0480    0.0370   -1.1470 o         1 IUP     -0.592500
      6 C4          1.3090    0.0570    2.3160 c2        1 IUP      0.500900
      7 C5         -0.1480   -0.5710    2.2660 c3        1 IUP      0.088900
      8 N9          1.5860    0.5740    3.4990 ne        1 IUP     -0.597100
      9 O13        -2.0890   -0.0830    0.8610 o         1 IUP     -0.537500
     10 N7         -0.7130   -0.0800    3.5010 ns        1 IUP     -0.573900
     11 C8          0.3690    0.4310    4.3060 c         1 IUP      0.809900
     12 O24         0.2400    0.7520    5.4890 o         1 IUP     -0.532500
     13 O2          0.0840   -2.0180    2.2350 os        1 IUP     -0.198800
     14 O3         -1.0000   -2.7000    2.3470 oh        1 IUP     -0.375000
     15 H3         -1.0190   -3.0790    3.2580 ho        1 IUP      0.416000
     16 H31         3.0150    0.2560    1.1480 hn        1 IUP      0.374500
     17 H1         -0.4460    0.0570   -1.0530 hn        1 IUP      0.366500
     18 H7         -1.5040   -0.5190    3.9020 hn        1 IUP      0.346500
@<TRIPOS>BOND
     1    1    2 1   
     2    1    3 1   
     3    1   17 1   
     4    2    4 1   
     5    2    5 2   
     6    3    7 1   
     7    3    9 2   
     8    4    6 1   
     9    4   16 1   
    10    6    7 1   
    11    6    8 2   
    12    7   10 1   
    13    7   13 1   
    14    8   11 1   
    15   10   11 1   
    16   10   18 1   
    17   11   12 2   
    18   13   14 1   
    19   14   15 1   
@<TRIPOS>SUBSTRUCTURE
     1 IUP         1 TEMP              0 ****  ****    0 ROOT
