@<TRIPOS>MOLECULE
IUP
   18    19     1     0     0
SMALL
bcc


@<TRIPOS>ATOM
      1 N1         -0.0360   -0.0180   -0.1430 n         1 IUP     -0.590500
      2 C2          1.3700    0.0110   -0.1020 c         1 IUP      0.828500
      3 C6         -0.8680   -0.1840    0.9670 c         1 IUP      0.722500
      4 N3          2.0400    0.0290    1.1480 n         1 IUP     -0.456400
      5 O11         2.0400    0.0500   -1.1490 o         1 IUP     -0.592500
      6 C4          1.3100    0.0530    2.3150 c2        1 IUP      0.500900
      7 C5         -0.1480   -0.5720    2.2660 c3        1 IUP      0.088900
      8 N9          1.5910    0.5640    3.5010 ne        1 IUP     -0.597100
      9 O13        -2.0920   -0.0740    0.8680 o         1 IUP     -0.537500
     10 N7         -0.7080   -0.0860    3.5050 n         1 IUP     -0.573900
     11 C8          0.3760    0.4190    4.3100 c         1 IUP      0.809900
     12 O24         0.2510    0.7340    5.4940 o         1 IUP     -0.532500
     13 O2          0.0830   -2.0190    2.2270 os        1 IUP     -0.198800
     14 O3         -1.0020   -2.7000    2.3380 oh        1 IUP     -0.375000
     15 H3         -1.0190   -3.0840    3.2470 ho        1 IUP      0.416000
     16 H31         3.0140    0.2560    1.1440 hn        1 IUP      0.374500
     17 H1         -0.4530    0.0730   -1.0490 hn        1 IUP      0.366500
     18 H7         -1.4990   -0.5270    3.9060 hn        1 IUP      0.346500
@<TRIPOS>BOND
     1    1    2 1   
     2    1    3 1   
     3    1   17 1   
     4    2    4 1   
     5    2    5 2   
     6    3    7 1   
     7    3    9 2   
     8    4    6 1   
     9    4   16 1   
    10    6    7 1   
    11    6    8 2   
    12    7   10 1   
    13    7   13 1   
    14    8   11 1   
    15   10   11 1   
    16   10   18 1   
    17   11   12 2   
    18   13   14 1   
    19   14   15 1   
@<TRIPOS>SUBSTRUCTURE
     1 IUP         1 TEMP              0 ****  ****    0 ROOT
