@<TRIPOS>MOLECULE
IUR
   12    12     1     0     0
SMALL
bcc


@<TRIPOS>ATOM
      1 N1         -0.0460   -0.0010   -0.0020 n         1 IUR     -0.467100
      2 C2          1.3710   -0.0030   -0.0440 c         1 IUR      0.803500
      3 O2          1.9590   -0.0060   -1.1450 o         1 IUR     -0.626500
      4 N3          2.0580   -0.0010    1.1730 n         1 IUR     -0.582500
      5 C4          1.4110    0.0030    2.4270 c         1 IUR      0.730700
      6 O4          2.1240    0.0050    3.4410 o         1 IUR     -0.585500
      7 C5         -0.0610    0.0050    2.3980 cc        1 IUR     -0.196400
      8 C6         -0.7140    0.0030    1.1990 cd        1 IUR      0.094600
      9 I5         -1.1130    0.0110    4.1080 i         1 IUR     -0.060800
     10 H1         -0.5300   -0.0030   -0.8710 hn        1 IUR      0.358500
     11 H3          3.0560   -0.0020    1.1370 hn        1 IUR      0.358500
     12 H6         -1.8210    0.0040    1.1240 h4        1 IUR      0.174000
@<TRIPOS>BOND
     1    1    2 1   
     2    1    8 1   
     3    1   10 1   
     4    2    3 2   
     5    2    4 1   
     6    4    5 1   
     7    4   11 1   
     8    5    6 2   
     9    5    7 1   
    10    7    8 2   
    11    7    9 1   
    12    8   12 1   
@<TRIPOS>SUBSTRUCTURE
     1 IUR         1 TEMP              0 ****  ****    0 ROOT
