@<TRIPOS>MOLECULE
IUR
   12    12     1     0     0
SMALL
bcc


@<TRIPOS>ATOM
      1 N1          1.4010    0.0010    2.3640 n         1 IUR     -0.467100
      2 C2          0.2130   -0.0000    3.1380 c         1 IUR      0.803500
      3 O2          0.2840   -0.0010    4.3830 o         1 IUR     -0.626500
      4 N3         -1.0080   -0.0010    2.4560 n         1 IUR     -0.582500
      5 C4         -1.1070   -0.0000    1.0480 c         1 IUR      0.730700
      6 O4         -2.2440   -0.0010    0.5530 o         1 IUR     -0.585500
      7 C5          0.1650    0.0010    0.3070 cc        1 IUR     -0.196400
      8 C6          1.3460    0.0010    0.9910 cd        1 IUR      0.094600
      9 I5          0.1730    0.0020   -1.7010 i         1 IUR     -0.060800
     10 H1          2.2670    0.0010    2.8540 hn        1 IUR      0.358500
     11 H3         -1.8410   -0.0010    3.0060 hn        1 IUR      0.358500
     12 H6          2.3300    0.0020    0.4790 h4        1 IUR      0.174000
@<TRIPOS>BOND
     1    1    2 1   
     2    1    8 1   
     3    1   10 1   
     4    2    3 2   
     5    2    4 1   
     6    4    5 1   
     7    4   11 1   
     8    5    6 2   
     9    5    7 1   
    10    7    8 2   
    11    7    9 1   
    12    8   12 1   
@<TRIPOS>SUBSTRUCTURE
     1 IUR         1 TEMP              0 ****  ****    0 ROOT
