@<TRIPOS>MOLECULE
IV2
   19    20     1     0     0
SMALL
bcc


@<TRIPOS>ATOM
      1 C1         -0.0110    0.0060   -0.0560 ca        1 IV2     -0.019300
      2 C2         -0.7710    0.0190   -1.3260 c3        1 IV2     -0.053800
      3 C3          1.3820   -0.0250    0.0120 ca        1 IV2      0.019400
      4 C4          2.0710   -0.0340    1.2400 ca        1 IV2     -0.124000
      5 C5          1.3780   -0.0110    2.4380 ca        1 IV2     -0.082000
      6 C6         -0.0160    0.0210    2.4170 ca        1 IV2     -0.096100
      7 C7         -2.4660    0.0670    2.5760 cc        1 IV2      0.566100
      8 C8         -0.7210    0.0260    1.1710 ca        1 IV2      0.118400
      9 N1         -2.1170    0.0370    1.2830 nd        1 IV2     -0.594100
     10 N3         -3.7560    0.2030    3.0720 nh        1 IV2     -0.859800
     11 S          -1.1060    0.0610    3.7080 ss        1 IV2     -0.063100
     12 CL          2.3310   -0.0540   -1.4050 cl        1 IV2     -0.093400
     13 H21C       -1.4230   -0.8900   -1.3870 hc        1 IV2      0.057700
     14 H22C       -1.4320    0.9210   -1.3650 hc        1 IV2      0.057700
     15 H23C       -0.1000    0.0340   -2.2190 hc        1 IV2      0.057700
     16 H4          3.1720   -0.0580    1.2450 ha        1 IV2      0.150000
     17 H5          1.9200   -0.0150    3.3950 ha        1 IV2      0.143000
     18 H31N       -4.4840    0.1560    2.3890 hn        1 IV2      0.408800
     19 H32N       -3.9340   -0.3540    3.8800 hn        1 IV2      0.408800
@<TRIPOS>BOND
     1    1    2 1   
     2    1    3 ar  
     3    1    8 ar  
     4    2   13 1   
     5    2   14 1   
     6    2   15 1   
     7    3    4 ar  
     8    3   12 1   
     9    4    5 ar  
    10    4   16 1   
    11    5    6 ar  
    12    5   17 1   
    13    6    8 ar  
    14    6   11 1   
    15    7    9 2   
    16    7   10 1   
    17    7   11 1   
    18    8    9 1   
    19   10   18 1   
    20   10   19 1   
@<TRIPOS>SUBSTRUCTURE
     1 IV2         1 TEMP              0 ****  ****    0 ROOT
