@<TRIPOS>MOLECULE
IV2
   19    20     1     0     0
SMALL
bcc


@<TRIPOS>ATOM
      1 C1          1.0020   -0.7640   -0.0190 ca        1 IV2     -0.019300
      2 C2          1.3680   -2.1980   -0.0220 c3        1 IV2     -0.053800
      3 C3          1.9350    0.2720   -0.0540 ca        1 IV2      0.019400
      4 C4          1.5480    1.6270   -0.0470 ca        1 IV2     -0.124000
      5 C5          0.2090    1.9780   -0.0040 ca        1 IV2     -0.082000
      6 C6         -0.7570    0.9740    0.0320 ca        1 IV2     -0.096100
      7 C7         -2.5940   -0.6550    0.0890 cc        1 IV2      0.566100
      8 C8         -0.3690   -0.4050    0.0210 ca        1 IV2      0.118400
      9 N1         -1.4320   -1.3170    0.0390 nd        1 IV2     -0.594100
     10 N3         -3.8530   -1.2220    0.2360 nh        1 IV2     -0.859800
     11 S          -2.4400    1.1080    0.0950 ss        1 IV2     -0.063100
     12 CL          3.6080   -0.0520   -0.1070 cl        1 IV2     -0.093400
     13 H21C        0.9390   -2.7030    0.8800 hc        1 IV2      0.057700
     14 H22C        0.9440   -2.6960   -0.9310 hc        1 IV2      0.057700
     15 H23C        2.4740   -2.3510   -0.0200 hc        1 IV2      0.057700
     16 H4          2.3200    2.4120   -0.0750 ha        1 IV2      0.150000
     17 H5         -0.0880    3.0370    0.0040 ha        1 IV2      0.143000
     18 H31N       -3.8810   -2.2200    0.1820 hn        1 IV2      0.408800
     19 H32N       -4.5590   -0.7750   -0.3080 hn        1 IV2      0.408800
@<TRIPOS>BOND
     1    1    2 1   
     2    1    3 ar  
     3    1    8 ar  
     4    2   13 1   
     5    2   14 1   
     6    2   15 1   
     7    3    4 ar  
     8    3   12 1   
     9    4    5 ar  
    10    4   16 1   
    11    5    6 ar  
    12    5   17 1   
    13    6    8 ar  
    14    6   11 1   
    15    7    9 2   
    16    7   10 1   
    17    7   11 1   
    18    8    9 1   
    19   10   18 1   
    20   10   19 1   
@<TRIPOS>SUBSTRUCTURE
     1 IV2         1 TEMP              0 ****  ****    0 ROOT
