@<TRIPOS>MOLECULE
IV2
   20    21     1     0     0
SMALL
bcc


@<TRIPOS>ATOM
      1 C1         -0.0350    0.0640   -0.0560 ca        1 IV2      0.031700
      2 C2         -0.7490    0.1300   -1.3480 c3        1 IV2     -0.075800
      3 C3          1.3610    0.0520    0.0000 ca        1 IV2      0.004400
      4 C4          2.0620   -0.0100    1.2240 ca        1 IV2     -0.050000
      5 C5          1.3860   -0.0630    2.4320 ca        1 IV2     -0.100000
      6 C6         -0.0090   -0.0540    2.4290 ca        1 IV2     -0.074100
      7 C7         -2.4150   -0.0490    2.6370 cc        1 IV2      0.256100
      8 C8         -0.7340    0.0090    1.1820 ca        1 IV2      0.075400
      9 N1         -2.1130    0.0110    1.3290 nd        1 IV2     -0.450100
     10 N3         -3.7960   -0.0620    3.0920 n4        1 IV2     -0.740600
     11 S          -1.0770   -0.1090    3.7250 ss        1 IV2      0.148900
     12 CL          2.2720    0.1140   -1.4260 cl        1 IV2     -0.025400
     13 H21C       -0.4650   -0.7490   -1.9840 hc        1 IV2      0.076367
     14 H22C       -0.4530    1.0610   -1.8980 hc        1 IV2      0.076367
     15 H23C       -1.8590    0.1310   -1.2310 hc        1 IV2      0.076367
     16 H4          3.1670   -0.0170    1.2150 ha        1 IV2      0.179000
     17 H5          1.9460   -0.1120    3.3800 ha        1 IV2      0.169000
     18 H31N       -4.4450   -0.0200    2.2900 hn        1 IV2      0.474800
     19 H32N       -3.9710   -0.9280    3.6160 hn        1 IV2      0.474800
     20 H33        -3.9610    0.7530    3.6960 hn        1 IV2      0.474800
@<TRIPOS>BOND
     1    1    2 1   
     2    1    3 ar  
     3    1    8 ar  
     4    2   13 1   
     5    2   14 1   
     6    2   15 1   
     7    3    4 ar  
     8    3   12 1   
     9    4    5 ar  
    10    4   16 1   
    11    5    6 ar  
    12    5   17 1   
    13    6    8 ar  
    14    6   11 1   
    15    7    9 2   
    16    7   10 1   
    17    7   11 1   
    18    8    9 1   
    19   10   18 1   
    20   10   19 1   
    21   10   20 1   
@<TRIPOS>SUBSTRUCTURE
     1 IV2         1 TEMP              0 ****  ****    0 ROOT
