@<TRIPOS>MOLECULE
IV2
   19    20     1     0     0
SMALL
bcc


@<TRIPOS>ATOM
      1 C1         -0.0120    0.0050   -0.0570 ca        1 IV2     -0.019300
      2 C2         -0.7730    0.0170   -1.3250 c3        1 IV2     -0.053800
      3 C3          1.3810   -0.0280    0.0100 ca        1 IV2      0.019400
      4 C4          2.0710   -0.0370    1.2380 ca        1 IV2     -0.124000
      5 C5          1.3790   -0.0120    2.4370 ca        1 IV2     -0.082000
      6 C6         -0.0150    0.0220    2.4170 ca        1 IV2     -0.096100
      7 C7         -2.4640    0.0720    2.5780 cc        1 IV2      0.566100
      8 C8         -0.7210    0.0260    1.1720 ca        1 IV2      0.118400
      9 N1         -2.1170    0.0400    1.2850 nd        1 IV2     -0.594100
     10 N3         -3.7540    0.2100    3.0750 nv        1 IV2     -0.859800
     11 S          -1.1030    0.0650    3.7080 ss        1 IV2     -0.063100
     12 Cl          2.3280   -0.0600   -1.4080 cl        1 IV2     -0.093400
     13 H21C       -0.1040    0.0320   -2.2190 hc        1 IV2      0.057700
     14 H22C       -1.4350    0.9200   -1.3640 hc        1 IV2      0.057700
     15 H23C       -1.4250   -0.8910   -1.3860 hc        1 IV2      0.057700
     16 H4          3.1720   -0.0630    1.2410 ha        1 IV2      0.150000
     17 H5          1.9230   -0.0160    3.3930 ha        1 IV2      0.143000
     18 H31N       -3.9320   -0.3460    3.8830 hn        1 IV2      0.408800
     19 H32N       -4.4820    0.1640    2.3930 hn        1 IV2      0.408800
@<TRIPOS>BOND
     1    1    2 1   
     2    1    3 ar  
     3    1    8 ar  
     4    2   13 1   
     5    2   14 1   
     6    2   15 1   
     7    3    4 ar  
     8    3   12 1   
     9    4    5 ar  
    10    4   16 1   
    11    5    6 ar  
    12    5   17 1   
    13    6    8 ar  
    14    6   11 1   
    15    7    9 2   
    16    7   10 1   
    17    7   11 1   
    18    8    9 1   
    19   10   18 1   
    20   10   19 1   
@<TRIPOS>SUBSTRUCTURE
     1 IV2         1 TEMP              0 ****  ****    0 ROOT
