@<TRIPOS>MOLECULE
IV2
   19    14     1     0     0
SMALL
bcc


@<TRIPOS>ATOM
      1 C1          0.4710    0.0020   -1.2640 c1        1 IV2     -0.012000
      2 C2         -0.2790    0.0500   -2.5770 c2        1 IV2     -0.179000
      3 C3          1.8690    0.0020   -1.2640 c2        1 IV2     -0.059000
      4 C4          2.5760    0.0020   -0.0440 c1        1 IV2     -0.124000
      5 C5          1.8790    0.0020    1.1680 c1        1 IV2     -0.082000
      6 C6          0.4910    0.0020    1.1700 c1        1 IV2     -0.323000
      7 C7         -1.9420    0.0020    1.6720 c1        1 IV2     -0.098000
      8 C8         -0.2230    0.0020   -0.0630 c1        1 IV2     -0.021000
      9 N1         -1.7750    0.0020    0.2580 n1        1 IV2     -0.167000
     10 N3         -3.1490   -0.0140    2.4160 n2        1 IV2     -0.298000
     11 S          -0.5430    0.0020    2.3130 s         1 IV2      0.388000
     12 CL          3.1020   -0.1990   -2.4820 cl        1 IV2     -0.015000
     13 H21C        0.3590    0.0730   -3.3160 ha        1 IV2      0.097000
     14 H22C       -0.8360    0.8520   -2.6040 ha        1 IV2      0.097000
     15 H23C       -0.8440   -0.7420   -2.6590 ha        1 IV2      0.097000
     16 H4          3.5520    0.0020   -0.0460 ha        1 IV2      0.150000
     17 H5          2.3690    0.0020    2.0120 ha        1 IV2      0.143000
     18 H31N       -3.1230   -0.0180    3.3280 hn        1 IV2      0.204000
     19 H32N       -3.9520   -0.0190    1.9830 hn        1 IV2      0.204000
@<TRIPOS>BOND
     1    1    3 1   
     2    1    8 1   
     3    2   13 1   
     4    2   14 1   
     5    2   15 1   
     6    3    4 1   
     7    3   12 1   
     8    4   16 1   
     9    5    6 1   
    10    5   17 1   
    11    7    9 1   
    12    7   11 1   
    13   10   18 1   
    14   10   19 1   
@<TRIPOS>SUBSTRUCTURE
     1 IV2         1 TEMP              0 ****  ****    0 ROOT
