@<TRIPOS>MOLECULE
IV7
   53    51     1     0     0
SMALL
bcc


@<TRIPOS>ATOM
      1 C12       434.1240 -122.7830 -179.9010 c3        1 IV7     -0.307000
      2 C13       434.4620 -123.5230 -178.7050 c1        1 IV7      0.083000
      3 C6       -337.1910   94.3450  141.7960 c3        1 IV7     -0.152000
      4 C15       436.8310 -123.6490 -179.5820 c2        1 IV7      0.102000
      5 C4       -341.5370   92.9900  141.2060 c1        1 IV7      0.199000
      6 C5       -336.0240   93.5070  142.2750 c2        1 IV7     -0.033000
      7 C23      -335.0480   94.3370  142.7530 c2        1 IV7     -0.200000
      8 C11       435.1940 -122.3830 -180.8290 c2        1 IV7      0.169000
      9 C10       436.5090 -122.8440 -180.6740 c2        1 IV7     -0.028000
     10 C1       -338.4650   93.9570  142.5030 c2        1 IV7      0.244000
     11 C14       435.8960 -123.8080 -178.4280 c3        1 IV7     -0.026000
     12 C22      -335.4860   95.7400  142.6140 c2        1 IV7     -0.173000
     13 C24      -333.7710   93.9490  143.3240 c2        1 IV7      0.190000
     14 C2       -339.0810   92.6170  142.0060 c3        1 IV7      0.116000
     15 C17       434.7500 -121.6220 -182.0560 c2        1 IV7      0.298000
     16 C29      -336.7310   95.7600  142.0730 c2        1 IV7     -0.095000
     17 C9        437.4900 -122.5740 -181.6440 c1        1 IV7     -0.259000
     18 C28      -332.9830   92.9270  142.5650 c3        1 IV7     -0.211000
     19 C18       438.3320 -122.3680 -182.4730 c1        1 IV7     -0.006000
     20 N3       -340.4220   92.8270  141.5710 n2        1 IV7     -0.411000
     21 N25      -333.2360   94.4150  144.4480 n2        1 IV7     -0.059000
     22 N26      -333.8270   95.2900  145.2270 n2        1 IV7      0.077000
     23 N20       435.0270 -120.2930 -182.1780 n         1 IV7     -0.342000
     24 N8       -338.8470   91.6190  143.0400 n3        1 IV7     -0.358000
     25 O19       434.1140 -122.2720 -182.9070 o         1 IV7     -0.291000
     26 O7       -338.9620   94.6120  143.4120 o         1 IV7     -0.226000
     27 F16       436.1080 -124.9970 -177.7540 f         1 IV7     -0.074000
     28 H12       433.3600 -123.4220 -180.4820 hc        1 IV7      0.254000
     29 H13       433.4840 -121.8860 -179.5970 hc        1 IV7      0.254000
     30 H6       -337.3260   94.2110  140.6830 hc        1 IV7      0.181000
     31 H15       436.1610 -122.9450 -177.6970 h1        1 IV7      0.215000
     32 H4       -336.0470   92.4150  142.2440 ha        1 IV7      0.182000
     33 H9        437.8010 -124.1880 -179.5400 ha        1 IV7      0.214000
     34 H291     -337.3610   96.6210  141.8430 ha        1 IV7      0.184000
     35 H292      434.6940 -119.8360 -183.0030 hn        1 IV7      0.277000
     36 H281     -333.6600   92.0710  142.3120 hc        1 IV7      0.142000
     37 H282     -332.0950   92.5380  143.1240 hc        1 IV7      0.142000
     38 H283     -332.6270   93.3990  141.6100 hc        1 IV7      0.142000
     39 H81N     -338.4970   92.2730  141.0890 h2        1 IV7      0.120000
     40 H82N     -339.3000   91.8540  143.9010 hn        1 IV7      0.179500
     41 H181        8.7110  -15.8100   -0.3370 ha        1 IV7      0.000500
     42 H182        9.3510  -15.6420   -0.4780 ha        1 IV7      0.000500
     43 H183      439.0800 -122.1830 -183.2120 ha        1 IV7      0.262000
     44 H271     -339.5350   95.3230  145.6360 ha        1 IV7      0.000500
     45 H272     -338.8720   95.3040  145.7710 ha        1 IV7      0.000500
     46 H273     -334.4680   96.7070  146.8480 ha        1 IV7      0.351000
     47 H211     -334.8600   96.5950  142.8660 ha        1 IV7      0.154000
     48 H212      436.1540 -118.6020 -181.7020 h1        1 IV7      0.100000
     49 H213      435.0190 -119.1710 -180.3920 h1        1 IV7      0.100000
     50 C27      -334.1590   96.0230  146.0670 c1        1 IV7      0.134000
     51 C21       435.7200 -119.5110 -181.2020 c3        1 IV7     -0.094000
     52 H201      436.5580 -120.1020 -180.7420 h1        1 IV7      0.100000
     53 H83      -339.1330   90.7070  142.7420 hn        1 IV7      0.179500
@<TRIPOS>BOND
     1    1    2 1   
     2    1    8 1   
     3    1   28 1   
     4    1   29 1   
     5    2   11 1   
     6    3    6 1   
     7    3   10 1   
     8    3   16 1   
     9    3   30 1   
    10    4    9 1   
    11    4   11 1   
    12    4   33 1   
    13    5   20 1   
    14    6    7 1   
    15    6   32 1   
    16    7   12 1   
    17    7   13 1   
    18    8    9 1   
    19    8   15 1   
    20    9   17 1   
    21   10   14 1   
    22   10   26 1   
    23   11   27 1   
    24   11   31 1   
    25   12   16 1   
    26   12   47 1   
    27   13   18 1   
    28   13   21 1   
    29   14   20 1   
    30   14   24 1   
    31   14   39 1   
    32   15   23 1   
    33   15   25 1   
    34   16   34 1   
    35   17   19 1   
    36   18   36 1   
    37   18   37 1   
    38   18   38 1   
    39   19   43 1   
    40   21   22 1   
    41   22   50 1   
    42   23   35 1   
    43   23   51 1   
    44   24   40 1   
    45   24   53 1   
    46   41   42 1   
    47   44   45 1   
    48   46   50 1   
    49   48   51 1   
    50   49   51 1   
    51   51   52 1   
@<TRIPOS>SUBSTRUCTURE
     1 IV7         1 TEMP              0 ****  ****    0 ROOT
