@<TRIPOS>MOLECULE
IVA
   16    15     1     0     0
SMALL
bcc


@<TRIPOS>ATOM
      1 CA          0.0350    0.0970   -0.0350 c3        1 IVA     -0.189400
      2 CB          1.5390   -0.0530    0.0990 c3        1 IVA     -0.061700
      3 CG1         1.9350   -0.2000    1.5530 c3        1 IVA     -0.080100
      4 CG2         2.0450   -1.2300   -0.7090 c3        1 IVA     -0.080100
      5 C          -0.4460    1.4790    0.4410 c         1 IVA      0.906600
      6 O           0.1490    2.5090    0.0070 o         1 IVA     -0.853800
      7 OXT        -1.4320    1.5200    1.2320 o         1 IVA     -0.853800
      8 HA1        -0.4870   -0.7000    0.5490 hc        1 IVA      0.020200
      9 HA2        -0.2570   -0.0120   -1.1110 hc        1 IVA      0.020200
     10 HB          2.0050    0.8940   -0.3020 hc        1 IVA      0.071700
     11 HG11        1.5390   -1.1550    1.9760 hc        1 IVA      0.017033
     12 HG12        1.5110    0.6520    2.1390 hc        1 IVA      0.017033
     13 HG13        3.0470   -0.2010    1.6610 hc        1 IVA      0.017033
     14 HG21        1.8130   -1.0860   -1.7920 hc        1 IVA      0.017033
     15 HG22        1.5600   -2.1770   -0.3680 hc        1 IVA      0.017033
     16 HG23        3.1500   -1.3400   -0.5950 hc        1 IVA      0.017033
@<TRIPOS>BOND
     1    1    2 1   
     2    1    5 1   
     3    1    8 1   
     4    1    9 1   
     5    2    3 1   
     6    2    4 1   
     7    2   10 1   
     8    3   11 1   
     9    3   12 1   
    10    3   13 1   
    11    4   14 1   
    12    4   15 1   
    13    4   16 1   
    14    5    6 1   
    15    5    7 1   
@<TRIPOS>SUBSTRUCTURE
     1 IVA         1 TEMP              0 ****  ****    0 ROOT
