@<TRIPOS>MOLECULE
IVA
   16    15     1     0     0
SMALL
bcc


@<TRIPOS>ATOM
      1 CA          0.0180    0.0720    0.0100 c3        1 IVA     -0.189400
      2 CB          1.5290   -0.0550    0.0780 c3        1 IVA     -0.061700
      3 CG1         1.9950   -0.1440    1.5160 c3        1 IVA     -0.080100
      4 CG2         2.0120   -1.2550   -0.7090 c3        1 IVA     -0.080100
      5 C          -0.4580    1.4650    0.4590 c         1 IVA      0.906600
      6 O           0.0980    2.4850   -0.0450 o         1 IVA     -0.853800
      7 OXT        -1.4020    1.5240    1.2990 o         1 IVA     -0.853800
      8 HA1        -0.4650   -0.7100    0.6480 hc        1 IVA      0.020200
      9 HA2        -0.3230   -0.0800   -1.0450 hc        1 IVA      0.020200
     10 HB          1.9630    0.8820   -0.3790 hc        1 IVA      0.071700
     11 HG11        1.6330   -1.0870    1.9920 hc        1 IVA      0.017033
     12 HG12        1.5860    0.7230    2.0900 hc        1 IVA      0.017033
     13 HG13        3.1100   -0.1260    1.5710 hc        1 IVA      0.017033
     14 HG21        1.7280   -1.1540   -1.7840 hc        1 IVA      0.017033
     15 HG22        1.5570   -2.1940   -0.3120 hc        1 IVA      0.017033
     16 HG23        3.1230   -1.3480   -0.6440 hc        1 IVA      0.017033
@<TRIPOS>BOND
     1    1    2 1   
     2    1    5 1   
     3    1    8 1   
     4    1    9 1   
     5    2    3 1   
     6    2    4 1   
     7    2   10 1   
     8    3   11 1   
     9    3   12 1   
    10    3   13 1   
    11    4   14 1   
    12    4   15 1   
    13    4   16 1   
    14    5    6 1   
    15    5    7 1   
@<TRIPOS>SUBSTRUCTURE
     1 IVA         1 TEMP              0 ****  ****    0 ROOT
