@<TRIPOS>MOLECULE
IVA
   16    15     1     0     0
SMALL
bcc


@<TRIPOS>ATOM
      1 CA         -0.0390   -0.8090   -0.1450 c3        1 IVA     -0.189400
      2 CB         -1.2370    0.0480    0.2170 c3        1 IVA     -0.061700
      3 CG1        -1.3730    1.2120   -0.7430 c3        1 IVA     -0.080100
      4 CG2        -2.5100   -0.7720    0.2360 c3        1 IVA     -0.080100
      5 C           1.2880   -0.1110    0.2030 c         1 IVA      0.906600
      6 O           1.4270    0.3820    1.3600 o         1 IVA     -0.853800
      7 OXT         2.1890   -0.0820   -0.6840 o         1 IVA     -0.853800
      8 HA1        -0.0780   -1.7690    0.4300 hc        1 IVA      0.020200
      9 HA2        -0.0540   -1.0570   -1.2360 hc        1 IVA      0.020200
     10 HB         -1.0510    0.4610    1.2510 hc        1 IVA      0.071700
     11 HG11       -2.1860    1.9030   -0.4130 hc        1 IVA      0.017033
     12 HG12       -0.4070    1.7740   -0.7790 hc        1 IVA      0.017033
     13 HG13       -1.6130    0.8510   -1.7720 hc        1 IVA      0.017033
     14 HG21       -2.4350   -1.5880    0.9940 hc        1 IVA      0.017033
     15 HG22       -3.3880   -0.1310    0.4910 hc        1 IVA      0.017033
     16 HG23       -2.6920   -1.2370   -0.7630 hc        1 IVA      0.017033
@<TRIPOS>BOND
     1    1    2 1   
     2    1    5 1   
     3    1    8 1   
     4    1    9 1   
     5    2    3 1   
     6    2    4 1   
     7    2   10 1   
     8    3   11 1   
     9    3   12 1   
    10    3   13 1   
    11    4   14 1   
    12    4   15 1   
    13    4   16 1   
    14    5    6 1   
    15    5    7 1   
@<TRIPOS>SUBSTRUCTURE
     1 IVA         1 TEMP              0 ****  ****    0 ROOT
