@<TRIPOS>MOLECULE
IVF
   45    45     1     0     0
SMALL
bcc


@<TRIPOS>ATOM
      1 C1          1.3320   -0.3460   -0.3770 c         1 IVF      0.670100
      2 O1          1.0890   -1.2450    0.4520 o         1 IVF     -0.592100
      3 CH3         2.3530   -0.5530   -1.4670 c3        1 IVF     -0.028500
      4 I1          4.1100    0.4840   -1.1610 i         1 IVF     -0.195900
      5 N2          0.6960    0.8810   -0.3240 n         1 IVF     -0.547900
      6 CA2        -0.4060    1.1310    0.5680 c3        1 IVF      0.042700
      7 C2         -1.7450    1.2040   -0.2160 c         1 IVF      0.638100
      8 O2         -1.8020    1.6960   -1.3640 o         1 IVF     -0.638100
      9 CB2        -0.2710    2.4470    1.3710 c3        1 IVF     -0.067700
     10 CG1         0.7850    2.3000    2.4460 c3        1 IVF     -0.097600
     11 CG2         0.0270    3.6380    0.4870 c3        1 IVF     -0.097600
     12 N          -2.8730    0.7510    0.4270 n         1 IVF     -0.549900
     13 CA         -4.1540    0.6640   -0.2330 c3        1 IVF      0.039700
     14 C          -4.9250    2.0070   -0.1570 c         1 IVF      0.641100
     15 O          -5.9910    2.1090    0.4840 o         1 IVF     -0.621100
     16 CB         -5.0560   -0.4340    0.3560 c3        1 IVF     -0.044100
     17 CG         -4.4170   -1.7740    0.2910 ca        1 IVF     -0.092300
     18 CD1        -3.8030   -2.3200    1.4240 ca        1 IVF     -0.128000
     19 CD2        -4.4340   -2.5080   -0.9010 ca        1 IVF     -0.128000
     20 CE1        -3.2100   -3.5800    1.3640 ca        1 IVF     -0.123000
     21 CE2        -3.8410   -3.7670   -0.9590 ca        1 IVF     -0.123000
     22 CZ         -3.2260   -4.3050    0.1730 ca        1 IVF     -0.125000
     23 NXT        -4.4010    3.0700   -0.8360 n         1 IVF     -0.665000
     24 H1          2.6110   -1.6390   -1.5000 h1        1 IVF      0.103200
     25 H2          1.9490   -0.2480   -2.4600 h1        1 IVF      0.103200
     26 H4          0.8040    1.5260   -1.0740 hn        1 IVF      0.327500
     27 H5         -0.4470    0.2740    1.3090 h1        1 IVF      0.102700
     28 H6         -1.2670    2.6140    1.8730 hc        1 IVF      0.057700
     29 H7          1.7900    2.1150    1.9950 hc        1 IVF      0.043867
     30 H8          0.8370    3.2360    3.0540 hc        1 IVF      0.043867
     31 H9          0.5400    1.4480    3.1250 hc        1 IVF      0.043867
     32 H10         1.0890    3.6260    0.1410 hc        1 IVF      0.043867
     33 H11        -0.6410    3.6350   -0.4100 hc        1 IVF      0.043867
     34 H12        -0.1410    4.5840    1.0560 hc        1 IVF      0.043867
     35 H13        -2.7860    0.2790    1.2970 hn        1 IVF      0.325500
     36 H14        -3.9770    0.4350   -1.3300 h1        1 IVF      0.084700
     37 H15        -5.3260   -0.1700    1.4140 hc        1 IVF      0.078200
     38 H16        -6.0130   -0.4280   -0.2340 hc        1 IVF      0.078200
     39 H17        -3.7970   -1.7560    2.3690 ha        1 IVF      0.130000
     40 H18        -4.9200   -2.0860   -1.7940 ha        1 IVF      0.130000
     41 H19        -2.7260   -4.0010    2.2580 ha        1 IVF      0.134000
     42 H20        -3.8580   -4.3380   -1.8990 ha        1 IVF      0.134000
     43 H21        -2.7560   -5.2980    0.1260 ha        1 IVF      0.134000
     44 H22        -3.5570    2.9830   -1.3480 hn        1 IVF      0.323000
     45 H23        -4.8710    3.9400   -0.8220 hn        1 IVF      0.323000
@<TRIPOS>BOND
     1    1    2 2   
     2    1    3 1   
     3    1    5 1   
     4    3    4 1   
     5    3   24 1   
     6    3   25 1   
     7    5    6 1   
     8    5   26 1   
     9    6    7 1   
    10    6    9 1   
    11    6   27 1   
    12    7    8 2   
    13    7   12 1   
    14    9   10 1   
    15    9   11 1   
    16    9   28 1   
    17   10   29 1   
    18   10   30 1   
    19   10   31 1   
    20   11   32 1   
    21   11   33 1   
    22   11   34 1   
    23   12   13 1   
    24   12   35 1   
    25   13   14 1   
    26   13   16 1   
    27   13   36 1   
    28   14   15 2   
    29   14   23 1   
    30   16   17 1   
    31   16   37 1   
    32   16   38 1   
    33   17   18 ar  
    34   17   19 ar  
    35   18   20 ar  
    36   18   39 1   
    37   19   21 ar  
    38   19   40 1   
    39   20   22 ar  
    40   20   41 1   
    41   21   22 ar  
    42   21   42 1   
    43   22   43 1   
    44   23   44 1   
    45   23   45 1   
@<TRIPOS>SUBSTRUCTURE
     1 IVF         1 TEMP              0 ****  ****    0 ROOT
