@<TRIPOS>MOLECULE
IVF
   45    42     1     0     0
SMALL
bcc


@<TRIPOS>ATOM
      1 C1          1.1540   -3.7570   -0.4940 c1        1 IVF      0.314000
      2 O1          1.8540   -3.3580    0.4300 o         1 IVF     -0.353000
      3 CH3         1.0350   -5.2190   -0.7610 c2        1 IVF     -0.358000
      4 I1          2.7980   -6.1920   -0.1660 i         1 IVF      0.105000
      5 N2          0.5800   -2.8460   -1.3760 n3        1 IVF     -0.357000
      6 CA2         0.9280   -1.4390   -1.2960 c3        1 IVF      0.016000
      7 C2         -0.2900   -0.6420   -1.0620 c2        1 IVF      0.282000
      8 O2         -1.4350   -1.1100   -1.3890 o         1 IVF     -0.399000
      9 CB2         1.5890   -0.9900   -2.6270 c3        1 IVF     -0.107000
     10 CG1         2.8180   -0.2220   -2.3380 c3        1 IVF     -0.215500
     11 CG2         1.9410   -2.2170   -3.4550 c3        1 IVF     -0.215500
     12 N          -0.1830    0.7120   -0.4910 n         1 IVF     -0.359000
     13 CA         -1.2610    1.2660    0.1700 c3        1 IVF      0.013000
     14 C          -2.4700    1.3540   -0.7980 c2        1 IVF      0.285000
     15 O          -2.2940    1.6820   -1.9750 o         1 IVF     -0.382000
     16 CB         -0.8930    2.6680    0.6610 c3        1 IVF     -0.130000
     17 CG         -0.9340    2.6990    2.2140 c2        1 IVF     -0.085000
     18 CD1         0.2430    2.4520    2.9550 c2        1 IVF     -0.133000
     19 CD2        -2.0860    3.1230    2.8630 c1        1 IVF     -0.123000
     20 CE1         0.2470    2.6330    4.3230 c1        1 IVF     -0.121000
     21 CE2        -2.0780    3.3030    4.2390 c1        1 IVF     -0.125000
     22 CZ         -0.9070    3.0580    4.9750 c1        1 IVF     -0.125000
     23 NXT        -3.8070    1.2000   -0.2890 n         1 IVF     -0.425000
     24 H1          0.8890   -5.3650   -1.7280 h4        1 IVF      0.142500
     25 H2          0.2930   -5.5740   -0.2690 h4        1 IVF      0.142500
     26 H4         -0.0190   -3.1300   -1.9930 hn        1 IVF      0.241000
     27 H5          1.5530   -1.3020   -0.5590 h1        1 IVF      0.142000
     28 H6          0.9780   -0.4390   -3.1170 hc        1 IVF      0.097000
     29 H7          2.5800    0.6140   -1.8140 hc        1 IVF      0.083167
     30 H8          3.2510    0.0350   -3.1870 hc        1 IVF      0.083167
     31 H9          3.4010   -0.7440   -1.8410 hc        1 IVF      0.083167
     32 H10         2.6260   -2.0030   -4.0510 hc        1 IVF      0.083167
     33 H11         2.2300   -2.9230   -2.8750 hc        1 IVF      0.083167
     34 H12         1.1470   -2.5110   -3.9580 hc        1 IVF      0.083167
     35 H13         0.6480    1.1800   -0.5240 hn        1 IVF      0.239000
     36 H14        -1.4920    0.7140    0.9260 h1        1 IVF      0.124000
     37 H15        -0.0190    2.8910    0.3610 hc        1 IVF      0.117500
     38 H16        -1.5430    3.3240    0.3010 hc        1 IVF      0.117500
     39 H17         1.0270    2.1620    2.5150 ha        1 IVF      0.128000
     40 H18        -2.9120    3.2960    2.3420 ha        1 IVF      0.132000
     41 H19         1.0420    2.4660    4.8230 ha        1 IVF      0.135000
     42 H20        -2.8520    3.5890    4.6760 ha        1 IVF      0.133500
     43 H21        -0.9000    3.1810    5.9070 ha        1 IVF      0.133500
     44 H22        -3.9370    0.9510    0.5780 hn        1 IVF      0.236500
     45 H23        -4.5390    1.4290   -0.8250 hn        1 IVF      0.236500
@<TRIPOS>BOND
     1    1    2 1   
     2    1    5 1   
     3    3    4 1   
     4    3   24 1   
     5    3   25 1   
     6    5    6 1   
     7    5   26 1   
     8    6    7 1   
     9    6    9 1   
    10    6   27 1   
    11    7    8 1   
    12    7   12 1   
    13    9   10 1   
    14    9   11 1   
    15    9   28 1   
    16   10   29 1   
    17   10   30 1   
    18   10   31 1   
    19   11   32 1   
    20   11   33 1   
    21   11   34 1   
    22   12   13 1   
    23   12   35 1   
    24   13   14 1   
    25   13   16 1   
    26   13   36 1   
    27   14   15 1   
    28   14   23 1   
    29   16   17 1   
    30   16   37 1   
    31   16   38 1   
    32   17   18 1   
    33   17   19 1   
    34   18   20 1   
    35   18   39 1   
    36   19   40 1   
    37   20   41 1   
    38   21   22 1   
    39   21   42 1   
    40   22   43 1   
    41   23   44 1   
    42   23   45 1   
@<TRIPOS>SUBSTRUCTURE
     1 IVF         1 TEMP              0 ****  ****    0 ROOT
