@<TRIPOS>MOLECULE
IVH
   45    45     1     0     0
SMALL
bcc


@<TRIPOS>ATOM
      1 S           0.2890    0.0610    0.1580 ss        1 IVH      0.300000
      2 C1          4.2550    0.2790   -3.0390 c3        1 IVH     -0.212000
      3 N1          0.9040   -0.2330    2.7320 n2        1 IVH     -0.258000
      4 O1         -5.2270    0.8110    4.0320 os        1 IVH     -0.226000
      5 C2          3.9000    0.1270   -1.5830 c3        1 IVH     -0.154000
      6 N2         -1.4620   -0.0410    2.0870 n2        1 IVH     -0.190000
      7 O2         -7.7410    1.6570    4.8970 oh        1 IVH     -0.263000
      8 N3         -3.0310   -0.1480    4.0580 nh        1 IVH     -0.236000
      9 O3         -6.7710   -2.5180    3.9760 oh        1 IVH     -0.156000
     10 C4          2.0550    0.0090    0.0860 c3        1 IVH     -0.294000
     11 N4         -1.4790   -0.3830    5.6680 nu        1 IVH     -0.234000
     12 O4         -5.8520   -1.1640    1.9000 oh        1 IVH     -0.351000
     13 C5         -0.1130   -0.0830    1.8330 c2        1 IVH     -0.084000
     14 C6          0.5900   -0.3350    4.0650 c2        1 IVH      0.182000
     15 C7         -0.7760   -0.3000    4.4500 c2        1 IVH     -0.210000
     16 C8         -1.7720   -0.1470    3.4000 c2        1 IVH      0.084000
     17 C9         -2.8360   -0.2910    5.4370 c1        1 IVH      0.080000
     18 C10        -4.2860   -0.0120    3.3490 c3        1 IVH      0.192000
     19 C11        -4.8990   -1.3810    2.9310 c3        1 IVH     -0.130000
     20 C12        -5.5580   -2.0990    4.0830 c1        1 IVH      0.062000
     21 C13        -5.7730    0.2850    5.2040 c2        1 IVH     -0.175000
     22 C14        -6.9790    0.7500    5.5850 c2        1 IVH     -0.042000
     23 H1          4.3770    0.9510   -0.9890 hc        1 IVH      0.081500
     24 H1A         1.9900    1.1320   -1.7660 hc        1 IVH      0.094000
     25 H1B         5.3640    0.2520   -3.1710 hc        1 IVH      0.075000
     26 H2          3.8070   -0.5470   -3.6430 hc        1 IVH      0.075000
     27 H2A         3.8760    1.2500   -3.4390 hc        1 IVH      0.075000
     28 HO2        -7.2830    1.8880    4.0740 ho        1 IVH      0.224000
     29 H3          4.3090   -0.8420   -1.1920 hc        1 IVH      0.081500
     30 H3A         2.5090    0.8340    0.6870 h1        1 IVH      0.118500
     31 HO3        -7.2540   -2.3000    3.1480 ho        1 IVH      0.200000
     32 H4          1.9220   -0.6650   -1.9690 hc        1 IVH      0.094000
     33 H4A         2.4490   -0.9560    0.4870 h1        1 IVH      0.118500
     34 HO4        -5.3780   -0.8750    1.1120 ho        1 IVH      0.220000
     35 HN5         2.5220   -0.5440    4.6970 hn        1 IVH      0.208500
     36 HN5A        1.3590   -0.9260    5.8390 hn        1 IVH      0.208500
     37 H9         -1.0500   -0.4300    6.5540 hn        1 IVH      0.262000
     38 H10        -4.0960    0.5930    2.4030 h2        1 IVH      0.141000
     39 H11        -4.0760   -2.0580    2.5570 h1        1 IVH      0.129000
     40 H12        -7.5690   -0.1370    3.1680 ha        1 IVH      0.002500
     41 H13        -5.1590   -0.4230    5.7820 h4        1 IVH      0.208000
     42 H14        -7.4790    0.4520    6.5190 h4        1 IVH      0.174000
     43 H14A       -8.0140   -0.2030    2.6600 ha        1 IVH      0.002500
     44 N5          1.5950   -0.3980    5.0310 nv        1 IVH     -0.323000
     45 C3          2.3980    0.1610   -1.3760 c3        1 IVH     -0.157000
@<TRIPOS>BOND
     1    1   10 1   
     2    1   13 1   
     3    2    5 1   
     4    2   25 1   
     5    2   26 1   
     6    2   27 1   
     7    3   13 1   
     8    3   14 1   
     9    4   18 1   
    10    4   21 1   
    11    5   23 1   
    12    5   29 1   
    13    5   45 1   
    14    6   13 1   
    15    6   16 1   
    16    7   22 1   
    17    7   28 1   
    18    8   16 1   
    19    8   17 1   
    20    8   18 1   
    21    9   20 1   
    22    9   31 1   
    23   10   30 1   
    24   10   33 1   
    25   10   45 1   
    26   11   15 1   
    27   11   17 1   
    28   11   37 1   
    29   12   19 1   
    30   12   34 1   
    31   14   15 1   
    32   14   44 1   
    33   15   16 1   
    34   18   19 1   
    35   18   38 1   
    36   19   20 1   
    37   19   39 1   
    38   21   22 1   
    39   21   41 1   
    40   22   42 1   
    41   24   45 1   
    42   32   45 1   
    43   35   44 1   
    44   36   44 1   
    45   40   43 1   
@<TRIPOS>SUBSTRUCTURE
     1 IVH         1 TEMP              0 ****  ****    0 ROOT
