@<TRIPOS>MOLECULE
IVH
   46    46     1     0     0
SMALL
bcc


@<TRIPOS>ATOM
      1 S           0.4240   -0.1290    0.1770 ss        1 IVH     -0.075400
      2 C1          4.4440   -0.0340   -2.9240 c3        1 IVH     -0.098100
      3 N1          0.8930    0.0630    2.7920 nb        1 IVH     -0.744000
      4 O1         -6.0880    0.4240    3.7590 os        1 IVH     -0.383900
      5 C2          4.0600    0.0280   -1.4680 c3        1 IVH     -0.072400
      6 N2         -1.4250   -0.1470    2.0060 nb        1 IVH     -0.624000
      7 O2         -5.4120    1.6870    6.1970 oh        1 IVH     -0.506100
      8 N3         -3.1170   -0.1530    3.8570 nh        1 IVH     -0.344200
      9 O3         -5.4890   -3.9320    2.1180 oh        1 IVH     -0.487100
     10 C4          2.1830   -0.0050    0.1670 c3        1 IVH     -0.060300
     11 N4         -1.6740    0.0530    5.5830 nh        1 IVH     -0.272500
     12 O4         -5.1680   -1.1820    1.9070 oh        1 IVH     -0.535100
     13 C5         -0.0490   -0.0620    1.8150 ca        1 IVH      0.746300
     14 C6          0.4600    0.1120    4.0900 ca        1 IVH      0.484200
     15 C7         -0.8850    0.0380    4.4310 ca        1 IVH     -0.298800
     16 C8         -1.8300   -0.1000    3.2750 ca        1 IVH      0.503800
     17 C9         -3.0230   -0.0610    5.2310 c1        1 IVH      0.127000
     18 C10        -6.9040   -0.7500    3.5940 c3        1 IVH      0.166600
     19 C11        -6.0960   -1.7120    2.7950 c2        1 IVH     -0.121100
     20 C12        -6.1980   -3.0550    2.8850 c2        1 IVH      0.050100
     21 C13        -6.8150    1.5080    4.2440 c2        1 IVH     -0.145900
     22 C14        -6.4350    2.0980    5.3940 c2        1 IVH      0.039100
     23 H1          4.4280    0.9880   -1.0200 hc        1 IVH      0.042700
     24 H1A         2.1920   -1.0310   -1.7440 hc        1 IVH      0.064700
     25 H1B         5.5540    0.0370   -3.0320 hc        1 IVH      0.043700
     26 H2          4.1070   -0.9950   -3.3820 hc        1 IVH      0.043700
     27 H2A         3.9800    0.8080   -3.4920 hc        1 IVH      0.043700
     28 HO2        -5.0600    0.8420    5.8610 ho        1 IVH      0.438000
     29 H3          4.5550   -0.8110   -0.9110 hc        1 IVH      0.042700
     30 H3A         2.5330    0.9540    0.6210 h1        1 IVH      0.080700
     31 HO3        -5.0160   -3.4370    1.4290 ho        1 IVH      0.433000
     32 H4          2.0640    0.7730   -1.8540 hc        1 IVH      0.064700
     33 H4A         2.6590   -0.8430    0.7300 h1        1 IVH      0.080700
     34 HO4        -5.6020   -0.4380    1.4620 ho        1 IVH      0.431000
     35 HN5         2.4320    0.2930    4.7160 hn        1 IVH      0.470467
     36 HN5A        1.4420   -0.5600    5.7640 hn        1 IVH      0.470467
     37 H9         -1.3490    0.1460    6.5090 hn        1 IVH      0.317700
     38 H10        -7.8480   -0.4770    3.0490 h1        1 IVH      0.056200
     39 H11        -3.9710   -0.2550    3.3370 hn        1 IVH      0.381700
     40 H12        -7.1590   -1.1670    4.6030 h1        1 IVH      0.056200
     41 H13        -6.8330   -3.5890    3.6100 h4        1 IVH      0.183000
     42 H14        -6.8970    3.0160    5.7940 h4        1 IVH      0.179000
     43 H14A       -7.6430    1.8490    3.6110 h4        1 IVH      0.155000
     44 N5          1.4920    0.2500    5.1360 n4        1 IVH     -0.816300
     45 C3          2.5570   -0.0680   -1.2960 c3        1 IVH     -0.083400
     46 H53         1.3210    1.1120    5.6640 hn        1 IVH      0.470467
@<TRIPOS>BOND
     1    1   10 1   
     2    1   13 1   
     3    2    5 1   
     4    2   25 1   
     5    2   26 1   
     6    2   27 1   
     7    3   13 ar  
     8    3   14 ar  
     9    4   18 1   
    10    4   21 1   
    11    5   23 1   
    12    5   29 1   
    13    5   45 1   
    14    6   13 ar  
    15    6   16 ar  
    16    7   22 1   
    17    7   28 1   
    18    8   16 1   
    19    8   17 2   
    20    8   39 1   
    21    9   20 1   
    22    9   31 1   
    23   10   30 1   
    24   10   33 1   
    25   10   45 1   
    26   11   15 1   
    27   11   17 2   
    28   11   37 1   
    29   12   19 1   
    30   12   34 1   
    31   14   15 ar  
    32   14   44 1   
    33   15   16 ar  
    34   18   19 1   
    35   18   38 1   
    36   18   40 1   
    37   19   20 2   
    38   20   41 1   
    39   21   22 2   
    40   21   43 1   
    41   22   42 1   
    42   24   45 1   
    43   32   45 1   
    44   35   44 1   
    45   36   44 1   
    46   44   46 1   
@<TRIPOS>SUBSTRUCTURE
     1 IVH         1 TEMP              0 ****  ****    0 ROOT
