@<TRIPOS>MOLECULE
IVH
   45    44     1     0     0
SMALL
bcc


@<TRIPOS>ATOM
      1 S          -1.6290   -0.0340   -0.8560 sh        1 IVH      0.228000
      2 C1          5.1890   -0.2700   -2.9460 c3        1 IVH     -0.216500
      3 N1         -0.4590    0.3420    1.4940 n2        1 IVH     -0.280000
      4 O1         -6.1660    0.2900    4.1690 os        1 IVH     -0.257000
      5 C2          6.1850   -0.0520   -1.8450 c3        1 IVH     -0.216500
      6 N2         -2.8650   -0.1770    1.4430 n2        1 IVH     -0.193000
      7 O2         -5.3550    1.0790    7.2650 oh        1 IVH     -0.344000
      8 N3         -3.9000   -0.2710    3.7430 nh        1 IVH     -0.242000
      9 O3         -7.8320   -2.7550    2.6050 oh        1 IVH     -0.147000
     10 C4          2.7610    0.4230    1.3570 c1        1 IVH      0.141000
     11 N4         -2.0490    0.2010    4.9270 nh        1 IVH     -0.222000
     12 O4         -5.2580   -2.6110    2.1630 oh        1 IVH     -0.360000
     13 C5         -1.6430    0.0590    0.8740 c2        1 IVH     -0.060000
     14 C6         -0.4450    0.4340    2.8670 c2        1 IVH      0.216000
     15 C7         -1.6640    0.2070    3.5710 c2        1 IVH     -0.228000
     16 C8         -2.8570   -0.0920    2.7980 c2        1 IVH      0.080000
     17 C9         -3.3930   -0.0770    5.0300 c1        1 IVH      0.027000
     18 C10        -5.2960   -0.4940    3.3840 c3        1 IVH      0.173000
     19 C11        -5.6560   -2.0110    3.3860 c3        1 IVH     -0.133000
     20 C12        -7.1460   -2.2120    3.5470 c1        1 IVH      0.063000
     21 C13        -6.4570   -0.1850    5.4910 c3        1 IVH     -0.067000
     22 C14        -6.4800    1.0330    6.4120 c3        1 IVH     -0.026000
     23 H1          6.0720   -0.8270   -1.0480 hc        1 IVH      0.072167
     24 H1A         5.3290   -1.2750   -3.4120 hc        1 IVH      0.072167
     25 H1B         5.3060    0.5040   -3.7430 hc        1 IVH      0.072167
     26 H2          6.0480    0.9550   -1.3790 hc        1 IVH      0.072167
     27 H2A         4.1450   -0.2090   -2.5520 hc        1 IVH      0.072167
     28 HO2        -4.5700    0.9270    6.7180 ho        1 IVH      0.220000
     29 H3          7.2290   -0.1120   -2.2400 hc        1 IVH      0.072167
     30 H3A         2.2530    0.1940   -0.6830 ha        1 IVH      0.199500
     31 HO3        -7.3570   -3.0010    1.7800 ho        1 IVH      0.201000
     32 H4          4.0550    0.2020   -0.3190 ha        1 IVH      0.199500
     33 H4A        -0.3560    0.2550   -1.0830 hs        1 IVH      0.024000
     34 HO4        -4.3280   -2.4110    2.0070 ho        1 IVH      0.234000
     35 HN5         1.5680    0.8230    3.0280 hn        1 IVH      0.236000
     36 HN5A        0.7600    0.5290    4.4910 hn        1 IVH      0.236000
     37 H9         -1.4500    0.4230    5.6780 hn        1 IVH      0.263000
     38 H10        -5.4540   -0.0900    2.3320 h2        1 IVH      0.153000
     39 H11        -5.1620   -2.5420    4.2510 h1        1 IVH      0.129000
     40 H12        -7.4670   -0.6740    5.4340 h1        1 IVH      0.111500
     41 H13        -5.6950   -0.9270    5.8400 h1        1 IVH      0.111500
     42 H14        -7.3620    0.9770    7.1040 h1        1 IVH      0.092500
     43 H14A       -6.5380    1.9760    5.8040 h1        1 IVH      0.092500
     44 N5          0.7040    0.8000    3.5390 nh        1 IVH     -0.344000
     45 C3          3.0320    0.2690    0.0940 c2        1 IVH     -0.528000
@<TRIPOS>BOND
     1    1   13 1   
     2    1   33 1   
     3    2    5 1   
     4    2   24 1   
     5    2   25 1   
     6    2   27 1   
     7    3   13 1   
     8    3   14 1   
     9    4   18 1   
    10    4   21 1   
    11    5   23 1   
    12    5   26 1   
    13    5   29 1   
    14    6   13 1   
    15    6   16 1   
    16    7   22 1   
    17    7   28 1   
    18    8   16 1   
    19    8   17 1   
    20    8   18 1   
    21    9   20 1   
    22    9   31 1   
    23   10   45 1   
    24   11   15 1   
    25   11   17 1   
    26   11   37 1   
    27   12   19 1   
    28   12   34 1   
    29   14   15 1   
    30   14   44 1   
    31   15   16 1   
    32   18   19 1   
    33   18   38 1   
    34   19   20 1   
    35   19   39 1   
    36   21   22 1   
    37   21   40 1   
    38   21   41 1   
    39   22   42 1   
    40   22   43 1   
    41   30   45 1   
    42   32   45 1   
    43   35   44 1   
    44   36   44 1   
@<TRIPOS>SUBSTRUCTURE
     1 IVH         1 TEMP              0 ****  ****    0 ROOT
