@<TRIPOS>MOLECULE
IVH
   45    47     1     0     0
SMALL
bcc


@<TRIPOS>ATOM
      1 S          -3.0000   -1.0240    0.2190 ss        1 IVH     -0.223400
      2 C1         -8.0270   -1.7540   -0.2350 c3        1 IVH     -0.094100
      3 N1         -2.2030    1.5120    0.1340 nb        1 IVH     -0.822000
      4 O1          3.9470   -0.2880    0.9630 os        1 IVH     -0.418600
      5 C2         -6.9730   -0.6780   -0.1990 c3        1 IVH     -0.075400
      6 N2         -0.5160   -0.2640    0.4020 nb        1 IVH     -0.751000
      7 O2          6.0740    1.2410   -0.1960 oh        1 IVH     -0.590800
      8 N3          1.8160    0.6530    0.5690 na        1 IVH     -0.297000
      9 O3          4.3260   -2.9920   -1.0870 oh        1 IVH     -0.573800
     10 C4         -4.5420   -0.1820    0.0100 c3        1 IVH     -0.029300
     11 N4          1.3090    2.8950    0.3840 nc        1 IVH     -0.540100
     12 O4          2.1190   -2.8770    0.2260 oh        1 IVH     -0.594800
     13 C5         -1.7890    0.2120    0.2540 ca        1 IVH      0.794300
     14 C6         -1.2560    2.5060    0.1540 ca        1 IVH      0.781200
     15 C7          0.1240    2.1470    0.3120 ca        1 IVH     -0.238200
     16 C8          0.4210    0.7270    0.4320 ca        1 IVH      0.466800
     17 C9          2.2850    1.9900    0.5390 cd        1 IVH      0.417700
     18 C10         2.5540   -0.5670    0.8060 c3        1 IVH      0.229800
     19 C11         2.4090   -1.6190   -0.3440 c3        1 IVH      0.082100
     20 C12         3.8030   -1.6910   -1.0050 c3        1 IVH      0.133100
     21 C13         4.7020   -0.7630   -0.1660 c3        1 IVH      0.051100
     22 C14         5.2000    0.4410   -0.9630 c3        1 IVH      0.115400
     23 H1         -7.8450   -2.4560   -1.0840 hc        1 IVH      0.035700
     24 H1A        -8.0230   -2.3420    0.7140 hc        1 IVH      0.035700
     25 H1B        -9.0390   -1.2990   -0.3640 hc        1 IVH      0.035700
     26 H2         -7.0070   -0.0820   -1.1490 hc        1 IVH      0.041700
     27 H2A        -7.1850    0.0320    0.6440 hc        1 IVH      0.041700
     28 HO2         5.6310    1.4270    0.6430 ho        1 IVH      0.408000
     29 H3         -5.5540   -1.8630    0.9280 hc        1 IVH      0.054700
     30 H3A        -5.3760   -1.9780   -0.8700 hc        1 IVH      0.054700
     31 HO3         4.1820   -3.4320   -0.2380 ho        1 IVH      0.426000
     32 H4         -4.7320    0.5260    0.8520 h1        1 IVH      0.079700
     33 H4A        -4.5530    0.4100   -0.9370 h1        1 IVH      0.079700
     34 HO4         1.1640   -2.9020    0.3790 ho        1 IVH      0.436000
     35 HN5        -2.5660    4.0820   -0.0490 hn        1 IVH      0.449800
     36 HN5A       -0.9150    4.5150    0.0910 hn        1 IVH      0.449800
     37 H9          3.3570    2.2060    0.6390 h5        1 IVH      0.079800
     38 H10         2.2190   -1.0070    1.7950 h2        1 IVH      0.106700
     39 H11         1.6260   -1.3290   -1.0930 h1        1 IVH      0.087700
     40 H12         3.7490   -1.3410   -2.0740 h1        1 IVH      0.094700
     41 H13         5.5710   -1.3220    0.2790 h1        1 IVH      0.101700
     42 H14         4.3300    1.0580   -1.3160 h1        1 IVH      0.056700
     43 H14A        5.8110    0.0990   -1.8410 h1        1 IVH      0.056700
     44 N5         -1.6150    3.8190    0.0080 nh        1 IVH     -0.959500
     45 C3         -5.5880   -1.2690   -0.0250 c3        1 IVH     -0.078400
@<TRIPOS>BOND
     1    1   10 1   
     2    1   13 1   
     3    2    5 1   
     4    2   23 1   
     5    2   24 1   
     6    2   25 1   
     7    3   13 ar  
     8    3   14 ar  
     9    4   18 1   
    10    4   21 1   
    11    5   26 1   
    12    5   27 1   
    13    5   45 1   
    14    6   13 ar  
    15    6   16 ar  
    16    7   22 1   
    17    7   28 1   
    18    8   16 1   
    19    8   17 1   
    20    8   18 1   
    21    9   20 1   
    22    9   31 1   
    23   10   32 1   
    24   10   33 1   
    25   10   45 1   
    26   11   15 1   
    27   11   17 2   
    28   12   19 1   
    29   12   34 1   
    30   14   15 ar  
    31   14   44 1   
    32   15   16 ar  
    33   17   37 1   
    34   18   19 1   
    35   18   38 1   
    36   19   20 1   
    37   19   39 1   
    38   20   21 1   
    39   20   40 1   
    40   21   22 1   
    41   21   41 1   
    42   22   42 1   
    43   22   43 1   
    44   29   45 1   
    45   30   45 1   
    46   35   44 1   
    47   36   44 1   
@<TRIPOS>SUBSTRUCTURE
     1 IVH         1 TEMP              0 ****  ****    0 ROOT
