@<TRIPOS>MOLECULE
IVH
   45    43     1     0     0
SMALL
bcc


@<TRIPOS>ATOM
      1 S           1.8260    0.1450   -1.4620 ss        1 IVH      0.283000
      2 C1          5.0360   -2.0170   -4.6260 c3        1 IVH     -0.212000
      3 N1          2.0930    2.3320    0.5780 n1        1 IVH     -0.296000
      4 O1         -2.1830   -0.7670    2.0760 os        1 IVH     -0.284000
      5 C2          4.7780   -1.6480   -3.1400 c3        1 IVH     -0.154000
      6 N2          0.2660    0.8600    0.2410 n1        1 IVH     -0.226000
      7 O2         -2.1590   -3.7560    2.3660 oh        1 IVH     -0.323000
      8 C3          3.8490   -0.4740   -3.0550 c3        1 IVH     -0.157000
      9 N3         -1.8090    1.5460    1.4000 n2        1 IVH     -0.201000
     10 O3         -5.3940   -0.9870    1.3810 oh        1 IVH     -0.322000
     11 C4          3.5590   -0.1980   -1.6600 c3        1 IVH     -0.289000
     12 N4         -0.9770    3.3490    2.3230 n2        1 IVH     -0.111000
     13 O4         -4.8110    1.4550    0.9530 oh        1 IVH     -0.302000
     14 C5          1.5790    1.2150    0.0050 c1        1 IVH     -0.059000
     15 N5          1.9980    4.1340    2.1300 n3        1 IVH     -0.359000
     16 C6          1.3150    3.1040    1.3860 c2        1 IVH      0.261000
     17 C7          0.0030    2.7510    1.6220 c2        1 IVH     -0.252000
     18 C8         -0.5140    1.6320    1.0490 c1        1 IVH      0.088000
     19 C9         -2.1000    2.6100    2.1900 c1        1 IVH     -0.041000
     20 C10        -2.8020    0.6770    1.7770 c2        1 IVH      0.125000
     21 C11        -3.6540    0.5170    0.7950 c3        1 IVH      0.027000
     22 C12        -4.1240   -0.9410    0.9100 c3        1 IVH     -0.025000
     23 C13        -3.1540   -1.6160    1.9200 c3        1 IVH     -0.054000
     24 C14        -2.6180   -2.9260    1.3340 c3        1 IVH     -0.032000
     25 H1          5.4580   -1.2970   -5.0590 hc        1 IVH      0.074333
     26 H1A         4.1940   -2.2100   -5.0630 hc        1 IVH      0.074333
     27 H1B         5.6080   -2.8000   -4.6690 hc        1 IVH      0.074333
     28 H2          5.5950   -1.4280   -2.7280 hc        1 IVH      0.081500
     29 H2A         4.3790   -2.4100   -2.6810 hc        1 IVH      0.081500
     30 HO2        -1.5510   -4.3180    2.0430 ho        1 IVH      0.211000
     31 H3          3.0010   -0.6800   -3.5390 hc        1 IVH      0.093500
     32 H3A         4.2670    0.2930   -3.4500 hc        1 IVH      0.093500
     33 HO3        -5.8740   -1.4990    0.8720 ho        1 IVH      0.216000
     34 H4          3.7860   -0.9340   -1.1490 h1        1 IVH      0.119000
     35 H4A         4.0720    0.5640   -1.3710 h1        1 IVH      0.119000
     36 HO4        -5.1160    1.6690    0.1720 ho        1 IVH      0.222000
     37 HN5         2.9410    4.2600    2.0190 hn        1 IVH      0.246000
     38 HN5A        1.5450    4.6660    2.6520 hn        1 IVH      0.246000
     39 H9         -2.9270    2.7590    2.6500 DU        1 IVH      0.205000
     40 H10        -3.2390    1.0010    2.5290 h4        1 IVH      0.143000
     41 H11        -3.2100    0.6640   -0.0670 h1        1 IVH      0.162000
     42 H12        -4.0670   -1.3910    0.0320 h1        1 IVH      0.127000
     43 H13        -3.5960   -1.7760    2.7510 h1        1 IVH      0.127000
     44 H14        -1.8990   -2.7340    0.7390 h1        1 IVH      0.099000
     45 H14A       -3.3680   -3.4000    0.8220 h1        1 IVH      0.099000
@<TRIPOS>BOND
     1    1   11 1   
     2    1   14 1   
     3    2    5 1   
     4    2   25 1   
     5    2   26 1   
     6    2   27 1   
     7    3   16 1   
     8    4   20 1   
     9    4   23 1   
    10    5    8 1   
    11    5   28 1   
    12    5   29 1   
    13    6   14 1   
    14    7   24 1   
    15    7   30 1   
    16    8   11 1   
    17    8   31 1   
    18    8   32 1   
    19    9   18 1   
    20    9   19 1   
    21   10   22 1   
    22   10   33 1   
    23   11   34 1   
    24   11   35 1   
    25   12   17 1   
    26   12   19 1   
    27   13   21 1   
    28   13   36 1   
    29   15   16 1   
    30   15   37 1   
    31   15   38 1   
    32   16   17 1   
    33   17   18 1   
    34   20   21 1   
    35   20   40 1   
    36   21   22 1   
    37   21   41 1   
    38   22   23 1   
    39   22   42 1   
    40   23   24 1   
    41   23   43 1   
    42   24   44 1   
    43   24   45 1   
@<TRIPOS>SUBSTRUCTURE
     1 IVH         1 TEMP              0 ****  ****    0 ROOT
