@<TRIPOS>MOLECULE
IVK
   58    61     1     0     0
SMALL
bcc


@<TRIPOS>ATOM
      1 C1          0.2800   -0.1320    0.6950 c3        1 IVK     -0.167700
      2 C2          1.7020    0.0080    1.2620 c3        1 IVK     -0.152700
      3 C3          1.5490   -0.1040    2.7960 c3        1 IVK      0.163800
      4 N4          0.1420   -0.3480    3.1280 n3        1 IVK     -0.710600
      5 C5         -0.5580   -0.6570    1.8810 c3        1 IVK      0.151800
      6 C6          0.2510   -1.0240   -0.5400 c         1 IVK      0.678100
      7 C7          2.3310    1.3320    0.8370 c         1 IVK      0.670100
      8 N8          2.6630    1.4160   -0.5050 ns        1 IVK     -0.463100
      9 O9          2.5100    2.2580    1.6500 o         1 IVK     -0.595100
     10 O10         1.2930   -1.2170   -1.1970 o         1 IVK     -0.607100
     11 N11        -0.9810   -1.5370   -0.8990 ns        1 IVK     -0.458100
     12 C12        -1.2740   -2.3730   -1.9920 ca        1 IVK      0.060600
     13 C14        -1.9890   -4.0350   -4.1420 ca        1 IVK     -0.005600
     14 C15        -0.7020   -3.4970   -4.0700 ca        1 IVK     -0.098500
     15 C16        -2.9250   -3.7460   -3.1440 ca        1 IVK     -0.098500
     16 C17        -0.3420   -2.6720   -3.0080 ca        1 IVK     -0.156000
     17 Cl1        -2.4200   -5.0400   -5.4420 cl        1 IVK     -0.089400
     18 C19         3.2780    2.4990   -1.1500 ca        1 IVK      0.039600
     19 C20         3.3950    3.7810   -0.5790 ca        1 IVK     -0.130000
     20 C21         4.5160    4.6440   -2.5580 ca        1 IVK      0.029600
     21 C22         4.3960    3.3790   -3.1620 ca        1 IVK     -0.160000
     22 C23         4.0010    4.8280   -1.2610 ca        1 IVK     -0.094000
     23 C24         3.7960    2.3200   -2.4710 ca        1 IVK      0.081900
     24 N25         5.1500    5.7110   -3.2570 n         1 IVK     -0.258200
     25 C26         6.3120    5.4460   -3.9640 cc        1 IVK      0.013600
     26 C27         6.4340    7.7280   -4.7460 cd        1 IVK     -0.038000
     27 C28         5.3030    8.0280   -4.0610 cc        1 IVK     -0.254200
     28 C29         6.9630    6.4030   -4.6960 cd        1 IVK     -0.246000
     29 C30         4.5960    7.0230   -3.2610 c         1 IVK      0.691700
     30 O31         3.5660    7.2680   -2.6050 o         1 IVK     -0.628500
     31 F32         3.7070    1.1120   -3.0860 f         1 IVK     -0.138900
     32 C33        -0.4660    0.6920    3.9250 c3        1 IVK      0.132800
     33 C34        -1.6620    0.1390    4.7850 c3        1 IVK      0.620900
     34 F35        -1.3360   -0.8620    5.6560 f         1 IVK     -0.237967
     35 F36        -2.2170    1.1210    5.5670 f         1 IVK     -0.237967
     36 F30        -2.7120   -0.3490    4.0490 f         1 IVK     -0.237967
     37 C35        -2.5750   -2.9260   -2.0790 ca        1 IVK     -0.156000
     38 H1         -0.1110    0.8740    0.3760 hc        1 IVK      0.093700
     39 H2          2.3510   -0.8370    0.8980 hc        1 IVK      0.108700
     40 H51C       -1.5940   -0.2240    1.8640 h1        1 IVK      0.070200
     41 H52C       -0.6390   -1.7790    1.8370 h1        1 IVK      0.070200
     42 H31C        1.9610    0.8100    3.3050 h1        1 IVK      0.081700
     43 H32C        2.1240   -1.0010    3.1600 h1        1 IVK      0.081700
     44 H331        0.2810    1.0960    4.6620 h1        1 IVK      0.079700
     45 H332       -0.8860    1.5470    3.3240 h1        1 IVK      0.079700
     46 H11        -1.7470   -1.3510   -0.2880 hn        1 IVK      0.322500
     47 H8          2.5330    0.5920   -1.0640 hn        1 IVK      0.354500
     48 H17         0.6810   -2.2630   -2.9770 ha        1 IVK      0.156500
     49 H35        -3.3290   -2.7140   -1.3050 ha        1 IVK      0.156500
     50 H15         0.0390   -3.7210   -4.8530 ha        1 IVK      0.151500
     51 H16        -3.9410   -4.1680   -3.1970 ha        1 IVK      0.151500
     52 H20         3.0050    3.9730    0.4360 ha        1 IVK      0.181000
     53 H23         4.0500    5.8210   -0.7820 ha        1 IVK      0.170000
     54 H22         4.7590    3.1940   -4.1860 ha        1 IVK      0.155000
     55 H26         6.6950    4.4100   -3.8940 h4        1 IVK      0.158000
     56 H29         7.8850    6.1570   -5.2370 ha        1 IVK      0.153000
     57 H27         6.9610    8.4870   -5.3440 ha        1 IVK      0.142000
     58 H28         4.8450    9.0270   -4.0570 ha        1 IVK      0.165000
@<TRIPOS>BOND
     1    1    2 1   
     2    1    5 1   
     3    1    6 1   
     4    1   38 1   
     5    2    3 1   
     6    2    7 1   
     7    2   39 1   
     8    3    4 1   
     9    3   42 1   
    10    3   43 1   
    11    4    5 1   
    12    4   32 1   
    13    5   40 1   
    14    5   41 1   
    15    6   10 2   
    16    6   11 1   
    17    7    8 1   
    18    7    9 2   
    19    8   18 1   
    20    8   47 1   
    21   11   12 1   
    22   11   46 1   
    23   12   16 ar  
    24   12   37 ar  
    25   13   14 ar  
    26   13   15 ar  
    27   13   17 1   
    28   14   16 ar  
    29   14   50 1   
    30   15   37 ar  
    31   15   51 1   
    32   16   48 1   
    33   18   19 ar  
    34   18   23 ar  
    35   19   22 ar  
    36   19   52 1   
    37   20   21 ar  
    38   20   22 ar  
    39   20   24 1   
    40   21   23 ar  
    41   21   54 1   
    42   22   53 1   
    43   23   31 1   
    44   24   25 1   
    45   24   29 1   
    46   25   28 2   
    47   25   55 1   
    48   26   27 2   
    49   26   28 1   
    50   26   57 1   
    51   27   29 1   
    52   27   58 1   
    53   28   56 1   
    54   29   30 2   
    55   32   33 1   
    56   32   44 1   
    57   32   45 1   
    58   33   34 1   
    59   33   35 1   
    60   33   36 1   
    61   37   49 1   
@<TRIPOS>SUBSTRUCTURE
     1 IVK         1 TEMP              0 ****  ****    0 ROOT
