@<TRIPOS>MOLECULE
IVK
   60    63     1     0     0
SMALL
bcc


@<TRIPOS>ATOM
      1 C1         -0.1890    0.8500    0.0740 c3        1 IVK     -0.121700
      2 C2          1.1470    1.4370    0.6170 c3        1 IVK     -0.149700
      3 C3          1.4730    0.5870    1.8830 c3        1 IVK      0.188800
      4 N4          0.4750   -0.4700    1.9080 n3        1 IVK     -0.806600
      5 C5         -0.7300    0.0340    1.2670 c3        1 IVK      0.158800
      6 C6          0.1200    0.0540   -1.1740 c         1 IVK      0.552100
      7 C7          1.0010    2.8970    0.9510 c         1 IVK      0.548100
      8 N8          2.2740    3.6330    1.3150 n4        1 IVK     -0.516200
      9 O9         -0.0210    3.5640    0.9600 o         1 IVK     -0.392100
     10 O10         0.6410    0.5280   -2.1760 o         1 IVK     -0.412100
     11 N11        -0.1980   -1.4150   -1.2390 n4        1 IVK     -0.528200
     12 C12        -1.5760   -1.6510   -1.6920 ca        1 IVK     -0.093400
     13 C14        -4.1580   -2.1820   -2.6000 ca        1 IVK      0.069400
     14 C15        -3.2810   -1.4160   -3.3850 ca        1 IVK     -0.104500
     15 C16        -3.7320   -2.6850   -1.3610 ca        1 IVK     -0.104500
     16 C17        -1.9920   -1.1510   -2.9400 ca        1 IVK     -0.092000
     17 CL1        -5.7150   -2.5020   -3.1470 cl        1 IVK      0.020600
     18 C19         3.1320    3.8510    0.1540 ca        1 IVK     -0.172400
     19 C20         2.9830    5.0040   -0.6390 ca        1 IVK     -0.042000
     20 C21         4.8200    4.2850   -2.0830 ca        1 IVK      0.171600
     21 C22         4.9930    3.1380   -1.2660 ca        1 IVK     -0.145000
     22 C23         3.8070    5.2160   -1.7300 ca        1 IVK     -0.160000
     23 C24         4.1620    2.9220   -0.1670 ca        1 IVK      0.165900
     24 N25         5.6250    4.4820   -3.2160 n         1 IVK     -0.280200
     25 C26         5.9930    5.7840   -3.5840 cc        1 IVK     -0.034400
     26 C27         7.1840    4.9580   -5.5270 cd        1 IVK     -0.026000
     27 C28         6.8540    3.6850   -5.2060 cc        1 IVK     -0.228200
     28 C29         6.7440    6.0390   -4.6910 cd        1 IVK     -0.168000
     29 C30         6.0440    3.3720   -4.0280 c         1 IVK      0.703700
     30 O31         5.6880    2.2260   -3.7050 o         1 IVK     -0.621500
     31 F32         4.3350    1.8240    0.6080 f         1 IVK     -0.133900
     32 C33         0.3400   -1.3000    3.0660 c3        1 IVK      0.153800
     33 C34         0.4590   -2.8220    2.6440 c3        1 IVK      0.621900
     34 F35         1.7330   -3.2020    2.3270 f         1 IVK     -0.228633
     35 F36         0.0310   -3.6690    3.6220 f         1 IVK     -0.228633
     36 F30        -0.2820   -3.1460    1.5280 f         1 IVK     -0.228633
     37 C35        -2.4460   -2.4260   -0.9020 ca        1 IVK     -0.092000
     38 H1         -0.9220    1.6550   -0.2190 hc        1 IVK      0.154700
     39 H2          1.9750    1.3270   -0.1410 hc        1 IVK      0.135700
     40 H51C       -1.3290    0.7250    1.9310 h1        1 IVK      0.088200
     41 H52C       -1.4090   -0.8140    0.9840 h1        1 IVK      0.088200
     42 H31C        1.4490    1.2250    2.8100 h1        1 IVK      0.077700
     43 H32C        2.4960    0.1260    1.7910 h1        1 IVK      0.077700
     44 H331        1.1610   -1.1100    3.8120 h1        1 IVK      0.106700
     45 H332       -0.6580   -1.1810    3.5750 h1        1 IVK      0.106700
     46 H11         0.4360   -1.8560   -1.9270 hn        1 IVK      0.482800
     47 H8          2.0270    4.5510    1.7210 hn        1 IVK      0.476300
     48 H17        -1.3100   -0.5580   -3.5750 ha        1 IVK      0.168000
     49 H35        -2.1240   -2.8540    0.0640 ha        1 IVK      0.168000
     50 H15        -3.6100   -1.0290   -4.3670 ha        1 IVK      0.191000
     51 H16        -4.4150   -3.3000   -0.7470 ha        1 IVK      0.191000
     52 H20         2.2040    5.7520   -0.4060 ha        1 IVK      0.170000
     53 H23         3.6460    6.1230   -2.3410 ha        1 IVK      0.185000
     54 H22         5.7800    2.3910   -1.4920 ha        1 IVK      0.220000
     55 H26         5.6680    6.5930   -2.9050 h4        1 IVK      0.164000
     56 H29         7.0270    7.0720   -4.9450 ha        1 IVK      0.180000
     57 H27         7.7930    5.1910   -6.4170 ha        1 IVK      0.175000
     58 H28         7.1660    2.8090   -5.7970 ha        1 IVK      0.189000
     59 H82         2.7960    3.0840    2.0130 hn        1 IVK      0.476300
     60 H112       -0.0520   -1.8650   -0.3210 hn        1 IVK      0.482800
@<TRIPOS>BOND
     1    1    2 1   
     2    1    5 1   
     3    1    6 1   
     4    1   38 1   
     5    2    3 1   
     6    2    7 1   
     7    2   39 1   
     8    3    4 1   
     9    3   42 1   
    10    3   43 1   
    11    4    5 1   
    12    4   32 1   
    13    5   40 1   
    14    5   41 1   
    15    6   10 2   
    16    6   11 1   
    17    7    8 1   
    18    7    9 2   
    19    8   18 1   
    20    8   47 1   
    21    8   59 1   
    22   11   12 1   
    23   11   46 1   
    24   11   60 1   
    25   12   16 ar  
    26   12   37 ar  
    27   13   14 ar  
    28   13   15 ar  
    29   13   17 1   
    30   14   16 ar  
    31   14   50 1   
    32   15   37 ar  
    33   15   51 1   
    34   16   48 1   
    35   18   19 ar  
    36   18   23 ar  
    37   19   22 ar  
    38   19   52 1   
    39   20   21 ar  
    40   20   22 ar  
    41   20   24 1   
    42   21   23 ar  
    43   21   54 1   
    44   22   53 1   
    45   23   31 1   
    46   24   25 1   
    47   24   29 1   
    48   25   28 2   
    49   25   55 1   
    50   26   27 2   
    51   26   28 1   
    52   26   57 1   
    53   27   29 1   
    54   27   58 1   
    55   28   56 1   
    56   29   30 2   
    57   32   33 1   
    58   32   44 1   
    59   32   45 1   
    60   33   34 1   
    61   33   35 1   
    62   33   36 1   
    63   37   49 1   
@<TRIPOS>SUBSTRUCTURE
     1 IVK         1 TEMP              0 ****  ****    0 ROOT
