@<TRIPOS>MOLECULE
IVK
   58    61     1     0     0
SMALL
bcc


@<TRIPOS>ATOM
      1 C1          1.6170   -1.2660   -0.2280 c3        1 IVK     -0.167700
      2 C2          0.7490   -1.9870    0.8160 c3        1 IVK     -0.152700
      3 C3          1.2280   -3.4570    0.8110 c3        1 IVK      0.163800
      4 N4          2.3410   -3.6010   -0.1310 n3        1 IVK     -0.710600
      5 C5          2.7640   -2.2570   -0.5240 c3        1 IVK      0.151800
      6 C6          2.0770    0.0990    0.2670 c         1 IVK      0.678100
      7 C7         -0.7330   -1.8590    0.4760 c         1 IVK      0.670100
      8 N8         -1.2640   -0.5910    0.6460 n         1 IVK     -0.463100
      9 O9         -1.3930   -2.8320    0.0660 o         1 IVK     -0.595100
     10 O10         1.4570    0.6730    1.1850 o         1 IVK     -0.607100
     11 N11         3.1550    0.6610   -0.3910 n         1 IVK     -0.458100
     12 C12         3.7600    1.9040   -0.1330 ca        1 IVK      0.060600
     13 C14         5.0520    4.3650    0.2760 ca        1 IVK     -0.005600
     14 C15         3.8650    4.0760    0.9530 ca        1 IVK     -0.098500
     15 C16         5.6000    3.4300   -0.6070 ca        1 IVK     -0.098500
     16 C17         3.2200    2.8590    0.7540 ca        1 IVK     -0.156000
     17 CL1         5.8320    5.8540    0.5250 cl        1 IVK     -0.089400
     18 C19        -2.5960   -0.2050    0.4380 ca        1 IVK      0.039600
     19 C20        -3.5380   -0.9960   -0.2480 ca        1 IVK     -0.130000
     20 C21        -5.2720    0.6850    0.0400 ca        1 IVK      0.029600
     21 C22        -4.3480    1.5060    0.7130 ca        1 IVK     -0.160000
     22 C23        -4.8440   -0.5670   -0.4420 ca        1 IVK     -0.094000
     23 C24        -3.0350    1.0680    0.9190 ca        1 IVK      0.081900
     24 N25        -6.6150    1.1240   -0.1440 n         1 IVK     -0.258200
     25 C26        -7.2620    1.7460    0.9120 cc        1 IVK      0.013600
     26 C27        -9.2380    2.1100   -0.4290 cd        1 IVK     -0.038000
     27 C28        -8.6410    1.5000   -1.4830 cc        1 IVK     -0.254200
     28 C29        -8.5370    2.2350    0.8090 cd        1 IVK     -0.246000
     29 C30        -7.2820    0.9590   -1.3910 c         1 IVK      0.691700
     30 O31        -6.7100    0.3780   -2.3330 o         1 IVK     -0.628500
     31 F32        -2.1760    1.8870    1.5800 f         1 IVK     -0.138900
     32 C33         2.0750   -4.5000   -1.2300 c3        1 IVK      0.132800
     33 C34         3.3980   -5.1300   -1.8000 c3        1 IVK      0.620900
     34 F35         4.1360   -5.8460   -0.8980 f         1 IVK     -0.237967
     35 F36         3.1400   -6.0100   -2.8210 f         1 IVK     -0.237967
     36 F30         4.2720   -4.2210   -2.3410 f         1 IVK     -0.237967
     37 C35         4.9650    2.2120   -0.8110 ca        1 IVK     -0.156000
     38 H1          1.0240   -1.0870   -1.1680 hc        1 IVK      0.093700
     39 H2          0.9270   -1.5500    1.8390 hc        1 IVK      0.108700
     40 H51C        3.0640   -2.2110   -1.6060 h1        1 IVK      0.070200
     41 H52C        3.6650   -2.0140    0.1060 h1        1 IVK      0.070200
     42 H31C        1.6340   -3.7170    1.8280 h1        1 IVK      0.081700
     43 H32C        0.3750   -4.1530    0.5820 h1        1 IVK      0.081700
     44 H331        1.4500   -5.3660   -0.8730 h1        1 IVK      0.079700
     45 H332        1.5590   -4.0150   -2.1070 h1        1 IVK      0.079700
     46 H11         3.6020    0.1060   -1.0890 hn        1 IVK      0.322500
     47 H8         -0.6620    0.1110    1.0380 hn        1 IVK      0.354500
     48 H17         2.2850    2.6570    1.3020 ha        1 IVK      0.156500
     49 H35         5.4160    1.4910   -1.5110 ha        1 IVK      0.156500
     50 H15         3.4290    4.8090    1.6490 ha        1 IVK      0.151500
     51 H16         6.5360    3.6540   -1.1430 ha        1 IVK      0.151500
     52 H20        -3.2460   -1.9840   -0.6450 ha        1 IVK      0.181000
     53 H23        -5.5410   -1.2110   -1.0060 ha        1 IVK      0.170000
     54 H22        -4.6300    2.5040    1.0830 ha        1 IVK      0.155000
     55 H26        -6.6890    1.8170    1.8560 h4        1 IVK      0.158000
     56 H29        -9.0200    2.7150    1.6690 ha        1 IVK      0.153000
     57 H27       -10.2600    2.5140   -0.5030 ha        1 IVK      0.142000
     58 H28        -9.1250    1.3720   -2.4610 ha        1 IVK      0.165000
@<TRIPOS>BOND
     1    1    2 1   
     2    1    5 1   
     3    1    6 1   
     4    1   38 1   
     5    2    3 1   
     6    2    7 1   
     7    2   39 1   
     8    3    4 1   
     9    3   42 1   
    10    3   43 1   
    11    4    5 1   
    12    4   32 1   
    13    5   40 1   
    14    5   41 1   
    15    6   10 2   
    16    6   11 1   
    17    7    8 1   
    18    7    9 2   
    19    8   18 1   
    20    8   47 1   
    21   11   12 1   
    22   11   46 1   
    23   12   16 ar  
    24   12   37 ar  
    25   13   14 ar  
    26   13   15 ar  
    27   13   17 1   
    28   14   16 ar  
    29   14   50 1   
    30   15   37 ar  
    31   15   51 1   
    32   16   48 1   
    33   18   19 ar  
    34   18   23 ar  
    35   19   22 ar  
    36   19   52 1   
    37   20   21 ar  
    38   20   22 ar  
    39   20   24 1   
    40   21   23 ar  
    41   21   54 1   
    42   22   53 1   
    43   23   31 1   
    44   24   25 1   
    45   24   29 1   
    46   25   28 2   
    47   25   55 1   
    48   26   27 2   
    49   26   28 1   
    50   26   57 1   
    51   27   29 1   
    52   27   58 1   
    53   28   56 1   
    54   29   30 2   
    55   32   33 1   
    56   32   44 1   
    57   32   45 1   
    58   33   34 1   
    59   33   35 1   
    60   33   36 1   
    61   37   49 1   
@<TRIPOS>SUBSTRUCTURE
     1 IVK         1 TEMP              0 ****  ****    0 ROOT
