@<TRIPOS>MOLECULE
IVK
   58    61     1     0     0
SMALL
bcc


@<TRIPOS>ATOM
      1 C1          0.2860   -0.1350    0.6970 c3        1 IVK     -0.167700
      2 C2          1.7140   -0.0080    1.2510 c3        1 IVK     -0.152700
      3 C3          1.5770   -0.1300    2.7860 c3        1 IVK      0.163800
      4 N4          0.1720   -0.3670    3.1300 n3        1 IVK     -0.710600
      5 C5         -0.5430   -0.6630    1.8880 c3        1 IVK      0.151800
      6 C6          0.2390   -1.0190   -0.5430 c         1 IVK      0.678100
      7 C7          2.3480    1.3150    0.8300 c         1 IVK      0.670100
      8 N8          2.6670    1.4070   -0.5150 n         1 IVK     -0.463100
      9 O9          2.5400    2.2340    1.6470 o         1 IVK     -0.595100
     10 O10         1.2740   -1.2130   -1.2120 o         1 IVK     -0.607100
     11 N11        -0.9990   -1.5220   -0.8930 n         1 IVK     -0.458100
     12 C12        -1.3080   -2.3480   -1.9900 ca        1 IVK      0.060600
     13 C14        -2.0550   -3.9900   -4.1440 ca        1 IVK     -0.005600
     14 C15        -0.7630   -3.4630   -4.0790 ca        1 IVK     -0.098500
     15 C16        -2.9800   -3.7000   -3.1360 ca        1 IVK     -0.098500
     16 C17        -0.3870   -2.6480   -3.0150 ca        1 IVK     -0.156000
     17 CL1        -2.5050   -4.9820   -5.4460 cl        1 IVK     -0.089400
     18 C19         3.2810    2.4910   -1.1580 ca        1 IVK      0.039600
     19 C20         3.4140    3.7680   -0.5790 ca        1 IVK     -0.130000
     20 C21         4.5190    4.6380   -2.5630 ca        1 IVK      0.029600
     21 C22         4.3840    3.3790   -3.1760 ca        1 IVK     -0.160000
     22 C23         4.0200    4.8160   -1.2590 ca        1 IVK     -0.094000
     23 C24         3.7850    2.3180   -2.4860 ca        1 IVK      0.081900
     24 N25         5.1540    5.7060   -3.2600 n         1 IVK     -0.258200
     25 C26         6.3060    5.4390   -3.9810 cc        1 IVK      0.013600
     26 C27         6.4360    7.7260   -4.7470 cd        1 IVK     -0.038000
     27 C28         5.3140    8.0290   -4.0470 cc        1 IVK     -0.254200
     28 C29         6.9570    6.3970   -4.7130 cd        1 IVK     -0.246000
     29 C30         4.6090    7.0220   -3.2480 c         1 IVK      0.691700
     30 O31         3.5880    7.2700   -2.5800 o         1 IVK     -0.628500
     31 F32         3.6810    1.1160   -3.1090 f         1 IVK     -0.138900
     32 C33        -0.4220    0.6700    3.9400 c3        1 IVK      0.132800
     33 C34        -1.6140    0.1190    4.8080 c3        1 IVK      0.620900
     34 F35        -1.2860   -0.8910    5.6690 f         1 IVK     -0.237967
     35 F36        -2.1540    1.0990    5.6030 f         1 IVK     -0.237967
     36 F30        -2.6740   -0.3560    4.0790 f         1 IVK     -0.237967
     37 C35        -2.6140   -2.8900   -2.0690 ca        1 IVK     -0.156000
     38 H1         -0.1020    0.8760    0.3890 hc        1 IVK      0.093700
     39 H2          2.3550   -0.8540    0.8750 hc        1 IVK      0.108700
     40 H51C       -1.5760   -0.2240    1.8840 h1        1 IVK      0.070200
     41 H52C       -0.6320   -1.7850    1.8370 h1        1 IVK      0.070200
     42 H31C        2.0000    0.7780    3.2970 h1        1 IVK      0.081700
     43 H32C        2.1490   -1.0330    3.1380 h1        1 IVK      0.081700
     44 H331       -0.8420    1.5330    3.3500 h1        1 IVK      0.079700
     45 H332        0.3350    1.0640    4.6740 h1        1 IVK      0.079700
     46 H11        -1.7580   -1.3350   -0.2740 hn        1 IVK      0.322500
     47 H8          2.5250    0.5890   -1.0790 hn        1 IVK      0.354500
     48 H17         0.6400   -2.2460   -2.9910 ha        1 IVK      0.156500
     49 H35        -3.3590   -2.6770   -1.2870 ha        1 IVK      0.156500
     50 H15        -0.0310   -3.6870   -4.8710 ha        1 IVK      0.151500
     51 H16        -3.9990   -4.1140   -3.1820 ha        1 IVK      0.151500
     52 H20         3.0350    3.9550    0.4420 ha        1 IVK      0.181000
     53 H23         4.0800    5.8050   -0.7730 ha        1 IVK      0.170000
     54 H22         4.7350    3.2000   -4.2040 ha        1 IVK      0.155000
     55 H26         6.6830    4.3990   -3.9240 h4        1 IVK      0.158000
     56 H29         7.8710    6.1490   -5.2650 ha        1 IVK      0.153000
     57 H27         6.9620    8.4870   -5.3450 ha        1 IVK      0.142000
     58 H28         4.8640    9.0310   -4.0320 ha        1 IVK      0.165000
@<TRIPOS>BOND
     1    1    2 1   
     2    1    5 1   
     3    1    6 1   
     4    1   38 1   
     5    2    3 1   
     6    2    7 1   
     7    2   39 1   
     8    3    4 1   
     9    3   42 1   
    10    3   43 1   
    11    4    5 1   
    12    4   32 1   
    13    5   40 1   
    14    5   41 1   
    15    6   10 2   
    16    6   11 1   
    17    7    8 1   
    18    7    9 2   
    19    8   18 1   
    20    8   47 1   
    21   11   12 1   
    22   11   46 1   
    23   12   16 ar  
    24   12   37 ar  
    25   13   14 ar  
    26   13   15 ar  
    27   13   17 1   
    28   14   16 ar  
    29   14   50 1   
    30   15   37 ar  
    31   15   51 1   
    32   16   48 1   
    33   18   19 ar  
    34   18   23 ar  
    35   19   22 ar  
    36   19   52 1   
    37   20   21 ar  
    38   20   22 ar  
    39   20   24 1   
    40   21   23 ar  
    41   21   54 1   
    42   22   53 1   
    43   23   31 1   
    44   24   25 1   
    45   24   29 1   
    46   25   28 2   
    47   25   55 1   
    48   26   27 2   
    49   26   28 1   
    50   26   57 1   
    51   27   29 1   
    52   27   58 1   
    53   28   56 1   
    54   29   30 2   
    55   32   33 1   
    56   32   44 1   
    57   32   45 1   
    58   33   34 1   
    59   33   35 1   
    60   33   36 1   
    61   37   49 1   
@<TRIPOS>SUBSTRUCTURE
     1 IVK         1 TEMP              0 ****  ****    0 ROOT
