@<TRIPOS>MOLECULE
IVL
   29    29     1     0     0
SMALL
bcc


@<TRIPOS>ATOM
      1 CAF         0.1240    0.1880    0.1180 c3        1 IVL      0.098300
      2 CAE         1.5790   -0.1170    0.4760 c3        1 IVL     -0.100400
      3 CAD         1.9210    0.7860    1.6530 c3        1 IVL     -0.100400
      4 CAA         0.6420    1.5350    2.0260 c3        1 IVL      0.098300
      5 CAH        -1.0810   -0.1860    2.2070 c3        1 IVL      0.071100
      6 CAJ        -1.5710    1.8350    0.8330 c3        1 IVL      0.121800
      7 CAK        -2.8980    1.9130    1.5890 c3        1 IVL     -0.068400
      8 CAL        -2.8880    2.9330    2.7080 c3        1 IVL     -0.207400
      9 CAM        -1.5320    2.9320    3.4150 c         1 IVL      0.892600
     10 N3         -0.5230    0.8630    1.3120 n4        1 IVL     -0.584800
     11 OAB        -1.2900    2.0250    4.2690 o         1 IVL     -0.844800
     12 OAC        -0.6610    3.7680    3.0350 o         1 IVL     -0.844800
     13 HAA1        0.6910    2.6200    1.7180 hx        1 IVL      0.120950
     14 HAA2        0.4470    1.5350    3.1440 hx        1 IVL      0.120950
     15 HAD1        2.7210    1.5200    1.3860 hc        1 IVL      0.071200
     16 HAD2        2.2880    0.1860    2.5230 hc        1 IVL      0.071200
     17 HAE1        2.2380    0.0860   -0.4040 hc        1 IVL      0.071200
     18 HAE2        1.6980   -1.1950    0.7510 hc        1 IVL      0.071200
     19 HAF1        0.0940    0.8950   -0.7570 hx        1 IVL      0.120950
     20 HAF2       -0.4510   -0.7390   -0.1450 hx        1 IVL      0.120950
     21 HAH1       -0.2590   -0.9010    2.4740 hx        1 IVL      0.102033
     22 HAH2       -1.4690    0.3060    3.1550 hx        1 IVL      0.102033
     23 HAH3       -1.9030   -0.7350    1.6810 hx        1 IVL      0.102033
     24 HAJ1       -1.1080    2.8690    0.8530 hx        1 IVL      0.092700
     25 HAJ2       -1.8110    1.5550   -0.2330 hx        1 IVL      0.092700
     26 HAK1       -3.6650    2.2190    0.8240 hc        1 IVL      0.048700
     27 HAK2       -3.2230    0.9170    1.9820 hc        1 IVL      0.048700
     28 HAL1       -3.0790    3.9560    2.2950 hc        1 IVL      0.056700
     29 HAL2       -3.6940    2.6920    3.4430 hc        1 IVL      0.056700
@<TRIPOS>BOND
     1    1    2 1   
     2    1   10 1   
     3    1   19 1   
     4    1   20 1   
     5    2    3 1   
     6    2   17 1   
     7    2   18 1   
     8    3    4 1   
     9    3   15 1   
    10    3   16 1   
    11    4   10 1   
    12    4   13 1   
    13    4   14 1   
    14    5   10 1   
    15    5   21 1   
    16    5   22 1   
    17    5   23 1   
    18    6    7 1   
    19    6   10 1   
    20    6   24 1   
    21    6   25 1   
    22    7    8 1   
    23    7   26 1   
    24    7   27 1   
    25    8    9 1   
    26    8   28 1   
    27    8   29 1   
    28    9   11 1   
    29    9   12 1   
@<TRIPOS>SUBSTRUCTURE
     1 IVL         1 TEMP              0 ****  ****    0 ROOT
