@<TRIPOS>MOLECULE
IVL
   29    29     1     0     0
SMALL
bcc


@<TRIPOS>ATOM
      1 CAF         0.1990    0.2370    0.1580 c3        1 IVL      0.099300
      2 CAE         1.6460    0.0460    0.6190 c3        1 IVL     -0.095900
      3 CAD         1.7220    0.5910    2.0400 c3        1 IVL     -0.095900
      4 CAA         0.3270    1.1150    2.3810 c3        1 IVL      0.099300
      5 CAH        -1.2040   -0.7500    1.9090 c3        1 IVL      0.089100
      6 CAJ        -1.7590    1.4690    1.0280 c3        1 IVL      0.092800
      7 CAK        -2.6140    1.9390    2.2040 c3        1 IVL     -0.069400
      8 CAL        -2.6730    3.4530    2.2500 c3        1 IVL     -0.209400
      9 CAM        -1.2640    4.0310    2.4670 c         1 IVL      0.896600
     10 N3         -0.6460    0.5210    1.3820 n4        1 IVL     -0.592800
     11 OAB        -0.4410    3.9480    1.4940 o         1 IVL     -0.831300
     12 OAC        -0.9600    4.4920    3.5930 o         1 IVL     -0.831300
     13 HAA1        0.0110    0.8380    3.4210 hx        1 IVL      0.119700
     14 HAA2        0.2940    2.2530    2.2790 hx        1 IVL      0.119700
     15 HAD1        2.4580    1.4310    2.1160 hc        1 IVL      0.074700
     16 HAD2        2.0350   -0.2080    2.7570 hc        1 IVL      0.074700
     17 HAE1        1.9290   -1.0350    0.5880 hc        1 IVL      0.074700
     18 HAE2        2.3350    0.6030   -0.0650 hc        1 IVL      0.074700
     19 HAF1        0.1290    1.1260   -0.5310 hx        1 IVL      0.119700
     20 HAF2       -0.2000   -0.6670   -0.3710 hx        1 IVL      0.119700
     21 HAH1       -0.3620   -1.4440    2.1670 hx        1 IVL      0.083033
     22 HAH2       -1.8110   -0.5360    2.8290 hx        1 IVL      0.083033
     23 HAH3       -1.8630   -1.2240    1.1360 hx        1 IVL      0.083033
     24 HAJ1       -1.2720    2.3840    0.5470 hx        1 IVL      0.115700
     25 HAJ2       -2.3980    0.9380    0.2700 hx        1 IVL      0.115700
     26 HAK1       -2.2100    1.5770    3.1870 hc        1 IVL      0.042200
     27 HAK2       -3.6450    1.5140    2.0900 hc        1 IVL      0.042200
     28 HAL1       -3.0910    3.8560    1.2940 hc        1 IVL      0.053200
     29 HAL2       -3.3370    3.7700    3.0920 hc        1 IVL      0.053200
@<TRIPOS>BOND
     1    1    2 1   
     2    1   10 1   
     3    1   19 1   
     4    1   20 1   
     5    2    3 1   
     6    2   17 1   
     7    2   18 1   
     8    3    4 1   
     9    3   15 1   
    10    3   16 1   
    11    4   10 1   
    12    4   13 1   
    13    4   14 1   
    14    5   10 1   
    15    5   21 1   
    16    5   22 1   
    17    5   23 1   
    18    6    7 1   
    19    6   10 1   
    20    6   24 1   
    21    6   25 1   
    22    7    8 1   
    23    7   26 1   
    24    7   27 1   
    25    8    9 1   
    26    8   28 1   
    27    8   29 1   
    28    9   11 1   
    29    9   12 1   
@<TRIPOS>SUBSTRUCTURE
     1 IVL         1 TEMP              0 ****  ****    0 ROOT
