@<TRIPOS>MOLECULE
IVL
   29    29     1     0     0
SMALL
bcc


@<TRIPOS>ATOM
      1 CAF         0.1260    0.2470    0.0800 c3        1 IVL      0.098300
      2 CAE         1.5710   -0.1010    0.4430 c3        1 IVL     -0.100400
      3 CAD         1.9120    0.7420    1.6650 c3        1 IVL     -0.100400
      4 CAA         0.6410    1.4950    2.0550 c3        1 IVL      0.098300
      5 CAH        -1.1140   -0.2020    2.1340 c3        1 IVL      0.071100
      6 CAJ        -1.5500    1.8890    0.8490 c3        1 IVL      0.121800
      7 CAK        -2.8850    1.9570    1.5900 c3        1 IVL     -0.068400
      8 CAL        -2.8720    2.9240    2.7550 c3        1 IVL     -0.207400
      9 CAM        -1.5270    2.8660    3.4790 c         1 IVL      0.892600
     10 N3         -0.5250    0.8770    1.2960 n4        1 IVL     -0.584800
     11 OAB        -1.3120    1.9160    4.2930 o         1 IVL     -0.844800
     12 OAC        -0.6360    3.7030    3.1500 o         1 IVL     -0.844800
     13 HAA1        0.4310    1.4480    3.1700 hx        1 IVL      0.120950
     14 HAA2        0.7130    2.5920    1.7980 hx        1 IVL      0.120950
     15 HAD1        2.2570    0.0950    2.5110 hc        1 IVL      0.071200
     16 HAD2        2.7290    1.4730    1.4420 hc        1 IVL      0.071200
     17 HAE1        2.2460    0.1310   -0.4170 hc        1 IVL      0.071200
     18 HAE2        1.6670   -1.1920    0.6700 hc        1 IVL      0.071200
     19 HAF1       -0.4600   -0.6570   -0.2320 hx        1 IVL      0.120950
     20 HAF2        0.1210    0.9930   -0.7610 hx        1 IVL      0.120950
     21 HAH1       -1.9380   -0.7110    1.5730 hx        1 IVL      0.102033
     22 HAH2       -0.3080   -0.9420    2.3790 hx        1 IVL      0.102033
     23 HAH3       -1.5060    0.2540    3.0990 hx        1 IVL      0.102033
     24 HAJ1       -1.7800    1.6620   -0.2320 hx        1 IVL      0.092700
     25 HAJ2       -1.0690    2.9130    0.9210 hx        1 IVL      0.092700
     26 HAK1       -3.6360    2.3100    0.8310 hc        1 IVL      0.048700
     27 HAK2       -3.2320    0.9500    1.9340 hc        1 IVL      0.048700
     28 HAL1       -3.0390    3.9680    2.3860 hc        1 IVL      0.056700
     29 HAL2       -3.6930    2.6650    3.4680 hc        1 IVL      0.056700
@<TRIPOS>BOND
     1    1    2 1   
     2    1   10 1   
     3    1   19 1   
     4    1   20 1   
     5    2    3 1   
     6    2   17 1   
     7    2   18 1   
     8    3    4 1   
     9    3   15 1   
    10    3   16 1   
    11    4   10 1   
    12    4   13 1   
    13    4   14 1   
    14    5   10 1   
    15    5   21 1   
    16    5   22 1   
    17    5   23 1   
    18    6    7 1   
    19    6   10 1   
    20    6   24 1   
    21    6   25 1   
    22    7    8 1   
    23    7   26 1   
    24    7   27 1   
    25    8    9 1   
    26    8   28 1   
    27    8   29 1   
    28    9   11 1   
    29    9   12 1   
@<TRIPOS>SUBSTRUCTURE
     1 IVL         1 TEMP              0 ****  ****    0 ROOT
