@<TRIPOS>MOLECULE
IVS
   84    83     1     0     0
SMALL
bcc


@<TRIPOS>ATOM
      1 C57         0.0360   -1.6600   -0.0210 c3        1 IVS      0.142400
      2 O56         1.4820   -1.5350    0.1070 os        1 IVS     -0.412900
      3 C53         1.9410   -0.4370    0.7350 c         1 IVS      0.635100
      4 O75         1.1710    0.4240    1.1750 o         1 IVS     -0.549000
      5 C52         3.4440   -0.3800    0.8250 c3        1 IVS     -0.190400
      6 C51         3.8530    0.5520    1.9620 c3        1 IVS      0.140100
      7 O72         3.4360    1.8850    1.7260 oh        1 IVS     -0.668800
      8 C23         5.4060    0.5920    2.1220 c3        1 IVS      0.137500
      9 C58         5.7630    0.9060    3.5700 c3        1 IVS     -0.129400
     10 N22         5.9780    1.6400    1.1620 ny        1 IVS     -0.649800
     11 C21         7.3750    1.4150    0.7440 c         1 IVS      0.531100
     12 O19         7.7620    0.2770    0.4960 o         1 IVS     -0.411100
     13 C20         8.2880    2.6540    0.6360 c3        1 IVS      0.047500
     14 N19         9.7020    2.2190    0.3030 ny        1 IVS     -0.672800
     15 C18        10.7870    2.9780    1.0280 c         1 IVS      0.540100
     16 O36        10.4670    3.7700    1.8980 o         1 IVS     -0.370100
     17 C17        12.2280    2.6610    0.5950 c3        1 IVS      0.066500
     18 N16        12.9860    3.9350    0.3830 ny        1 IVS     -0.709800
     19 C12        12.3900    4.8190   -0.7300 c         1 IVS      0.616100
     20 O15        11.2500    4.4950   -1.0350 o         1 IVS     -0.503100
     21 C10        13.2800    5.8960   -1.2540 c3        1 IVS     -0.164400
     22 C2         14.0810    5.4190   -2.4720 c3        1 IVS     -0.062700
     23 C6         14.8480    6.6090   -3.0210 c3        1 IVS     -0.117100
     24 C76        -0.1960   -2.9690   -0.7300 c3        1 IVS     -0.110100
     25 C60         7.2460    0.8440    3.8950 c3        1 IVS     -0.052700
     26 C67         7.4740    1.3760    5.2980 c3        1 IVS     -0.111600
     27 C63         7.7950   -0.5620    3.7710 c3        1 IVS     -0.111600
     28 C38         7.7710    3.6760   -0.4100 c3        1 IVS     -0.088700
     29 C40         7.4150    3.0170   -1.7230 c3        1 IVS     -0.133100
     30 C44         6.6080    4.4790    0.1370 c3        1 IVS     -0.133100
     31 C25        12.8960    1.7410    1.6550 c3        1 IVS     -0.078700
     32 C27        13.1740    2.4570    2.9570 c3        1 IVS     -0.137100
     33 C31        12.0280    0.5210    1.8650 c3        1 IVS     -0.137100
     34 C1         15.0250    4.2930   -2.1190 c3        1 IVS     -0.117100
     35 H571       -0.4060   -1.6430    1.0090 h1        1 IVS      0.069700
     36 H572       -0.3360   -0.7800   -0.6070 h1        1 IVS      0.069700
     37 H521        3.8410   -1.4150    1.0000 hc        1 IVS      0.090200
     38 H522        3.8260   -0.0130   -0.1630 hc        1 IVS      0.090200
     39 H511        3.4160    0.1730    2.9320 h1        1 IVS      0.116700
     40 HO72        2.4600    1.9160    1.7940 ho        1 IVS      0.505000
     41 H231        5.8360   -0.4070    1.8120 hx        1 IVS      0.130700
     42 H581        5.2320    0.1400    4.2080 hc        1 IVS      0.111700
     43 H582        5.3400    1.9070    3.8610 hc        1 IVS      0.111700
     44 H221        5.8670    2.5640    1.6110 hn        1 IVS      0.492800
     45 H201        8.3160    3.1570    1.6590 hx        1 IVS      0.166700
     46 H191        9.8220    1.2090    0.5140 hn        1 IVS      0.492800
     47 H171       12.2340    2.1140   -0.4000 hx        1 IVS      0.135700
     48 H161       13.0160    4.4710    1.2650 hn        1 IVS      0.495800
     49 H101       13.9820    6.2800   -0.4650 hc        1 IVS      0.136200
     50 H102       12.6090    6.7510   -1.5680 hc        1 IVS      0.136200
     51 HC21       13.3580    5.0660   -3.2620 hc        1 IVS      0.082700
     52 HC61       14.1550    7.4460   -3.2770 hc        1 IVS      0.064700
     53 HC62       15.3890    6.3050   -3.9530 hc        1 IVS      0.064700
     54 HC63       15.6010    6.9750   -2.2820 hc        1 IVS      0.064700
     55 H761        0.2850   -2.9670   -1.7370 hc        1 IVS      0.066033
     56 H762       -1.2980   -3.1150   -0.8520 hc        1 IVS      0.066033
     57 H763        0.2200   -3.8200   -0.1390 hc        1 IVS      0.066033
     58 H601        7.8050    1.5110    3.1710 hc        1 IVS     -0.046300
     59 H671        6.9330    0.7450    6.0460 hc        1 IVS      0.060200
     60 H672        8.5620    1.3540    5.5480 hc        1 IVS      0.060200
     61 H673        7.1050    2.4260    5.3910 hc        1 IVS      0.060200
     62 H631        7.2090   -1.2710    4.4090 hc        1 IVS      0.060200
     63 H632        7.7530   -0.9180    2.7130 hc        1 IVS      0.060200
     64 H633        8.8570   -0.5950    4.1170 hc        1 IVS      0.060200
     65 H381        8.6150    4.4100   -0.5950 hc        1 IVS      0.100700
     66 H401        7.0030    3.7900   -2.4260 hc        1 IVS      0.077700
     67 H402        6.6330    2.2300   -1.5940 hc        1 IVS      0.077700
     68 H403        8.3060    2.5580   -2.2170 hc        1 IVS      0.077700
     69 H441        6.7040    4.6720    1.2330 hc        1 IVS      0.077700
     70 H442        5.6220    4.0010   -0.0840 hc        1 IVS      0.077700
     71 H443        6.5880    5.4800   -0.3740 hc        1 IVS      0.077700
     72 H251       13.8800    1.3980    1.2100 hc        1 IVS      0.121700
     73 H271       14.0310    3.1680    2.8640 hc        1 IVS      0.076533
     74 H272       12.2750    3.0080    3.3280 hc        1 IVS      0.076533
     75 H273       13.4610    1.7050    3.7400 hc        1 IVS      0.076533
     76 H311       12.5940   -0.2270    2.4860 hc        1 IVS      0.076533
     77 H312       11.0950    0.7760    2.4240 hc        1 IVS      0.076533
     78 H313       11.7750    0.0240    0.8970 hc        1 IVS      0.076533
     79 HC11       15.6660    4.5540   -1.2420 hc        1 IVS      0.064700
     80 HC12       15.7100    4.0960   -2.9860 hc        1 IVS      0.064700
     81 HC13       14.4680    3.3450   -1.9140 hc        1 IVS      0.064700
     82 H222        5.3700    1.6330    0.3200 hn        1 IVS      0.492800
     83 H192        9.8460    2.3580   -0.7130 hn        1 IVS      0.492800
     84 H162       13.9620    3.6970    0.1240 hn        1 IVS      0.495800
@<TRIPOS>BOND
     1    1    2 1   
     2    1   24 1   
     3    1   35 1   
     4    1   36 1   
     5    2    3 1   
     6    3    4 2   
     7    3    5 1   
     8    5    6 1   
     9    5   37 1   
    10    5   38 1   
    11    6    7 1   
    12    6    8 1   
    13    6   39 1   
    14    7   40 1   
    15    8    9 1   
    16    8   10 1   
    17    8   41 1   
    18    9   25 1   
    19    9   42 1   
    20    9   43 1   
    21   10   11 1   
    22   10   44 1   
    23   10   82 1   
    24   11   12 2   
    25   11   13 1   
    26   13   14 1   
    27   13   28 1   
    28   13   45 1   
    29   14   15 1   
    30   14   46 1   
    31   14   83 1   
    32   15   16 2   
    33   15   17 1   
    34   17   18 1   
    35   17   31 1   
    36   17   47 1   
    37   18   19 1   
    38   18   48 1   
    39   18   84 1   
    40   19   20 2   
    41   19   21 1   
    42   21   22 1   
    43   21   49 1   
    44   21   50 1   
    45   22   23 1   
    46   22   34 1   
    47   22   51 1   
    48   23   52 1   
    49   23   53 1   
    50   23   54 1   
    51   24   55 1   
    52   24   56 1   
    53   24   57 1   
    54   25   26 1   
    55   25   27 1   
    56   25   58 1   
    57   26   59 1   
    58   26   60 1   
    59   26   61 1   
    60   27   62 1   
    61   27   63 1   
    62   27   64 1   
    63   28   29 1   
    64   28   30 1   
    65   28   65 1   
    66   29   66 1   
    67   29   67 1   
    68   29   68 1   
    69   30   69 1   
    70   30   70 1   
    71   30   71 1   
    72   31   32 1   
    73   31   33 1   
    74   31   72 1   
    75   32   73 1   
    76   32   74 1   
    77   32   75 1   
    78   33   76 1   
    79   33   77 1   
    80   33   78 1   
    81   34   79 1   
    82   34   80 1   
    83   34   81 1   
@<TRIPOS>SUBSTRUCTURE
     1 IVS         1 TEMP              0 ****  ****    0 ROOT
