@<TRIPOS>MOLECULE
IVS
   81    80     1     0     0
SMALL
bcc


@<TRIPOS>ATOM
      1 C57        -1.0920   -1.6220    7.8570 c3        1 IVS      0.138400
      2 O56        -1.1860   -1.0720    6.5300 os        1 IVS     -0.443900
      3 C53        -0.0060   -0.8360    5.8820 c         1 IVS      0.639100
      4 O75         1.0480   -1.1020    6.4640 o         1 IVS     -0.546000
      5 C52        -0.2040   -0.2920    4.5030 c3        1 IVS     -0.167400
      6 C51         0.8590    0.7480    4.1560 c3        1 IVS      0.134100
      7 O72         0.4600    2.0510    4.5330 oh        1 IVS     -0.588800
      8 C23         1.2320    0.6690    2.6480 c3        1 IVS      0.059700
      9 C58         2.4360    1.5920    2.4100 c3        1 IVS     -0.092400
     10 N22         0.1060    0.9630    1.7870 n         1 IVS     -0.555900
     11 C21        -0.5200   -0.0230    1.0520 c         1 IVS      0.629100
     12 O19        -0.2900   -1.2330    1.2580 o         1 IVS     -0.622100
     13 C20        -1.5410    0.4270   -0.0280 c3        1 IVS      0.035700
     14 N19        -1.3300   -0.3040   -1.2530 n         1 IVS     -0.536900
     15 C18        -0.4630    0.1660   -2.2250 c         1 IVS      0.635100
     16 O36        -0.0150    1.3300   -2.1860 o         1 IVS     -0.620100
     17 C17        -0.1280   -0.8000   -3.3910 c3        1 IVS      0.040700
     18 N16        -0.0040   -0.0760   -4.6300 n         1 IVS     -0.555900
     19 C12        -0.9380   -0.1960   -5.6480 c         1 IVS      0.661100
     20 O15        -1.8290   -1.0680   -5.6020 o         1 IVS     -0.611100
     21 C10        -0.8160    0.7460   -6.8310 c3        1 IVS     -0.143400
     22 C2         -0.5300   -0.0290   -8.1110 c3        1 IVS     -0.064700
     23 C6         -0.7930    0.8520   -9.3140 c3        1 IVS     -0.093600
     24 C76        -2.5090   -1.7860    8.3480 c3        1 IVS     -0.100100
     25 C60         2.9710    1.5630    0.9870 c3        1 IVS     -0.070700
     26 C67         4.1360    2.5290    0.8700 c3        1 IVS     -0.093600
     27 C63         3.4030    0.1710    0.5760 c3        1 IVS     -0.093600
     28 C38        -2.9800    0.2770    0.5170 c3        1 IVS     -0.063700
     29 C40        -3.3820   -1.1670    0.7290 c3        1 IVS     -0.102100
     30 C44        -3.1290    1.0700    1.7970 c3        1 IVS     -0.102100
     31 C25         1.1510   -1.5980   -3.0360 c3        1 IVS     -0.071700
     32 C27         2.3480   -0.7050   -2.8020 c3        1 IVS     -0.103600
     33 C31         0.9050   -2.4920   -1.8390 c3        1 IVS     -0.103600
     34 C1          0.8940   -0.5420   -8.1300 c3        1 IVS     -0.093600
     35 H571       -0.5040   -0.9130    8.4980 h1        1 IVS      0.052200
     36 H572       -0.5500   -2.6020    7.8020 h1        1 IVS      0.052200
     37 H521       -0.1470   -1.1590    3.7860 hc        1 IVS      0.095200
     38 H522       -1.2310    0.1530    4.4180 hc        1 IVS      0.095200
     39 H511        1.7970    0.5640    4.7600 h1        1 IVS      0.107700
     40 HO72       -0.3810    2.2420    4.1010 ho        1 IVS      0.399000
     41 H231        1.5570   -0.4000    2.4520 h1        1 IVS      0.091700
     42 H581        2.1530    2.6440    2.6840 hc        1 IVS      0.059200
     43 H582        3.2480    1.2710    3.1140 hc        1 IVS      0.059200
     44 H221        0.0120    1.9070    1.4920 hn        1 IVS      0.313500
     45 H201       -1.3830    1.5250   -0.2630 h1        1 IVS      0.093700
     46 H191       -1.4970   -1.2850   -1.2030 hn        1 IVS      0.323500
     47 H171       -0.9720   -1.5480   -3.5150 h1        1 IVS      0.105700
     48 H161        0.5980    0.7150   -4.6130 hn        1 IVS      0.322500
     49 H101       -1.8030    1.2730   -6.9240 hc        1 IVS      0.066200
     50 H102       -0.0250    1.5240   -6.6760 hc        1 IVS      0.066200
     51 HC21       -1.2330   -0.9110   -8.1470 hc        1 IVS      0.073700
     52 HC61       -0.5760    0.2890  -10.2540 hc        1 IVS      0.037033
     53 HC62       -1.8610    1.1790   -9.3340 hc        1 IVS      0.037033
     54 HC63       -0.1440    1.7600   -9.2880 hc        1 IVS      0.037033
     55 H761       -2.4890   -2.2130    9.3790 hc        1 IVS      0.047367
     56 H762       -3.0340   -0.8020    8.3690 hc        1 IVS      0.047367
     57 H763       -3.0800   -2.4740    7.6780 hc        1 IVS      0.047367
     58 H601        2.1640    1.9070    0.2790 hc        1 IVS      0.050700
     59 H671        4.5090    2.5550   -0.1810 hc        1 IVS      0.036533
     60 H672        3.8190    3.5590    1.1610 hc        1 IVS      0.036533
     61 H673        4.9750    2.2140    1.5360 hc        1 IVS      0.036533
     62 H631        4.1260   -0.2520    1.3130 hc        1 IVS      0.036533
     63 H632        2.5200   -0.5120    0.5080 hc        1 IVS      0.036533
     64 H633        3.8940    0.2010   -0.4270 hc        1 IVS      0.036533
     65 H381       -3.6680    0.7260   -0.2570 hc        1 IVS      0.065700
     66 H401       -4.3270   -1.2150    1.3220 hc        1 IVS      0.043867
     67 H402       -3.5610   -1.6770   -0.2480 hc        1 IVS      0.043867
     68 H403       -2.5860   -1.7240    1.2820 hc        1 IVS      0.043867
     69 H441       -2.5710    0.5830    2.6340 hc        1 IVS      0.043867
     70 H442       -2.7440    2.1100    1.6670 hc        1 IVS      0.043867
     71 H443       -4.2080    1.1260    2.0830 hc        1 IVS      0.043867
     72 H251        1.3720   -2.2620   -3.9220 hc        1 IVS      0.065700
     73 H271        3.2160   -1.3160   -2.4530 hc        1 IVS      0.044200
     74 H272        2.6440   -0.1820   -3.7430 hc        1 IVS      0.044200
     75 H273        2.1260    0.0660   -2.0230 hc        1 IVS      0.044200
     76 H311        0.8700   -1.9050   -0.8870 hc        1 IVS      0.044200
     77 H312       -0.0540   -3.0530   -1.9500 hc        1 IVS      0.044200
     78 H313        1.7350   -3.2350   -1.7510 hc        1 IVS      0.044200
     79 HC11        1.6200    0.3060   -8.1320 hc        1 IVS      0.037033
     80 HC12        1.0900   -1.1760   -7.2310 hc        1 IVS      0.037033
     81 HC13        1.0680   -1.1580   -9.0440 hc        1 IVS      0.037033
@<TRIPOS>BOND
     1    1    2 1   
     2    1   24 1   
     3    1   35 1   
     4    1   36 1   
     5    2    3 1   
     6    3    4 2   
     7    3    5 1   
     8    5    6 1   
     9    5   37 1   
    10    5   38 1   
    11    6    7 1   
    12    6    8 1   
    13    6   39 1   
    14    7   40 1   
    15    8    9 1   
    16    8   10 1   
    17    8   41 1   
    18    9   25 1   
    19    9   42 1   
    20    9   43 1   
    21   10   11 1   
    22   10   44 1   
    23   11   12 2   
    24   11   13 1   
    25   13   14 1   
    26   13   28 1   
    27   13   45 1   
    28   14   15 1   
    29   14   46 1   
    30   15   16 2   
    31   15   17 1   
    32   17   18 1   
    33   17   31 1   
    34   17   47 1   
    35   18   19 1   
    36   18   48 1   
    37   19   20 2   
    38   19   21 1   
    39   21   22 1   
    40   21   49 1   
    41   21   50 1   
    42   22   23 1   
    43   22   34 1   
    44   22   51 1   
    45   23   52 1   
    46   23   53 1   
    47   23   54 1   
    48   24   55 1   
    49   24   56 1   
    50   24   57 1   
    51   25   26 1   
    52   25   27 1   
    53   25   58 1   
    54   26   59 1   
    55   26   60 1   
    56   26   61 1   
    57   27   62 1   
    58   27   63 1   
    59   27   64 1   
    60   28   29 1   
    61   28   30 1   
    62   28   65 1   
    63   29   66 1   
    64   29   67 1   
    65   29   68 1   
    66   30   69 1   
    67   30   70 1   
    68   30   71 1   
    69   31   32 1   
    70   31   33 1   
    71   31   72 1   
    72   32   73 1   
    73   32   74 1   
    74   32   75 1   
    75   33   76 1   
    76   33   77 1   
    77   33   78 1   
    78   34   79 1   
    79   34   80 1   
    80   34   81 1   
@<TRIPOS>SUBSTRUCTURE
     1 IVS         1 TEMP              0 ****  ****    0 ROOT
