@<TRIPOS>MOLECULE
IVS
   84    83     1     0     0
SMALL
bcc


@<TRIPOS>ATOM
      1 C57         0.0380   -1.6650    0.0220 c3        1 IVS      0.142400
      2 O56         1.4840   -1.5390    0.1480 os        1 IVS     -0.412900
      3 C53         1.9420   -0.4360    0.7670 c         1 IVS      0.635100
      4 O75         1.1720    0.4280    1.2000 o         1 IVS     -0.549000
      5 C52         3.4460   -0.3780    0.8550 c3        1 IVS     -0.190400
      6 C51         3.8560    0.5640    1.9840 c3        1 IVS      0.140100
      7 O72         3.4370    1.8950    1.7360 oh        1 IVS     -0.668800
      8 C23         5.4080    0.6060    2.1420 c3        1 IVS      0.137500
      9 C58         5.7660    0.9320    3.5870 c3        1 IVS     -0.129400
     10 N22         5.9800    1.6450    1.1730 n4        1 IVS     -0.649800
     11 C21         7.3760    1.4160    0.7540 c         1 IVS      0.531100
     12 O19         7.7620    0.2760    0.5160 o         1 IVS     -0.411100
     13 C20         8.2900    2.6530    0.6340 c3        1 IVS      0.047500
     14 N19         9.7020    2.2140    0.3010 n4        1 IVS     -0.672800
     15 C18        10.7890    2.9790    1.0170 c         1 IVS      0.540100
     16 O36        10.4720    3.7790    1.8800 o         1 IVS     -0.370100
     17 C17        12.2290    2.6580    0.5820 c3        1 IVS      0.066500
     18 N16        12.9870    3.9300    0.3570 n4        1 IVS     -0.709800
     19 C12        12.3890    4.8040   -0.7610 c         1 IVS      0.616100
     20 O15        11.2480    4.4780   -1.0600 o         1 IVS     -0.503100
     21 C10        13.2790    5.8750   -1.2980 c3        1 IVS     -0.164400
     22 C2         14.0740    5.3870   -2.5140 c3        1 IVS     -0.062700
     23 C6         14.8430    6.5710   -3.0750 c3        1 IVS     -0.117100
     24 C76        -0.1940   -2.9790   -0.6780 c3        1 IVS     -0.110100
     25 C60         7.2500    0.8740    3.9120 c3        1 IVS     -0.052700
     26 C67         7.4790    1.4190    5.3090 c3        1 IVS     -0.111600
     27 C63         7.7980   -0.5330    3.8010 c3        1 IVS     -0.111600
     28 C38         7.7700    3.6670   -0.4190 c3        1 IVS     -0.088700
     29 C40         7.4120    2.9970   -1.7260 c3        1 IVS     -0.133100
     30 C44         6.6090    4.4760    0.1240 c3        1 IVS     -0.133100
     31 C25        12.9000    1.7470    1.6490 c3        1 IVS     -0.078700
     32 C27        13.1810    2.4740    2.9430 c3        1 IVS     -0.137100
     33 C31        12.0310    0.5290    1.8720 c3        1 IVS     -0.137100
     34 C1         15.0170    4.2620   -2.1560 c3        1 IVS     -0.117100
     35 H571       -0.4040   -1.6420    1.0520 h1        1 IVS      0.069700
     36 H572       -0.3350   -0.7900   -0.5700 h1        1 IVS      0.069700
     37 H521        3.8430   -1.4110    1.0390 hc        1 IVS      0.089700
     38 H522        3.8270   -0.0210   -0.1360 hc        1 IVS      0.089700
     39 H511        3.4180    0.1930    2.9570 h1        1 IVS      0.116700
     40 HO72        2.4620    1.9260    1.8040 ho        1 IVS      0.505000
     41 H231        5.8380   -0.3970    1.8410 hx        1 IVS      0.130700
     42 H581        5.3430    1.9360    3.8690 hc        1 IVS      0.111700
     43 H582        5.2360    0.1720    4.2320 hc        1 IVS      0.111700
     44 H221        5.3710    1.6320    0.3310 hn        1 IVS      0.492800
     45 H201        8.3200    3.1650    1.6520 hx        1 IVS      0.166700
     46 H191        9.8430    2.3440   -0.7160 hn        1 IVS      0.492800
     47 H171       12.2320    2.1030   -0.4080 hx        1 IVS      0.135700
     48 H161       13.0200    4.4730    1.2350 hn        1 IVS      0.495800
     49 H101       13.9840    6.2650   -0.5140 hc        1 IVS      0.136200
     50 H102       12.6070    6.7290   -1.6170 hc        1 IVS      0.136200
     51 HC21       13.3480    5.0300   -3.2990 hc        1 IVS      0.082700
     52 HC61       14.1500    7.4080   -3.3350 hc        1 IVS      0.064700
     53 HC62       15.3790    6.2580   -4.0060 hc        1 IVS      0.064700
     54 HC63       15.6000    6.9410   -2.3410 hc        1 IVS      0.064700
     55 H761        0.2220   -3.8260   -0.0820 hc        1 IVS      0.066033
     56 H762        0.2850   -2.9840   -1.6860 hc        1 IVS      0.066033
     57 H763       -1.2960   -3.1270   -0.7980 hc        1 IVS      0.066033
     58 H601        7.8080    1.5340    3.1810 hc        1 IVS     -0.046300
     59 H671        7.1090    2.4700    5.3930 hc        1 IVS      0.060200
     60 H672        8.5670    1.4000    5.5590 hc        1 IVS      0.060200
     61 H673        6.9380    0.7950    6.0640 hc        1 IVS      0.060200
     62 H631        7.7560   -0.8990    2.7460 hc        1 IVS      0.060200
     63 H632        7.2130   -1.2360    4.4450 hc        1 IVS      0.060200
     64 H633        8.8610   -0.5630    4.1460 hc        1 IVS      0.060200
     65 H381        8.6150    4.3990   -0.6130 hc        1 IVS      0.100700
     66 H401        6.9980    3.7650   -2.4350 hc        1 IVS      0.077700
     67 H402        8.3010    2.5340   -2.2190 hc        1 IVS      0.077700
     68 H403        6.6290    2.2120   -1.5890 hc        1 IVS      0.077700
     69 H441        6.5900    5.4720   -0.3960 hc        1 IVS      0.077700
     70 H442        5.6230    3.9960   -0.0910 hc        1 IVS      0.077700
     71 H443        6.7080    4.6770    1.2180 hc        1 IVS      0.077700
     72 H251       13.8820    1.4000    1.2050 hc        1 IVS      0.121700
     73 H271       14.0380    3.1840    2.8420 hc        1 IVS      0.076533
     74 H272       13.4700    1.7290    3.7330 hc        1 IVS      0.076533
     75 H273       12.2830    3.0280    3.3120 hc        1 IVS      0.076533
     76 H311       12.5990   -0.2140    2.4970 hc        1 IVS      0.076533
     77 H312       11.7750    0.0240    0.9090 hc        1 IVS      0.076533
     78 H313       11.1000    0.7900    2.4310 hc        1 IVS      0.076533
     79 HC11       14.4590    3.3170   -1.9400 hc        1 IVS      0.064700
     80 HC12       15.6620    4.5280   -1.2830 hc        1 IVS      0.064700
     81 HC13       15.6990    4.0550   -3.0230 hc        1 IVS      0.064700
     82 H222        5.8700    2.5730    1.6150 hn        1 IVS      0.492800
     83 H192        9.8220    1.2070    0.5210 hn        1 IVS      0.492800
     84 H162       13.9620    3.6880    0.0980 hn        1 IVS      0.495800
@<TRIPOS>BOND
     1    1    2 1   
     2    1   24 1   
     3    1   35 1   
     4    1   36 1   
     5    2    3 1   
     6    3    4 2   
     7    3    5 1   
     8    5    6 1   
     9    5   37 1   
    10    5   38 1   
    11    6    7 1   
    12    6    8 1   
    13    6   39 1   
    14    7   40 1   
    15    8    9 1   
    16    8   10 1   
    17    8   41 1   
    18    9   25 1   
    19    9   42 1   
    20    9   43 1   
    21   10   11 1   
    22   10   44 1   
    23   10   82 1   
    24   11   12 2   
    25   11   13 1   
    26   13   14 1   
    27   13   28 1   
    28   13   45 1   
    29   14   15 1   
    30   14   46 1   
    31   14   83 1   
    32   15   16 2   
    33   15   17 1   
    34   17   18 1   
    35   17   31 1   
    36   17   47 1   
    37   18   19 1   
    38   18   48 1   
    39   18   84 1   
    40   19   20 2   
    41   19   21 1   
    42   21   22 1   
    43   21   49 1   
    44   21   50 1   
    45   22   23 1   
    46   22   34 1   
    47   22   51 1   
    48   23   52 1   
    49   23   53 1   
    50   23   54 1   
    51   24   55 1   
    52   24   56 1   
    53   24   57 1   
    54   25   26 1   
    55   25   27 1   
    56   25   58 1   
    57   26   59 1   
    58   26   60 1   
    59   26   61 1   
    60   27   62 1   
    61   27   63 1   
    62   27   64 1   
    63   28   29 1   
    64   28   30 1   
    65   28   65 1   
    66   29   66 1   
    67   29   67 1   
    68   29   68 1   
    69   30   69 1   
    70   30   70 1   
    71   30   71 1   
    72   31   32 1   
    73   31   33 1   
    74   31   72 1   
    75   32   73 1   
    76   32   74 1   
    77   32   75 1   
    78   33   76 1   
    79   33   77 1   
    80   33   78 1   
    81   34   79 1   
    82   34   80 1   
    83   34   81 1   
@<TRIPOS>SUBSTRUCTURE
     1 IVS         1 TEMP              0 ****  ****    0 ROOT
