@<TRIPOS>MOLECULE
IVS
   84    83     1     0     0
SMALL
bcc


@<TRIPOS>ATOM
      1 C57        -0.0070   -1.5670    0.0080 c3        1 IVS      0.142400
      2 O56         1.4410   -1.4580    0.1290 os        1 IVS     -0.412900
      3 C53         1.9150   -0.3680    0.7580 c         1 IVS      0.635100
      4 O75         1.1570    0.4990    1.2050 o         1 IVS     -0.549000
      5 C52         3.4190   -0.3270    0.8400 c3        1 IVS     -0.190400
      6 C51         3.8450    0.5950    1.9780 c3        1 IVS      0.140100
      7 O72         3.4400    1.9340    1.7500 oh        1 IVS     -0.668800
      8 C23         5.3980    0.6180    2.1300 c3        1 IVS      0.137500
      9 C58         5.7660    0.9220    3.5780 c3        1 IVS     -0.129400
     10 N22         5.9770    1.6640    1.1710 n4        1 IVS     -0.649800
     11 C21         7.3690    1.4260    0.7460 c         1 IVS      0.531100
     12 O19         7.7430    0.2850    0.4910 o         1 IVS     -0.411100
     13 C20         8.2950    2.6550    0.6390 c3        1 IVS      0.047500
     14 N19         9.7030    2.2070    0.2960 n4        1 IVS     -0.672800
     15 C18        10.7990    2.9500    1.0200 c         1 IVS      0.540100
     16 O36        10.4920    3.7400    1.8960 o         1 IVS     -0.370100
     17 C17        12.2350    2.6200    0.5780 c3        1 IVS      0.066500
     18 N16        13.0050    3.8870    0.3700 n4        1 IVS     -0.709800
     19 C12        12.4130    4.7840   -0.7340 c         1 IVS      0.616100
     20 O15        11.2680    4.4740   -1.0360 o         1 IVS     -0.503100
     21 C10        13.3120    5.8550   -1.2570 c3        1 IVS     -0.164400
     22 C2         14.1020    5.3770   -2.4810 c3        1 IVS     -0.062700
     23 C6         14.8800    6.5610   -3.0260 c3        1 IVS     -0.117100
     24 C76        -0.2560   -2.8710   -0.7050 c3        1 IVS     -0.110100
     25 C60         7.2500    0.8430    3.8950 c3        1 IVS     -0.052700
     26 C67         7.4910    1.3670    5.2990 c3        1 IVS     -0.111600
     27 C63         7.7820   -0.5680    3.7630 c3        1 IVS     -0.111600
     28 C38         7.7830    3.6870   -0.4010 c3        1 IVS     -0.088700
     29 C40         7.4150    3.0380   -1.7150 c3        1 IVS     -0.133100
     30 C44         6.6320    4.5010    0.1560 c3        1 IVS     -0.133100
     31 C25        12.8980    1.6870    1.6290 c3        1 IVS     -0.078700
     32 C27        13.1890    2.3920    2.9340 c3        1 IVS     -0.137100
     33 C31        12.0180    0.4740    1.8370 c3        1 IVS     -0.137100
     34 C1         15.0340    4.2380   -2.1410 c3        1 IVS     -0.117100
     35 H571       -0.3720   -0.6810   -0.5730 h1        1 IVS      0.069700
     36 H572       -0.4430   -1.5500    1.0400 h1        1 IVS      0.069700
     37 H521        3.8000    0.0390   -0.1490 hc        1 IVS      0.090200
     38 H522        3.8070   -1.3670    1.0080 hc        1 IVS      0.090200
     39 H511        3.4080    0.2170    2.9490 h1        1 IVS      0.116700
     40 HO72        2.4650    1.9750    1.8220 ho        1 IVS      0.505000
     41 H231        5.8160   -0.3840    1.8140 hx        1 IVS      0.130700
     42 H581        5.3550    1.9270    3.8740 hc        1 IVS      0.111700
     43 H582        5.2300    0.1600    4.2150 hc        1 IVS      0.111700
     44 H221        5.3650    1.6670    0.3320 hn        1 IVS      0.492800
     45 H201        8.3340    3.1540    1.6630 hx        1 IVS      0.166700
     46 H191        9.8120    1.1950    0.5020 hn        1 IVS      0.492800
     47 H171       12.2300    2.0790   -0.4200 hx        1 IVS      0.135700
     48 H161       13.9770    3.6400    0.1050 hn        1 IVS      0.495800
     49 H101       14.0230    6.2260   -0.4680 hc        1 IVS      0.136200
     50 H102       12.6490    6.7190   -1.5620 hc        1 IVS      0.136200
     51 HC21       13.3710    5.0380   -3.2700 hc        1 IVS      0.082700
     52 HC61       15.6410    6.9140   -2.2890 hc        1 IVS      0.064700
     53 HC62       14.1940    7.4080   -3.2740 hc        1 IVS      0.064700
     54 HC63       15.4120    6.2570   -3.9630 hc        1 IVS      0.064700
     55 H761       -1.3600   -3.0050   -0.8220 hc        1 IVS      0.066033
     56 H762        0.1530   -3.7290   -0.1200 hc        1 IVS      0.066033
     57 H763        0.2180   -2.8700   -1.7150 hc        1 IVS      0.066033
     58 H601        7.8130    1.5060    3.1710 hc        1 IVS     -0.046300
     59 H671        6.9470    0.7390    6.0470 hc        1 IVS      0.060200
     60 H672        7.1350    2.4210    5.3970 hc        1 IVS      0.060200
     61 H673        8.5800    1.3320    5.5430 hc        1 IVS      0.060200
     62 H631        7.1920   -1.2730    4.4000 hc        1 IVS      0.060200
     63 H632        8.8460   -0.6150    4.1030 hc        1 IVS      0.060200
     64 H633        7.7320   -0.9200    2.7040 hc        1 IVS      0.060200
     65 H381        8.6350    4.4130   -0.5870 hc        1 IVS      0.100700
     66 H401        6.6250    2.2580   -1.5850 hc        1 IVS      0.077700
     67 H402        8.2980    2.5710   -2.2150 hc        1 IVS      0.077700
     68 H403        7.0070    3.8180   -2.4130 hc        1 IVS      0.077700
     69 H441        6.6210    5.5040   -0.3520 hc        1 IVS      0.077700
     70 H442        6.7360    4.6870    1.2520 hc        1 IVS      0.077700
     71 H443        5.6410    4.0330   -0.0620 hc        1 IVS      0.077700
     72 H251       13.8760    1.3360    1.1780 hc        1 IVS      0.121700
     73 H271       14.0540    3.0940    2.8410 hc        1 IVS      0.076533
     74 H272       13.4720    1.6320    3.7120 hc        1 IVS      0.076533
     75 H273       12.2980    2.9500    3.3130 hc        1 IVS      0.076533
     76 H311       11.0900    0.7370    2.4010 hc        1 IVS      0.076533
     77 H312       12.5790   -0.2830    2.4500 hc        1 IVS      0.076533
     78 H313       11.7550   -0.0140    0.8670 hc        1 IVS      0.076533
     79 HC11       14.4680    3.2950   -1.9380 hc        1 IVS      0.064700
     80 HC12       15.7130    4.0380   -3.0120 hc        1 IVS      0.064700
     81 HC13       15.6830    4.4850   -1.2650 hc        1 IVS      0.064700
     82 H222        5.8770    2.5870    1.6250 hn        1 IVS      0.492800
     83 H192        9.8430    2.3490   -0.7200 hn        1 IVS      0.492800
     84 H162       13.0450    4.4170    1.2550 hn        1 IVS      0.495800
@<TRIPOS>BOND
     1    1    2 1   
     2    1   24 1   
     3    1   35 1   
     4    1   36 1   
     5    2    3 1   
     6    3    4 2   
     7    3    5 1   
     8    5    6 1   
     9    5   37 1   
    10    5   38 1   
    11    6    7 1   
    12    6    8 1   
    13    6   39 1   
    14    7   40 1   
    15    8    9 1   
    16    8   10 1   
    17    8   41 1   
    18    9   25 1   
    19    9   42 1   
    20    9   43 1   
    21   10   11 1   
    22   10   44 1   
    23   10   82 1   
    24   11   12 2   
    25   11   13 1   
    26   13   14 1   
    27   13   28 1   
    28   13   45 1   
    29   14   15 1   
    30   14   46 1   
    31   14   83 1   
    32   15   16 2   
    33   15   17 1   
    34   17   18 1   
    35   17   31 1   
    36   17   47 1   
    37   18   19 1   
    38   18   48 1   
    39   18   84 1   
    40   19   20 2   
    41   19   21 1   
    42   21   22 1   
    43   21   49 1   
    44   21   50 1   
    45   22   23 1   
    46   22   34 1   
    47   22   51 1   
    48   23   52 1   
    49   23   53 1   
    50   23   54 1   
    51   24   55 1   
    52   24   56 1   
    53   24   57 1   
    54   25   26 1   
    55   25   27 1   
    56   25   58 1   
    57   26   59 1   
    58   26   60 1   
    59   26   61 1   
    60   27   62 1   
    61   27   63 1   
    62   27   64 1   
    63   28   29 1   
    64   28   30 1   
    65   28   65 1   
    66   29   66 1   
    67   29   67 1   
    68   29   68 1   
    69   30   69 1   
    70   30   70 1   
    71   30   71 1   
    72   31   32 1   
    73   31   33 1   
    74   31   72 1   
    75   32   73 1   
    76   32   74 1   
    77   32   75 1   
    78   33   76 1   
    79   33   77 1   
    80   33   78 1   
    81   34   79 1   
    82   34   80 1   
    83   34   81 1   
@<TRIPOS>SUBSTRUCTURE
     1 IVS         1 TEMP              0 ****  ****    0 ROOT
