@<TRIPOS>MOLECULE
IVU
   56    58     1     0     0
SMALL
bcc


@<TRIPOS>ATOM
      1 C29         0.0570    0.6180    0.0520 c3        1 IVU     -0.061800
      2 C24         1.5100    0.3480   -0.0420 ca        1 IVU     -0.005300
      3 C25         2.3010    0.3260    1.1130 ca        1 IVU     -0.293300
      4 C23         2.1130    0.1260   -1.2780 ca        1 IVU     -0.301300
      5 C20         3.6820    0.0760    0.9890 ca        1 IVU      0.449600
      6 C22         3.5210   -0.1080   -1.3280 ca        1 IVU      0.635200
      7 N28         4.1470   -0.2270   -2.5790 nh        1 IVU     -0.925500
      8 C19         4.5220    0.0660    2.2380 c3        1 IVU     -0.126700
      9 N21         4.2910   -0.1480   -0.1960 nb        1 IVU     -0.731000
     10 C14         5.9480   -1.3010    3.7420 ca        1 IVU     -0.082300
     11 C13         5.4670   -1.9870    4.8620 ca        1 IVU     -0.106000
     12 C18         5.1700   -1.2870    2.4710 c3        1 IVU     -0.035100
     13 C16         7.9110   -0.6540    5.0060 ca        1 IVU     -0.015000
     14 C12         6.1990   -2.0110    6.0540 ca        1 IVU     -0.081300
     15 C17         7.4240   -1.3410    6.1260 ca        1 IVU     -0.093000
     16 C10         6.4440   -4.0220    7.4900 c3        1 IVU     -0.126700
     17 N01         5.9170   -4.2200    9.8780 nb        1 IVU     -0.732000
     18 C02         5.4320   -4.9420   10.9400 ca        1 IVU      0.640200
     19 C04         4.8500   -6.8090    9.4970 ca        1 IVU     -0.007300
     20 C03         4.8750   -6.2440   10.7710 ca        1 IVU     -0.296300
     21 C06         5.8860   -4.7930    8.6560 ca        1 IVU      0.448600
     22 C26         9.1580    0.0250    5.0800 cg        1 IVU      0.235800
     23 C05         5.3630   -6.0800    8.4190 ca        1 IVU     -0.292300
     24 C11         5.6760   -2.7340    7.2470 c3        1 IVU     -0.035100
     25 C15         7.1750   -0.6340    3.8140 ca        1 IVU     -0.093000
     26 C08         4.6200   -4.7630   13.2350 c3        1 IVU      0.179100
     27 H291       -0.3760    0.1450    0.9680 hc        1 IVU      0.049700
     28 H292       -0.4860    0.2240   -0.8420 hc        1 IVU      0.049700
     29 H293       -0.1190    1.7220    0.1110 hc        1 IVU      0.049700
     30 H25         1.8520    0.4990    2.0990 ha        1 IVU      0.142000
     31 H23         1.5170    0.1440   -2.2000 ha        1 IVU      0.142000
     32 H281        3.5730   -0.6480   -3.2740 hn        1 IVU      0.402300
     33 H282        5.0830   -0.5660   -2.5680 hn        1 IVU      0.402300
     34 H191        3.8750    0.3310    3.1160 hc        1 IVU      0.059700
     35 H192        5.3190    0.8540    2.1570 hc        1 IVU      0.059700
     36 H181        4.3770   -2.0810    2.4970 hc        1 IVU      0.061200
     37 H182        5.8560   -1.5280    1.6150 hc        1 IVU      0.061200
     38 H13         4.5010   -2.5130    4.8050 ha        1 IVU      0.137000
     39 H15         7.5590   -0.0950    2.9350 ha        1 IVU      0.148000
     40 H17         8.0030   -1.3550    7.0620 ha        1 IVU      0.148000
     41 H111        4.5880   -2.9690    7.1090 hc        1 IVU      0.061700
     42 H112        5.7630   -2.0690    8.1490 hc        1 IVU      0.061700
     43 H101        7.5250   -3.7820    7.6840 hc        1 IVU      0.058700
     44 H102        6.4010   -4.6650    6.5720 hc        1 IVU      0.058700
     45 H05         5.3570   -6.5010    7.4060 ha        1 IVU      0.142000
     46 H091        5.1290   -8.9210    9.3330 hc        1 IVU      0.049367
     47 H092        3.8080   -8.2500    8.2890 hc        1 IVU      0.049367
     48 H093        3.5520   -8.4270   10.0770 hc        1 IVU      0.049367
     49 H03         4.4790   -6.8020   11.6300 ha        1 IVU      0.143000
     50 H07         5.8170   -3.4190   12.2390 hn        1 IVU      0.415800
     51 H081        4.8140   -5.8220   13.5540 h1        1 IVU      0.038033
     52 H082        4.7560   -4.0930   14.1250 h1        1 IVU      0.038033
     53 H083        3.5540   -4.6890   12.8860 h1        1 IVU      0.038033
     54 N07         5.5700   -4.3880   12.2290 nh        1 IVU     -0.838900
     55 C09         4.3010   -8.1690    9.2890 c3        1 IVU     -0.060800
     56 N27        10.1780    0.5820    5.1400 n1        1 IVU     -0.366800
@<TRIPOS>BOND
     1    1    2 1   
     2    1   27 1   
     3    1   28 1   
     4    1   29 1   
     5    2    3 ar  
     6    2    4 ar  
     7    3    5 ar  
     8    3   30 1   
     9    4    6 ar  
    10    4   31 1   
    11    5    8 1   
    12    5    9 ar  
    13    6    7 1   
    14    6    9 ar  
    15    7   32 1   
    16    7   33 1   
    17    8   12 1   
    18    8   34 1   
    19    8   35 1   
    20   10   11 ar  
    21   10   12 1   
    22   10   25 ar  
    23   11   14 ar  
    24   11   38 1   
    25   12   36 1   
    26   12   37 1   
    27   13   15 ar  
    28   13   22 1   
    29   13   25 ar  
    30   14   15 ar  
    31   14   24 1   
    32   15   40 1   
    33   16   21 1   
    34   16   24 1   
    35   16   43 1   
    36   16   44 1   
    37   17   18 ar  
    38   17   21 ar  
    39   18   20 ar  
    40   18   54 1   
    41   19   20 ar  
    42   19   23 ar  
    43   19   55 1   
    44   20   49 1   
    45   21   23 ar  
    46   22   56 3   
    47   23   45 1   
    48   24   41 1   
    49   24   42 1   
    50   25   39 1   
    51   26   51 1   
    52   26   52 1   
    53   26   53 1   
    54   26   54 1   
    55   46   55 1   
    56   47   55 1   
    57   48   55 1   
    58   50   54 1   
@<TRIPOS>SUBSTRUCTURE
     1 IVU         1 TEMP              0 ****  ****    0 ROOT
