@<TRIPOS>MOLECULE
IVU
   56    58     1     0     0
SMALL
bcc


@<TRIPOS>ATOM
      1 C29         0.0540    0.5570   -0.0540 c3        1 IVU     -0.061800
      2 C24         1.5110    0.2960   -0.1240 ca        1 IVU     -0.005300
      3 C25         2.2830    0.2800    1.0440 ca        1 IVU     -0.293300
      4 C23         2.1350    0.0760   -1.3490 ca        1 IVU     -0.301300
      5 C20         3.6670    0.0400    0.9430 ca        1 IVU      0.449600
      6 C22         3.5450   -0.1490   -1.3770 ca        1 IVU      0.634200
      7 N28         4.1920   -0.2660   -2.6170 nv        1 IVU     -0.925500
      8 C19         4.4870    0.0370    2.2050 c3        1 IVU     -0.126700
      9 N21         4.2980   -0.1830   -0.2320 nb        1 IVU     -0.732000
     10 C14         5.8970   -1.3180    3.7350 ca        1 IVU     -0.082300
     11 C13         5.4010   -2.0070    4.8460 ca        1 IVU     -0.106000
     12 C18         5.1420   -1.3110    2.4500 c3        1 IVU     -0.035100
     13 C16         7.8300   -0.6550    5.0350 ca        1 IVU     -0.016000
     14 C12         6.1100   -2.0250    6.0510 ca        1 IVU     -0.081300
     15 C17         7.3280   -1.3450    6.1460 ca        1 IVU     -0.094000
     16 C10         6.3580   -4.0220    7.5070 c3        1 IVU     -0.125700
     17 N01         5.7820   -4.2130    9.8830 nb        1 IVU     -0.732000
     18 C02         5.2580   -4.9240   10.9340 ca        1 IVU      0.639200
     19 C04         4.7920   -6.8330    9.5030 ca        1 IVU     -0.007300
     20 C03         4.7660   -6.2520   10.7710 ca        1 IVU     -0.295300
     21 C06         5.7860   -4.7940    8.6650 ca        1 IVU      0.448600
     22 C26         9.0700    0.0350    5.1320 cg        1 IVU      0.235800
     23 C05         5.3040   -6.0970    8.4290 ca        1 IVU     -0.292300
     24 C11         5.5710   -2.7510    7.2360 c3        1 IVU     -0.036100
     25 C15         7.1170   -0.6410    3.8300 ca        1 IVU     -0.094000
     26 C08         5.1900   -5.0720   13.3690 c3        1 IVU      0.178100
     27 H291       -0.3910    0.0730    0.8500 hc        1 IVU      0.049700
     28 H292       -0.4700    0.1680   -0.9610 hc        1 IVU      0.049700
     29 H293       -0.1290    1.6590    0.0130 hc        1 IVU      0.049700
     30 H25         1.8170    0.4520    2.0220 ha        1 IVU      0.142000
     31 H23         1.5540    0.0890   -2.2810 ha        1 IVU      0.142000
     32 H281        3.6320   -0.6930   -3.3200 hn        1 IVU      0.402300
     33 H282        5.1310   -0.5990   -2.5900 hn        1 IVU      0.402300
     34 H191        3.8240    0.2960    3.0720 hc        1 IVU      0.059700
     35 H192        5.2790    0.8310    2.1370 hc        1 IVU      0.059700
     36 H181        4.3560   -2.1120    2.4610 hc        1 IVU      0.061700
     37 H182        5.8460   -1.5460    1.6060 hc        1 IVU      0.061700
     38 H13         4.4410   -2.5420    4.7710 ha        1 IVU      0.138000
     39 H15         7.5130   -0.1000    2.9570 ha        1 IVU      0.148000
     40 H17         7.8880   -1.3520    7.0940 ha        1 IVU      0.148000
     41 H111        4.4910   -3.0100    7.0710 hc        1 IVU      0.063200
     42 H112        5.6200   -2.0790    8.1350 hc        1 IVU      0.063200
     43 H101        7.4290   -3.7600    7.7240 hc        1 IVU      0.057700
     44 H102        6.3490   -4.6730    6.5930 hc        1 IVU      0.057700
     45 H05         5.3320   -6.5270    7.4200 ha        1 IVU      0.142000
     46 H091        5.1540   -8.9320    9.3300 hc        1 IVU      0.049367
     47 H092        3.7970   -8.3100    8.3010 hc        1 IVU      0.049367
     48 H093        3.5650   -8.5030   10.0910 hc        1 IVU      0.049367
     49 H03         4.3620   -6.8110   11.6240 ha        1 IVU      0.143000
     50 H07         5.6640   -3.4170   12.2450 hn        1 IVU      0.414800
     51 H081        6.0400   -5.8080   13.3780 h1        1 IVU      0.038367
     52 H082        5.2900   -4.3920   14.2560 h1        1 IVU      0.038367
     53 H083        4.2270   -5.6430   13.4660 h1        1 IVU      0.038367
     54 N07         5.1490   -4.2720   12.1790 nu        1 IVU     -0.837900
     55 C09         4.2960   -8.2130    9.2970 c3        1 IVU     -0.060800
     56 N27        10.0850    0.5990    5.2120 n1        1 IVU     -0.367800
@<TRIPOS>BOND
     1    1    2 1   
     2    1   27 1   
     3    1   28 1   
     4    1   29 1   
     5    2    3 ar  
     6    2    4 ar  
     7    3    5 ar  
     8    3   30 1   
     9    4    6 ar  
    10    4   31 1   
    11    5    8 1   
    12    5    9 ar  
    13    6    7 1   
    14    6    9 ar  
    15    7   32 1   
    16    7   33 1   
    17    8   12 1   
    18    8   34 1   
    19    8   35 1   
    20   10   11 ar  
    21   10   12 1   
    22   10   25 ar  
    23   11   14 ar  
    24   11   38 1   
    25   12   36 1   
    26   12   37 1   
    27   13   15 ar  
    28   13   22 1   
    29   13   25 ar  
    30   14   15 ar  
    31   14   24 1   
    32   15   40 1   
    33   16   21 1   
    34   16   24 1   
    35   16   43 1   
    36   16   44 1   
    37   17   18 ar  
    38   17   21 ar  
    39   18   20 ar  
    40   18   54 1   
    41   19   20 ar  
    42   19   23 ar  
    43   19   55 1   
    44   20   49 1   
    45   21   23 ar  
    46   22   56 3   
    47   23   45 1   
    48   24   41 1   
    49   24   42 1   
    50   25   39 1   
    51   26   51 1   
    52   26   52 1   
    53   26   53 1   
    54   26   54 1   
    55   46   55 1   
    56   47   55 1   
    57   48   55 1   
    58   50   54 1   
@<TRIPOS>SUBSTRUCTURE
     1 IVU         1 TEMP              0 ****  ****    0 ROOT
