@<TRIPOS>MOLECULE
IVV
   81    77     1     0     0
SMALL
bcc


@<TRIPOS>ATOM
      1 CA1         4.1080   -5.8850    0.5210 c3        1 IVV     -0.173000
      2 CB1         5.5910   -6.1430    0.1840 c3        1 IVV     -0.103000
      3 CG11        6.4370   -6.0070    1.4580 c3        1 IVV     -0.212000
      4 CG21        5.7480   -7.5600   -0.3860 c3        1 IVV     -0.212000
      5 C1          3.5630   -4.7610   -0.3820 c2        1 IVV      0.306000
      6 O1          4.2620   -4.2970   -1.2670 o         1 IVV     -0.373000
      7 N1          2.2210   -4.2560   -0.1800 n         1 IVV     -0.361000
      8 CA2         1.6950   -3.2660   -1.0540 c3        1 IVV      0.013000
      9 C2          1.1170   -2.1200   -0.2340 c2        1 IVV      0.279000
     10 O2          0.8440   -2.2890    0.9430 o         1 IVV     -0.379000
     11 CB2         0.5980   -3.8780   -1.9160 c3        1 IVV     -0.110000
     12 CG12        0.0200   -5.1150   -1.2080 c3        1 IVV     -0.214500
     13 CG22        1.1850   -4.2930   -3.2750 c3        1 IVV     -0.214500
     14 N3          0.9130   -0.8160   -0.8480 n         1 IVV     -0.353000
     15 CA3         0.7840    0.3440   -0.0310 c3        1 IVV      0.012000
     16 C3         -0.6070    0.9350   -0.2030 c1        1 IVV      0.260000
     17 O3         -1.1390    0.9320   -1.3000 o         1 IVV     -0.360000
     18 CB3         1.8290    1.3740   -0.4410 c3        1 IVV     -0.102000
     19 CG13        3.0700    1.2300    0.4550 c3        1 IVV     -0.218000
     20 CG23        2.2270    1.1450   -1.9080 c3        1 IVV     -0.218000
     21 N4         -1.2750    1.5600    0.9270 n2        1 IVV     -0.334000
     22 O4         -3.3550    6.6150    1.8870 o         1 IVV     -0.390000
     23 P          -2.4270    3.9060    1.4310 p3        1 IVV      2.802000
     24 C5         -2.9790    6.5180    0.7320 c1        1 IVV      0.335000
     25 C6         -3.2660    8.8750    0.5510 c3        1 IVV     -0.014000
     26 O6         -2.7620    7.6860   -0.0440 os        1 IVV     -0.246000
     27 C7         -2.8880   10.0820   -0.3180 c3        1 IVV     -0.221000
     28 CA4        -2.5220    2.2220    0.7400 c2        1 IVV     -0.692000
     29 CB4        -3.6200    1.4440    1.4470 c3        1 IVV     -0.166000
     30 CG4        -4.9660    1.6680    0.7150 c3        1 IVV     -0.102000
     31 CP         -2.7780    5.1330    0.1060 c2        1 IVV     -0.885000
     32 O1P        -3.4270    4.0520    2.5180 o         1 IVV     -1.123000
     33 O2P        -0.9700    4.1580    2.0140 oh        1 IVV     -0.830000
     34 CD1        -6.0260    2.1390    1.7240 c3        1 IVV     -0.216000
     35 CD2        -5.4240    0.3520    0.0700 c3        1 IVV     -0.216000
     36 HA1         4.0280   -5.6160    1.4630 hc        1 IVV      0.107000
     37 HA1A        3.5900   -6.7070    0.3710 hc        1 IVV      0.107000
     38 HB1         5.8940   -5.4870   -0.4820 hc        1 IVV      0.111000
     39 HG11        6.1230   -6.6520    2.1300 hc        1 IVV      0.076500
     40 HG1A        6.3500   -5.0950    1.8130 hc        1 IVV      0.076500
     41 HG1B        7.3810   -6.1880    1.2450 hc        1 IVV      0.076500
     42 HG21        6.6980   -7.7360   -0.5680 hc        1 IVV      0.076500
     43 HG2A        5.2340   -7.6360   -1.2200 hc        1 IVV      0.076500
     44 HG2B        5.4120   -8.2140    0.2670 hc        1 IVV      0.076500
     45 HN1         1.7280   -4.5390    0.5420 hn        1 IVV      0.236000
     46 HA2         2.4130   -2.9250   -1.6310 h1        1 IVV      0.145000
     47 HB2        -0.1160   -3.2180   -2.0550 hc        1 IVV      0.097000
     48 HG12       -0.2440   -4.8750   -0.2930 hc        1 IVV      0.082167
     49 HG1C        0.7010   -5.8230   -1.1780 hc        1 IVV      0.082167
     50 HG1D       -0.7670   -5.4390   -1.7040 hc        1 IVV      0.082167
     51 HG22        1.8180   -5.0340   -3.1460 hc        1 IVV      0.082167
     52 HG2C        0.4580   -4.5820   -3.8720 hc        1 IVV      0.082167
     53 HG2D        1.6540   -3.5270   -3.6760 hc        1 IVV      0.082167
     54 HN3         0.8200   -0.7480   -1.7580 hn        1 IVV      0.238000
     55 HA3         0.9200    0.0970    0.9110 h1        1 IVV      0.139000
     56 HB3         1.4550    2.2770   -0.3400 hc        1 IVV      0.094000
     57 HG13        3.5040    0.3670    0.2770 hc        1 IVV      0.084000
     58 HG1E        3.7010    1.9610    0.2610 hc        1 IVV      0.084000
     59 HG1F        2.8000    1.2730    1.3990 hc        1 IVV      0.084000
     60 HG23        2.7450    1.9180   -2.2330 hc        1 IVV      0.084000
     61 HG2E        1.4170    1.0410   -2.4550 hc        1 IVV      0.084000
     62 HG2F        2.7740    0.3330   -1.9760 hc        1 IVV      0.084000
     63 HN4        -0.9030    1.5110    1.7650 hn        1 IVV      0.228000
     64 H6         -2.8780    8.9830    1.4480 h1        1 IVV      0.099000
     65 H6A        -4.2450    8.8160    0.6230 h1        1 IVV      0.099000
     66 H7         -2.5760   10.4040    0.5560 hc        1 IVV      0.091333
     67 H7A        -3.2380   11.0030   -0.3470 hc        1 IVV      0.091333
     68 H7B        -3.7910    9.9050   -0.6640 hc        1 IVV      0.091333
     69 HA4        -2.7240    2.2730   -0.2190 h4        1 IVV      0.172000
     70 HB4        -3.3990    0.4860    1.4410 hc        1 IVV      0.102000
     71 HB4A       -3.6970    1.7570    2.3760 hc        1 IVV      0.102000
     72 HG4        -4.8510    2.3510    0.0190 hc        1 IVV      0.096000
     73 HP         -3.5920    4.8710   -0.3760 ha        1 IVV      0.182000
     74 HPA        -2.0230    5.1640   -0.5200 ha        1 IVV      0.182000
     75 HO2P       -1.0290    4.6410    2.7620 ho        1 IVV      0.295000
     76 HD14       -5.9770    1.5850    2.5350 hc        1 IVV      0.077833
     77 HD1A       -5.8600    3.0780    1.9590 hc        1 IVV      0.077833
     78 HD1B       -6.9220    2.0550    1.3230 hc        1 IVV      0.077833
     79 HD24       -4.7510    0.0550   -0.5810 hc        1 IVV      0.077833
     80 HD2A       -6.2840    0.4920   -0.3880 hc        1 IVV      0.077833
     81 HD2B       -5.5310   -0.3350    0.7660 hc        1 IVV      0.077833
@<TRIPOS>BOND
     1    1    2 1   
     2    1    5 1   
     3    1   36 1   
     4    1   37 1   
     5    2    3 1   
     6    2    4 1   
     7    2   38 1   
     8    3   39 1   
     9    3   40 1   
    10    3   41 1   
    11    4   42 1   
    12    4   43 1   
    13    4   44 1   
    14    5    6 1   
    15    5    7 1   
    16    7    8 1   
    17    7   45 1   
    18    8    9 1   
    19    8   11 1   
    20    8   46 1   
    21    9   10 1   
    22    9   14 1   
    23   11   12 1   
    24   11   13 1   
    25   11   47 1   
    26   12   48 1   
    27   12   49 1   
    28   12   50 1   
    29   13   51 1   
    30   13   52 1   
    31   13   53 1   
    32   14   15 1   
    33   14   54 1   
    34   15   16 1   
    35   15   18 1   
    36   15   55 1   
    37   16   17 1   
    38   18   19 1   
    39   18   20 1   
    40   18   56 1   
    41   19   57 1   
    42   19   58 1   
    43   19   59 1   
    44   20   60 1   
    45   20   61 1   
    46   20   62 1   
    47   21   28 1   
    48   21   63 1   
    49   22   24 1   
    50   23   31 1   
    51   23   32 1   
    52   23   33 1   
    53   24   26 1   
    54   25   26 1   
    55   25   27 1   
    56   25   64 1   
    57   25   65 1   
    58   27   66 1   
    59   27   67 1   
    60   27   68 1   
    61   28   29 1   
    62   28   69 1   
    63   29   30 1   
    64   29   70 1   
    65   29   71 1   
    66   30   34 1   
    67   30   35 1   
    68   30   72 1   
    69   31   73 1   
    70   31   74 1   
    71   33   75 1   
    72   34   76 1   
    73   34   77 1   
    74   34   78 1   
    75   35   79 1   
    76   35   80 1   
    77   35   81 1   
@<TRIPOS>SUBSTRUCTURE
     1 IVV         1 TEMP              0 ****  ****    0 ROOT
