@<TRIPOS>MOLECULE
IVV
   81    80     1     0     0
SMALL
bcc


@<TRIPOS>ATOM
      1 CA1         6.3920   -0.9620   -1.0520 c3        1 IVV     -0.147400
      2 CB1         7.6640   -0.5620   -0.3160 c3        1 IVV     -0.063700
      3 CG11        8.8510   -1.2740   -0.9340 c3        1 IVV     -0.096600
      4 CG21        7.8810    0.9360   -0.3440 c3        1 IVV     -0.096600
      5 C1          5.1570   -0.6500   -0.2310 c         1 IVV      0.665100
      6 O1          4.6830   -1.4770    0.5770 o         1 IVV     -0.626100
      7 N1          4.5490    0.5770   -0.4150 n         1 IVV     -0.568900
      8 CA2         3.4360    1.0080    0.3910 c3        1 IVV      0.045700
      9 C2          2.1050    0.5190   -0.2470 c         1 IVV      0.644100
     10 O2          1.3210    1.2980   -0.8310 o         1 IVV     -0.644100
     11 CB2         3.3690    2.5370    0.6010 c3        1 IVV     -0.071700
     12 CG12        2.4140    2.8350    1.7400 c3        1 IVV     -0.095600
     13 CG22        4.7290    3.1280    0.9020 c3        1 IVV     -0.095600
     14 N3          1.8470   -0.8260   -0.1470 n         1 IVV     -0.553900
     15 CA3         0.7040   -1.4360   -0.7730 c3        1 IVV      0.052700
     16 C3         -0.6050   -1.0340   -0.0410 c         1 IVV      0.628100
     17 O3         -0.9830   -1.5890    1.0040 o         1 IVV     -0.583100
     18 CB3         0.7750   -2.9760   -0.8610 c3        1 IVV     -0.063700
     19 CG13        1.6920   -3.3850   -1.9950 c3        1 IVV     -0.101600
     20 CG23        1.2040   -3.6390    0.4300 c3        1 IVV     -0.101600
     21 N4         -1.3730   -0.0520   -0.6840 n         1 IVV     -0.510900
     22 O4         -6.3020   -1.6170    0.9050 o         1 IVV     -0.525000
     23 P          -3.8970    0.0840   -0.9710 p5        1 IVV      1.482100
     24 C5         -6.2500   -0.6510    0.1400 c         1 IVV      0.675100
     25 C6         -8.3690   -1.4170   -0.6510 c3        1 IVV      0.141400
     26 O6         -7.3370   -0.4110   -0.6600 os        1 IVV     -0.440900
     27 C7         -9.3910   -0.9770   -1.6700 c3        1 IVV     -0.101100
     28 CA4        -2.5610    0.4540   -0.0270 c3        1 IVV     -0.222500
     29 CB4        -2.5630    1.9610    0.2160 c3        1 IVV     -0.093400
     30 CG4        -1.3970    2.4740    1.0420 c3        1 IVV     -0.072700
     31 O1P        -3.9600   -1.1500   -1.7400 o         1 IVV     -0.846300
     32 O2P        -3.9940    1.2590   -2.0730 oh        1 IVV     -0.803400
     33 CD1        -1.5120    3.9770    1.2020 c3        1 IVV     -0.094600
     34 CD2        -1.3260    1.8050    2.3990 c3        1 IVV     -0.094600
     35 HA1         6.3950   -2.0730   -1.2230 hc        1 IVV      0.071700
     36 HA1A        6.3550   -0.4620   -2.0540 hc        1 IVV      0.071700
     37 HB1         7.5690   -0.8940    0.7580 hc        1 IVV      0.066700
     38 HG11        9.7890   -0.9910   -0.3990 hc        1 IVV      0.038700
     39 HG1A        8.7230   -2.3810   -0.8640 hc        1 IVV      0.038700
     40 HG1B        8.9590   -0.9960   -2.0100 hc        1 IVV      0.038700
     41 HG21        7.9080    1.3110   -1.3960 hc        1 IVV      0.038700
     42 HG2A        7.0660    1.4680    0.2040 hc        1 IVV      0.038700
     43 HG2B        8.8530    1.1900    0.1440 hc        1 IVV      0.038700
     44 HN1         4.9340    1.2280   -1.0560 hn        1 IVV      0.322500
     45 HA2         3.5310    0.5190    1.4120 h1        1 IVV      0.090700
     46 HB2         2.9610    3.0040   -0.3410 hc        1 IVV      0.079700
     47 HG12        2.2740    3.9380    1.8390 hc        1 IVV      0.041033
     48 HG1C        1.4150    2.3700    1.5450 hc        1 IVV      0.041033
     49 HG1D        2.8130    2.4400    2.7050 hc        1 IVV      0.041033
     50 HG22        5.2620    2.5270    1.6780 hc        1 IVV      0.041033
     51 HG2C        5.3670    3.1730   -0.0130 hc        1 IVV      0.041033
     52 HG2D        4.6100    4.1710    1.2860 hc        1 IVV      0.041033
     53 HN3         2.4760   -1.4150    0.3570 hn        1 IVV      0.353500
     54 HA3         0.6470   -1.0440   -1.8380 h1        1 IVV      0.077700
     55 HB3        -0.2730   -3.3170   -1.1010 hc        1 IVV      0.078700
     56 HG13        1.7120   -4.4990   -2.0790 hc        1 IVV      0.044200
     57 HG1E        1.3340   -2.9640   -2.9650 hc        1 IVV      0.044200
     58 HG1F        2.7330   -3.0270   -1.8120 hc        1 IVV      0.044200
     59 HG23        0.6440   -3.2060    1.2960 hc        1 IVV      0.044200
     60 HG2E        0.9810   -4.7330    0.3780 hc        1 IVV      0.044200
     61 HG2F        2.3010   -3.5230    0.6080 hc        1 IVV      0.044200
     62 HN4        -0.8150    0.6520   -1.1390 hn        1 IVV      0.327500
     63 H6         -7.9110   -2.4060   -0.9130 h1        1 IVV      0.056200
     64 H6A        -8.8000   -1.4720    0.3830 h1        1 IVV      0.056200
     65 H7        -10.2200   -1.7240   -1.6970 hc        1 IVV      0.048367
     66 H7A        -9.8080    0.0230   -1.4030 hc        1 IVV      0.048367
     67 H7B        -8.9290   -0.9060   -2.6830 hc        1 IVV      0.048367
     68 HA4        -2.6340   -0.0470    0.9920 h1        1 IVV      0.130700
     69 HB4        -2.5650    2.4850   -0.7790 hc        1 IVV      0.059700
     70 HB4A       -3.5260    2.2170    0.7320 hc        1 IVV      0.059700
     71 HG4        -0.4400    2.2560    0.4830 hc        1 IVV      0.071700
     72 HP         -4.8760    0.5870    1.1030 hc        1 IVV      0.133700
     73 HPA        -5.7010    1.3470   -0.3010 hc        1 IVV      0.133700
     74 HO2P       -4.0640    0.9600   -2.9780 ho        1 IVV      0.480000
     75 HD14       -0.6140    4.3720    1.7360 hc        1 IVV      0.037033
     76 HD1A       -1.5780    4.4730    0.2040 hc        1 IVV      0.037033
     77 HD1B       -2.4210    4.2440    1.7930 hc        1 IVV      0.037033
     78 HD24       -2.2890    1.9230    2.9500 hc        1 IVV      0.037033
     79 HD2A       -1.1060    0.7140    2.2910 hc        1 IVV      0.037033
     80 HD2B       -0.5120    2.2670    3.0090 hc        1 IVV      0.037033
     81 CP         -5.1980    0.3960    0.0410 c3        1 IVV     -0.449600
@<TRIPOS>BOND
     1    1    2 1   
     2    1    5 1   
     3    1   35 1   
     4    1   36 1   
     5    2    3 1   
     6    2    4 1   
     7    2   37 1   
     8    3   38 1   
     9    3   39 1   
    10    3   40 1   
    11    4   41 1   
    12    4   42 1   
    13    4   43 1   
    14    5    6 2   
    15    5    7 1   
    16    7    8 1   
    17    7   44 1   
    18    8    9 1   
    19    8   11 1   
    20    8   45 1   
    21    9   10 2   
    22    9   14 1   
    23   11   12 1   
    24   11   13 1   
    25   11   46 1   
    26   12   47 1   
    27   12   48 1   
    28   12   49 1   
    29   13   50 1   
    30   13   51 1   
    31   13   52 1   
    32   14   15 1   
    33   14   53 1   
    34   15   16 1   
    35   15   18 1   
    36   15   54 1   
    37   16   17 2   
    38   16   21 1   
    39   18   19 1   
    40   18   20 1   
    41   18   55 1   
    42   19   56 1   
    43   19   57 1   
    44   19   58 1   
    45   20   59 1   
    46   20   60 1   
    47   20   61 1   
    48   21   28 1   
    49   21   62 1   
    50   22   24 2   
    51   23   28 1   
    52   23   31 2   
    53   23   32 1   
    54   23   81 1   
    55   24   26 1   
    56   24   81 1   
    57   25   26 1   
    58   25   27 1   
    59   25   63 1   
    60   25   64 1   
    61   27   65 1   
    62   27   66 1   
    63   27   67 1   
    64   28   29 1   
    65   28   68 1   
    66   29   30 1   
    67   29   69 1   
    68   29   70 1   
    69   30   33 1   
    70   30   34 1   
    71   30   71 1   
    72   32   74 1   
    73   33   75 1   
    74   33   76 1   
    75   33   77 1   
    76   34   78 1   
    77   34   79 1   
    78   34   80 1   
    79   72   81 1   
    80   73   81 1   
@<TRIPOS>SUBSTRUCTURE
     1 IVV         1 TEMP              0 ****  ****    0 ROOT
