@<TRIPOS>MOLECULE
IW1
   27    28     1     0     0
SMALL
bcc


@<TRIPOS>ATOM
      1 OAA        -4.2920    0.2950    0.1670 oh        1 IW1     -0.473100
      2 CLAC        3.2730   -2.4780    1.4880 cl        1 IW1     -0.081900
      3 BRAD       -3.6150   -2.6790   -0.1700 br        1 IW1     -0.065100
      4 BRAE       -2.5840    2.9670    0.3360 br        1 IW1     -0.065100
      5 CAF         1.2450   -0.6690   -0.2140 ce        1 IW1     -0.078200
      6 CAG         2.2220    0.1270    0.2450 cf        1 IW1     -0.114200
      7 CAH         6.4070   -0.6710   -0.1280 ca        1 IW1     -0.113000
      8 CAI         5.8620    0.4930   -0.6660 ca        1 IW1     -0.124500
      9 CAJ         5.5920   -1.5860    0.5330 ca        1 IW1     -0.124500
     10 CAK        -1.0950   -1.4290   -0.1750 ca        1 IW1     -0.045000
     11 CAL        -0.6500    0.9340    0.0400 ca        1 IW1     -0.045000
     12 CAM        -2.9370    0.1210    0.0780 ca        1 IW1      0.190100
     13 CAN         4.4920    0.7370   -0.5410 ca        1 IW1      0.030900
     14 CAO         4.2200   -1.3380    0.6540 ca        1 IW1      0.030900
     15 CAP        -2.4670   -1.2020   -0.0800 ca        1 IW1     -0.091400
     16 CAQ        -2.0180    1.1890    0.1350 ca        1 IW1     -0.091400
     17 CAR        -0.1740   -0.3730   -0.1100 ca        1 IW1     -0.094800
     18 CAS         3.6430   -0.1750    0.1160 ca        1 IW1     -0.041800
     19 HOAA       -4.4760    1.2450    0.2720 ho        1 IW1      0.437000
     20 HAF         1.4880   -1.6300   -0.7030 ha        1 IW1      0.138000
     21 HAG         2.0040    1.0880    0.7430 ha        1 IW1      0.143000
     22 HAH         7.4850   -0.8660   -0.2240 ha        1 IW1      0.144000
     23 HAI         6.5070    1.2160   -1.1870 ha        1 IW1      0.152000
     24 HAJ         6.0260   -2.5020    0.9630 ha        1 IW1      0.152000
     25 HAK        -0.7190   -2.4590   -0.3010 ha        1 IW1      0.155000
     26 HAL         0.0670    1.7720    0.0760 ha        1 IW1      0.155000
     27 CLAB        3.8570    2.1670   -1.2110 cl        1 IW1     -0.081900
@<TRIPOS>BOND
     1    1   12 1   
     2    1   19 1   
     3    2   14 1   
     4    3   15 1   
     5    4   16 1   
     6    5    6 2   
     7    5   17 1   
     8    5   20 1   
     9    6   18 1   
    10    6   21 1   
    11    7    8 ar  
    12    7    9 ar  
    13    7   22 1   
    14    8   13 ar  
    15    8   23 1   
    16    9   14 ar  
    17    9   24 1   
    18   10   15 ar  
    19   10   17 ar  
    20   10   25 1   
    21   11   16 ar  
    22   11   17 ar  
    23   11   26 1   
    24   12   15 ar  
    25   12   16 ar  
    26   13   18 ar  
    27   13   27 1   
    28   14   18 ar  
@<TRIPOS>SUBSTRUCTURE
     1 IW1         1 TEMP              0 ****  ****    0 ROOT
