@<TRIPOS>MOLECULE
IW1
   27    27     1     0     0
SMALL
bcc


@<TRIPOS>ATOM
      1 OAA         1.0540    2.0460   -0.5210 oh        1 IW1     -0.226000
      2 ClAC        7.5660    1.0450   -1.8060 cl        1 IW1      0.012000
      3 BrAD        0.5410    0.1740    1.8090 br        1 IW1      0.089000
      4 BrAE        2.9940    2.1030   -3.0130 br        1 IW1      0.072000
      5 CAF         4.6060   -0.4990   -2.6030 c1        1 IW1     -0.165000
      6 CAG         5.3310   -0.8450   -3.6300 c2        1 IW1     -0.051000
      7 CAH         6.7110    3.1580   -4.8000 c1        1 IW1      0.236000
      8 CAI         8.9630   -0.6100   -4.9170 c3        1 IW1     -0.200000
      9 CAJ         6.8670    2.0900   -4.1200 c1        1 IW1     -0.576000
     10 CAK         2.8490   -0.8740    0.6290 c2        1 IW1     -0.084000
     11 CAL         3.8480   -0.2060   -1.5710 c2        1 IW1      0.033000
     12 CAM         1.9750    1.0370   -0.5810 c2        1 IW1      0.159000
     13 CAN         7.5950   -1.0800   -4.5990 c2        1 IW1     -0.031000
     14 CAO         7.0020    0.9840   -3.4090 c2        1 IW1      0.289000
     15 CAP         1.9090    0.0860    0.5290 c2        1 IW1     -0.178000
     16 CAQ         2.9000    0.8980   -1.5770 c2        1 IW1     -0.284000
     17 CAR         3.9650   -1.0300   -0.3260 c3        1 IW1     -0.108000
     18 CAS         6.6810   -0.3650   -3.9050 c2        1 IW1     -0.100000
     19 HOAA        1.1730    2.6260   -1.2940 ho        1 IW1      0.240000
     20 HAF         4.9220   -0.7480    0.2020 hc        1 IW1      0.121000
     21 HAG         4.9200   -1.5540   -4.3760 ha        1 IW1      0.163000
     22 HAH         9.1390   -0.6490   -6.0220 hc        1 IW1      0.106667
     23 HAI         9.7220   -1.2640   -4.4170 hc        1 IW1      0.106667
     24 HAJ         9.1200    0.4430   -4.5740 hc        1 IW1      0.106667
     25 HAK         2.8400   -1.6040    1.4580 ha        1 IW1      0.152000
     26 HAL         4.0540   -2.1180   -0.6060 hc        1 IW1      0.121000
     27 ClAB        7.2400   -2.6420   -5.1780 cl        1 IW1     -0.002000
@<TRIPOS>BOND
     1    1   12 1   
     2    1   19 1   
     3    2   14 1   
     4    3   15 1   
     5    4   16 1   
     6    5    6 1   
     7    5   11 1   
     8    6   18 1   
     9    6   21 1   
    10    7    9 1   
    11    8   13 1   
    12    8   22 1   
    13    8   23 1   
    14    8   24 1   
    15    9   14 1   
    16   10   15 1   
    17   10   17 1   
    18   10   25 1   
    19   11   16 1   
    20   11   17 1   
    21   12   15 1   
    22   12   16 1   
    23   13   18 1   
    24   13   27 1   
    25   14   18 1   
    26   17   20 1   
    27   17   26 1   
@<TRIPOS>SUBSTRUCTURE
     1 IW1         1 TEMP              0 ****  ****    0 ROOT
