@<TRIPOS>MOLECULE
IW2
   29    30     1     0     0
SMALL
bcc


@<TRIPOS>ATOM
      1 OAA         4.2260    0.2140    0.3770 oh        1 IW2     -0.475100
      2 CLAC       -3.5130    2.7320   -0.1220 cl        1 IW2     -0.087400
      3 BRAD        3.2490   -2.7560   -0.1810 br        1 IW2     -0.067600
      4 BRAE        2.8520    2.9590    0.4440 br        1 IW2     -0.067600
      5 CAF        -6.3770    0.0040   -0.3350 ca        1 IW2     -0.116000
      6 CAG        -5.7040   -1.1850   -0.0670 ca        1 IW2     -0.122000
      7 CAH        -5.6830    1.2120   -0.3460 ca        1 IW2     -0.122000
      8 CAI         0.9080   -1.2020   -0.4480 ca        1 IW2     -0.054000
      9 CAJ         0.7550    1.1910   -0.1840 ca        1 IW2     -0.054000
     10 CAK        -1.3160   -0.0910   -0.7570 c3        1 IW2     -0.028100
     11 CAL        -2.1480    0.0660    0.5070 c3        1 IW2     -0.043100
     12 CAM        -4.3300   -1.1620    0.1960 ca        1 IW2      0.024400
     13 CAN        -4.3100    1.2260   -0.0830 ca        1 IW2      0.024400
     14 CAO         2.8900    0.0870    0.1000 ca        1 IW2      0.184100
     15 CAP         2.2760   -1.1520   -0.1740 ca        1 IW2     -0.088400
     16 CAQ         2.1190    1.2700    0.0930 ca        1 IW2     -0.088400
     17 CAR         0.1410   -0.0360   -0.4550 ca        1 IW2     -0.115300
     18 CAS        -3.6060    0.0430    0.2010 ca        1 IW2     -0.061300
     19 HOAA        4.6330   -0.6690    0.3470 ho        1 IW2      0.436000
     20 HAF        -7.4580   -0.0100   -0.5400 ha        1 IW2      0.144000
     21 HAG        -6.2520   -2.1400   -0.0620 ha        1 IW2      0.152000
     22 HAH        -6.2140    2.1520   -0.5630 ha        1 IW2      0.152000
     23 HAI         0.4250   -2.1700   -0.6620 ha        1 IW2      0.154000
     24 HAJ         0.1410    2.1080   -0.1930 ha        1 IW2      0.154000
     25 HAK        -1.5710   -1.0660   -1.2510 hc        1 IW2      0.059200
     26 HAKA       -1.5780    0.7300   -1.4780 hc        1 IW2      0.059200
     27 HAL        -1.8930   -0.7580    1.2260 hc        1 IW2      0.067700
     28 HALA       -1.8750    1.0310    1.0140 hc        1 IW2      0.067700
     29 CLAB       -3.5600   -2.6490    0.5060 cl        1 IW2     -0.087400
@<TRIPOS>BOND
     1    1   14 1   
     2    1   19 1   
     3    2   13 1   
     4    3   15 1   
     5    4   16 1   
     6    5    6 ar  
     7    5    7 ar  
     8    5   20 1   
     9    6   12 ar  
    10    6   21 1   
    11    7   13 ar  
    12    7   22 1   
    13    8   15 ar  
    14    8   17 ar  
    15    8   23 1   
    16    9   16 ar  
    17    9   17 ar  
    18    9   24 1   
    19   10   11 1   
    20   10   17 1   
    21   10   25 1   
    22   10   26 1   
    23   11   18 1   
    24   11   27 1   
    25   11   28 1   
    26   12   18 ar  
    27   12   29 1   
    28   13   18 ar  
    29   14   15 ar  
    30   14   16 ar  
@<TRIPOS>SUBSTRUCTURE
     1 IW2         1 TEMP              0 ****  ****    0 ROOT
