@<TRIPOS>MOLECULE
IW2
   29    26     1     0     0
SMALL
bcc


@<TRIPOS>ATOM
      1 OAA        -5.4540    0.4460    1.8840 oh        1 IW2     -0.229000
      2 CLAB        2.8760   -0.4140    1.9650 cl        1 IW2     -0.008000
      3 CLAC        1.3900   -0.6680   -3.4740 cl        1 IW2     -0.011000
      4 BRAD       -3.4430    0.5150    4.2100 br        1 IW2      0.084000
      5 BRAE       -5.3020    0.3920   -1.1890 br        1 IW2      0.061000
      6 CAF         4.6220   -0.4000   -1.6420 c1        1 IW2     -0.119000
      7 CAG         4.4190   -0.4120   -0.2710 c1        1 IW2     -0.122000
      8 CAH         3.5360   -0.3630   -2.5020 c1        1 IW2     -0.119000
      9 CAI        -1.7670    0.4460    1.8840 c1        1 IW2     -0.056000
     10 CAJ        -2.5490    0.3940   -0.3860 c1        1 IW2     -0.052000
     11 CAK        -0.0990    0.6910    0.0290 c3        1 IW2     -0.114000
     12 CAL         0.6230   -0.6210   -0.1840 c3        1 IW2     -0.129000
     13 CAM         3.1310   -0.3860    0.2400 c2        1 IW2     -0.054000
     14 CAN         2.2470   -0.3380   -1.9920 c1        1 IW2     -0.054000
     15 CAO        -4.1240    0.4200    1.4260 c2        1 IW2      0.139000
     16 CAP        -3.0780    0.4460    2.3350 c2        1 IW2     -0.200000
     17 CAQ        -3.8590    0.3940    0.0660 c1        1 IW2     -0.257000
     18 CAR        -1.5030    0.4200    0.5230 c1        1 IW2     -0.108000
     19 CAS         2.0450   -0.3490   -0.6210 c2        1 IW2     -0.054000
     20 HOAA       -5.7430   -0.3850    2.0020 ho        1 IW2      0.235000
     21 HAF         5.5290   -0.4180   -2.0020 ha        1 IW2      0.148000
     22 HAG         5.1840   -0.4380    0.3350 ha        1 IW2      0.152000
     23 HAH         3.6780   -0.3550   -3.4680 ha        1 IW2      0.148000
     24 HAI        -1.0310    0.4650    2.5240 ha        1 IW2      0.154000
     25 HAJ        -2.3630    0.3760   -1.3440 ha        1 IW2      0.154000
     26 HAK         0.3820    1.2240    0.6900 hc        1 IW2      0.098500
     27 HAKA       -0.1400    1.1800   -0.8150 hc        1 IW2      0.098500
     28 HAL         0.6290   -1.1280    0.6500 hc        1 IW2      0.106500
     29 HALA        0.1630   -1.1370   -0.8740 hc        1 IW2      0.106500
@<TRIPOS>BOND
     1    1   15 1   
     2    1   20 1   
     3    2   13 1   
     4    3   14 1   
     5    4   16 1   
     6    5   17 1   
     7    6    8 1   
     8    6   21 1   
     9    7   13 1   
    10    7   22 1   
    11    8   23 1   
    12    9   16 1   
    13    9   24 1   
    14   10   18 1   
    15   10   25 1   
    16   11   12 1   
    17   11   18 1   
    18   11   26 1   
    19   11   27 1   
    20   12   19 1   
    21   12   28 1   
    22   12   29 1   
    23   13   19 1   
    24   14   19 1   
    25   15   16 1   
    26   15   17 1   
@<TRIPOS>SUBSTRUCTURE
     1 IW2         1 TEMP              0 ****  ****    0 ROOT
