@<TRIPOS>MOLECULE
IW2
   29    29     1     0     0
SMALL
bcc


@<TRIPOS>ATOM
      1 OAA         0.6860    1.4700    0.1710 oh        1 IW2     -0.202000
      2 CLAC        6.6590   -2.6800   -5.0330 cl        1 IW2     -0.005000
      3 BRAD        2.6620    0.1040    2.1840 br        1 IW2      0.067000
      4 BRAE        0.3950    1.5930   -2.9000 br        1 IW2      0.092000
      5 CAF         9.5830   -1.7980   -5.5000 c1        1 IW2      0.260000
      6 CAG         8.2780    0.2950   -1.5120 c2        1 IW2     -0.196000
      7 CAH         9.0490   -1.7640   -4.2950 c2        1 IW2     -0.467000
      8 CAI         3.5540   -0.7660   -0.3340 c2        1 IW2     -0.032000
      9 CAJ         2.5730   -0.1040   -2.5430 c1        1 IW2     -0.068000
     10 CAK         4.9490   -0.7090   -2.4010 c3        1 IW2     -0.119000
     11 CAL         5.8410   -1.9130   -2.1630 c3        1 IW2     -0.127000
     12 CAM         8.1130   -1.0240   -1.6430 c2        1 IW2     -0.068000
     13 CAN         7.6860   -1.9770   -3.8650 c2        1 IW2      0.025000
     14 CAO         1.6240    0.7210   -0.4550 c2        1 IW2      0.228000
     15 CAP         2.6310   -0.0120    0.3070 c2        1 IW2     -0.289000
     16 CAQ         1.6290    0.6580   -1.8450 c2        1 IW2     -0.308000
     17 CAR         3.5530   -0.9130   -1.8120 c3        1 IW2     -0.147000
     18 CAS         7.2320   -1.6540   -2.6320 c2        1 IW2     -0.088000
     19 HOAA        0.8150    1.4220    1.1370 ho        1 IW2      0.243000
     20 HAF         7.7650    1.0050   -2.1760 ha        1 IW2      0.137000
     21 HAG         8.9250    0.7430   -0.7460 ha        1 IW2      0.137000
     22 HAH         9.7680   -1.5310   -3.4710 ha        1 IW2      0.210000
     23 HAI         4.3400   -1.3090    0.2200 ha        1 IW2      0.154000
     24 HAJ         3.2290   -1.9860   -2.0370 hc        1 IW2      0.176000
     25 HAK         4.8410   -0.5320   -3.5050 hc        1 IW2      0.110500
     26 HAKA        5.4150    0.2060   -1.9510 hc        1 IW2      0.110500
     27 HAL         5.8700   -2.1600   -1.0670 hc        1 IW2      0.098500
     28 HALA        5.4130   -2.8080   -2.6910 hc        1 IW2      0.098500
     29 CLAB        8.9140   -2.1190   -0.5990 cl        1 IW2     -0.030000
@<TRIPOS>BOND
     1    1   14 1   
     2    1   19 1   
     3    2   13 1   
     4    3   15 1   
     5    4   16 1   
     6    5    7 1   
     7    6   12 1   
     8    6   20 1   
     9    6   21 1   
    10    7   13 1   
    11    7   22 1   
    12    8   15 1   
    13    8   17 1   
    14    8   23 1   
    15    9   16 1   
    16    9   17 1   
    17   10   11 1   
    18   10   17 1   
    19   10   25 1   
    20   10   26 1   
    21   11   18 1   
    22   11   27 1   
    23   11   28 1   
    24   12   18 1   
    25   12   29 1   
    26   13   18 1   
    27   14   15 1   
    28   14   16 1   
    29   17   24 1   
@<TRIPOS>SUBSTRUCTURE
     1 IW2         1 TEMP              0 ****  ****    0 ROOT
