@<TRIPOS>MOLECULE
IW3
   29    23     1     0     0
SMALL
bcc


@<TRIPOS>ATOM
      1 NAA        -4.2840   -1.3560   -2.6960 n3        1 IW3     -0.331000
      2 OAB         5.5220   -0.1500    0.6540 oh        1 IW3     -0.229000
      3 BRAC        3.9040   -2.7890    0.6830 br        1 IW3      0.081000
      4 BRAD        4.7120    2.8330    1.1970 br        1 IW3      0.059000
      5 CAE        -1.1010    0.9730    1.2280 c1        1 IW3     -0.123500
      6 CAF         0.1660    1.1080    1.6940 c1        1 IW3     -0.123500
      7 CAG        -2.4040    0.1560   -2.2460 c1        1 IW3     -0.123500
      8 CAH        -3.2850   -1.2240   -0.4790 c1        1 IW3     -0.197000
      9 CAI        -1.4120    0.6450   -1.3650 c1        1 IW3     -0.123500
     10 CAJ        -2.3150   -0.7460    0.3820 c1        1 IW3     -0.063000
     11 CAK         1.8410   -0.8070    0.8830 c1        1 IW3     -0.063000
     12 CAL         2.2060    1.5880    0.8740 c1        1 IW3     -0.050000
     13 CAM        -3.3310   -0.7730   -1.7990 c1        1 IW3      0.071000
     14 CAN         4.1040    0.0710    0.7370 c2        1 IW3      0.139000
     15 CAO         3.2260   -1.0200    0.7890 c1        1 IW3     -0.202000
     16 CAP         3.5980    1.3780    0.7790 c2        1 IW3     -0.260000
     17 CAQ        -1.3680    0.2020   -0.0730 c1        1 IW3     -0.092000
     18 CAR         1.3350    0.4960    0.9260 c1        1 IW3     -0.092000
     19 HNAA       -4.0340   -1.5950   -3.5190 hn        1 IW3      0.189500
     20 HNAB       -5.1240   -1.5240   -2.4140 hn        1 IW3      0.189500
     21 HOAB        5.8770   -0.1530    1.4910 ho        1 IW3      0.235000
     22 HAE        -1.8190    1.3520    1.7040 ha        1 IW3      0.132000
     23 HAF         0.3260    1.5850    2.4970 ha        1 IW3      0.132000
     24 HAG        -2.4350    0.4690   -3.1610 ha        1 IW3      0.132000
     25 HAH        -3.9290   -1.8740   -0.1690 ha        1 IW3      0.133000
     26 HAI        -0.7670    1.2920   -1.6750 ha        1 IW3      0.132000
     27 HAJ        -2.2850   -1.0770    1.3520 ha        1 IW3      0.148000
     28 HAK         1.2300   -1.5610    0.8380 ha        1 IW3      0.148000
     29 HAL         1.8450    2.5020    0.8870 ha        1 IW3      0.152000
@<TRIPOS>BOND
     1    1   13 1   
     2    1   19 1   
     3    1   20 1   
     4    2   14 1   
     5    2   21 1   
     6    3   15 1   
     7    4   16 1   
     8    5    6 1   
     9    5   22 1   
    10    6   23 1   
    11    7    9 1   
    12    7   24 1   
    13    8   13 1   
    14    8   25 1   
    15    9   26 1   
    16   10   17 1   
    17   10   27 1   
    18   11   18 1   
    19   11   28 1   
    20   12   16 1   
    21   12   29 1   
    22   14   15 1   
    23   14   16 1   
@<TRIPOS>SUBSTRUCTURE
     1 IW3         1 TEMP              0 ****  ****    0 ROOT
