@<TRIPOS>MOLECULE
IW3
   29    30     1     0     0
SMALL
bcc


@<TRIPOS>ATOM
      1 NAA         0.2060    1.1330    0.5880 nv        1 IW3     -0.822200
      2 BrAC        4.5260    5.0580    3.5490 br        1 IW3     -0.070100
      3 BrAD        6.7810    2.2760    8.0630 br        1 IW3     -0.070100
      4 CAE         5.3360   -0.4900    2.3920 ce        1 IW3     -0.077200
      5 CAF         6.1310    0.0130    3.3470 cf        1 IW3     -0.125200
      6 CAG         2.4610    0.3090    0.1270 ca        1 IW3     -0.195500
      7 CAH         1.8290    0.8890    2.4000 ca        1 IW3     -0.195500
      8 CAI         3.7030   -0.1030    0.5880 ca        1 IW3     -0.075500
      9 CAJ         3.0800    0.4830    2.8410 ca        1 IW3     -0.075500
     10 CAK         5.3920    2.3810    3.6050 ca        1 IW3     -0.049500
     11 CAL         6.3500    1.2100    5.4860 ca        1 IW3     -0.049500
     12 CAM         1.4900    0.8080    1.0280 ca        1 IW3      0.152600
     13 CAN         5.6680    3.5270    5.7200 ca        1 IW3      0.184100
     14 CAO         5.2560    3.5390    4.3700 ca        1 IW3     -0.090900
     15 CAP         6.2160    2.3520    6.2750 ca        1 IW3     -0.090900
     16 CAQ         4.0380   -0.0140    1.9480 ca        1 IW3     -0.120800
     17 CAR         5.9350    1.2100    4.1490 ca        1 IW3     -0.086800
     18 HNAA        0.1410    1.3640   -0.3770 hn        1 IW3      0.394300
     19 HNAB       -0.2930    1.7560    1.1830 hn        1 IW3      0.394300
     20 HOAB        5.8390    4.5410    7.3360 ho        1 IW3      0.436000
     21 HAE         5.6830   -1.3930    1.8530 ha        1 IW3      0.126000
     22 HAF         7.0740   -0.5210    3.5770 ha        1 IW3      0.128000
     23 HAG         2.2300    0.2330   -0.9460 ha        1 IW3      0.134000
     24 HAH         1.0970    1.2700    3.1280 ha        1 IW3      0.134000
     25 HAI         4.4400   -0.5000   -0.1280 ha        1 IW3      0.135000
     26 HAJ         3.3280    0.5530    3.9130 ha        1 IW3      0.135000
     27 HAK         5.0650    2.3720    2.5500 ha        1 IW3      0.158500
     28 HAL         6.7840    0.2920    5.9150 ha        1 IW3      0.158500
     29 OAB         5.5100    4.6860    6.4320 oh        1 IW3     -0.475100
@<TRIPOS>BOND
     1    1   12 1   
     2    1   18 1   
     3    1   19 1   
     4    2   14 1   
     5    3   15 1   
     6    4    5 2   
     7    4   16 1   
     8    4   21 1   
     9    5   17 1   
    10    5   22 1   
    11    6    8 ar  
    12    6   12 ar  
    13    6   23 1   
    14    7    9 ar  
    15    7   12 ar  
    16    7   24 1   
    17    8   16 ar  
    18    8   25 1   
    19    9   16 ar  
    20    9   26 1   
    21   10   14 ar  
    22   10   17 ar  
    23   10   27 1   
    24   11   15 ar  
    25   11   17 ar  
    26   11   28 1   
    27   13   14 ar  
    28   13   15 ar  
    29   13   29 1   
    30   20   29 1   
@<TRIPOS>SUBSTRUCTURE
     1 IW3         1 TEMP              0 ****  ****    0 ROOT
