@<TRIPOS>MOLECULE
IW3
   29    30     1     0     0
SMALL
bcc


@<TRIPOS>ATOM
      1 NAA         8.1650   -0.5360   -0.1750 nh        1 IW3     -0.823200
      2 BRAC       -3.1500   -2.6190    1.0470 br        1 IW3     -0.068600
      3 BRAD       -2.3750    2.7940   -0.7690 br        1 IW3     -0.068600
      4 CAE         2.5570    0.3090    0.0630 ce        1 IW3     -0.079200
      5 CAF         1.6050   -0.6360   -0.0210 cf        1 IW3     -0.125200
      6 CAG         6.2440    0.8330    0.4660 ca        1 IW3     -0.196500
      7 CAH         5.8890   -1.3480   -0.5440 ca        1 IW3     -0.196500
      8 CAI         4.8720    1.0330    0.4910 ca        1 IW3     -0.074500
      9 CAJ         4.5190   -1.1320   -0.5080 ca        1 IW3     -0.074500
     10 CAK        -0.6940   -1.3940    0.4280 ca        1 IW3     -0.052500
     11 CAL        -0.3560    0.8730   -0.3300 ca        1 IW3     -0.052500
     12 CAM         6.7850   -0.3650   -0.0610 ca        1 IW3      0.153600
     13 CAN        -2.5990    0.0700    0.1360 ca        1 IW3      0.184100
     14 CAO        -2.0710   -1.1910    0.4910 ca        1 IW3     -0.088400
     15 CAP        -1.7320    1.1010   -0.2780 ca        1 IW3     -0.088400
     16 CAQ         3.9840    0.0550    0.0120 ca        1 IW3     -0.111800
     17 CAR         0.1780   -0.3700    0.0260 ca        1 IW3     -0.081800
     18 HNAA        8.7090    0.0150    0.4510 hn        1 IW3      0.394800
     19 HNAB        8.4660   -1.4820   -0.2440 hn        1 IW3      0.394800
     20 HOAB       -4.1840    1.1290   -0.0590 ho        1 IW3      0.436000
     21 HAE         2.2810    1.3700    0.1980 ha        1 IW3      0.124000
     22 HAF         1.8740   -1.7030   -0.1150 ha        1 IW3      0.130000
     23 HAG         6.9120    1.6180    0.8500 ha        1 IW3      0.133000
     24 HAH         6.2760   -2.2890   -0.9630 ha        1 IW3      0.133000
     25 HAI         4.4720    1.9740    0.8990 ha        1 IW3      0.131500
     26 HAJ         3.8460   -1.9090   -0.9030 ha        1 IW3      0.131500
     27 HAK        -0.2730   -2.3760    0.7030 ha        1 IW3      0.153000
     28 HAL         0.3200    1.6770   -0.6630 ha        1 IW3      0.153000
     29 OAB        -3.9580    0.2220    0.2130 oh        1 IW3     -0.474100
@<TRIPOS>BOND
     1    1   12 1   
     2    1   18 1   
     3    1   19 1   
     4    2   14 1   
     5    3   15 1   
     6    4    5 2   
     7    4   16 1   
     8    4   21 1   
     9    5   17 1   
    10    5   22 1   
    11    6    8 ar  
    12    6   12 ar  
    13    6   23 1   
    14    7    9 ar  
    15    7   12 ar  
    16    7   24 1   
    17    8   16 ar  
    18    8   25 1   
    19    9   16 ar  
    20    9   26 1   
    21   10   14 ar  
    22   10   17 ar  
    23   10   27 1   
    24   11   15 ar  
    25   11   17 ar  
    26   11   28 1   
    27   13   14 ar  
    28   13   15 ar  
    29   13   29 1   
    30   20   29 1   
@<TRIPOS>SUBSTRUCTURE
     1 IW3         1 TEMP              0 ****  ****    0 ROOT
