@<TRIPOS>MOLECULE
IW3
   30    31     1     0     0
SMALL
bcc


@<TRIPOS>ATOM
      1 NAA         0.1330    0.9130    0.6050 n4        1 IW3     -0.696000
      2 BRAC        6.0050    1.3360    8.5790 br        1 IW3     -0.044100
      3 BRAD        4.0470    4.5600    4.2200 br        1 IW3     -0.044100
      4 CAE         5.2480   -0.7640    2.5150 ce        1 IW3     -0.173200
      5 CAF         5.9430   -0.3380    3.5820 cf        1 IW3     -0.021200
      6 CAG         2.4560    0.1470    0.1870 ca        1 IW3     -0.091500
      7 CAH         1.6750    0.4380    2.4860 ca        1 IW3     -0.091500
      8 CAI         3.6950   -0.2540    0.6710 ca        1 IW3     -0.108000
      9 CAJ         2.9240    0.0400    2.9470 ca        1 IW3     -0.108000
     10 CAK         5.8980    0.5880    5.8630 ca        1 IW3     -0.040000
     11 CAL         5.0660    1.9460    4.0460 ca        1 IW3     -0.040000
     12 CAM         1.4440    0.4950    1.1000 ca        1 IW3     -0.098400
     13 CAN         5.0500    2.8200    6.3040 ca        1 IW3      0.211100
     14 CAO         5.6130    1.6090    6.7680 ca        1 IW3     -0.099900
     15 CAP         4.7770    2.9860    4.9270 ca        1 IW3     -0.099900
     16 CAQ         3.9510   -0.3050    2.0530 ca        1 IW3      0.035200
     17 CAR         5.6110    0.7380    4.5000 ca        1 IW3     -0.141800
     18 HNAA       -0.2520    1.6420    1.2160 hn        1 IW3      0.461467
     19 HNAB        0.2200    1.2820   -0.3480 hn        1 IW3      0.461467
     20 HOAB        5.0240    3.6480    8.0340 ho        1 IW3      0.449000
     21 HAE         5.6860   -1.5660    1.8890 ha        1 IW3      0.153000
     22 HAF         6.9050   -0.8420    3.8120 ha        1 IW3      0.152000
     23 HAG         2.2880    0.1880   -0.9020 ha        1 IW3      0.156000
     24 HAH         0.8900    0.7040    3.2120 ha        1 IW3      0.156000
     25 HAI         4.4900   -0.5310   -0.0420 ha        1 IW3      0.176000
     26 HAJ         3.1150   -0.0000    4.0340 ha        1 IW3      0.176000
     27 HAK         6.3510   -0.3530    6.2190 ha        1 IW3      0.155000
     28 HAL         4.8770    2.0720    2.9670 ha        1 IW3      0.155000
     29 HAA3       -0.5040    0.1080    0.5980 hn        1 IW3      0.461467
     30 OAB         4.7360    3.8610    7.1280 oh        1 IW3     -0.463100
@<TRIPOS>BOND
     1    1   12 1   
     2    1   18 1   
     3    1   19 1   
     4    1   29 1   
     5    2   14 1   
     6    3   15 1   
     7    4    5 2   
     8    4   16 1   
     9    4   21 1   
    10    5   17 1   
    11    5   22 1   
    12    6    8 ar  
    13    6   12 ar  
    14    6   23 1   
    15    7    9 ar  
    16    7   12 ar  
    17    7   24 1   
    18    8   16 ar  
    19    8   25 1   
    20    9   16 ar  
    21    9   26 1   
    22   10   14 ar  
    23   10   17 ar  
    24   10   27 1   
    25   11   15 ar  
    26   11   17 ar  
    27   11   28 1   
    28   13   14 ar  
    29   13   15 ar  
    30   13   30 1   
    31   20   30 1   
@<TRIPOS>SUBSTRUCTURE
     1 IW3         1 TEMP              0 ****  ****    0 ROOT
