@<TRIPOS>MOLECULE
IW3
   29    30     1     0     0
SMALL
bcc


@<TRIPOS>ATOM
      1 NAA         0.2580    1.2220    0.4950 nh        1 IW3     -0.822200
      2 BRAC        4.6250    5.0380    3.5210 br        1 IW3     -0.070100
      3 BRAD        6.6540    2.2560    8.1410 br        1 IW3     -0.070100
      4 CAE         5.2710   -0.5530    2.4750 ce        1 IW3     -0.077200
      5 CAF         6.0560   -0.0620    3.4450 cf        1 IW3     -0.125200
      6 CAG         2.4950    0.3110    0.1140 ca        1 IW3     -0.195500
      7 CAH         1.8170    0.9490    2.3580 ca        1 IW3     -0.195500
      8 CAI         3.7070   -0.1370    0.6180 ca        1 IW3     -0.075500
      9 CAJ         3.0390    0.5060    2.8430 ca        1 IW3     -0.075500
     10 CAK         5.3940    2.3340    3.6440 ca        1 IW3     -0.049500
     11 CAL         6.2570    1.1620    5.5710 ca        1 IW3     -0.049500
     12 CAM         1.5160    0.8580    0.9780 ca        1 IW3      0.152600
     13 CAN         5.6520    3.5050    5.7480 ca        1 IW3      0.184100
     14 CAO         5.2780    3.5080    4.3870 ca        1 IW3     -0.090900
     15 CAP         6.1420    2.3220    6.3370 ca        1 IW3     -0.090900
     16 CAQ         4.0050   -0.0390    1.9860 ca        1 IW3     -0.120800
     17 CAR         5.8800    1.1540    4.2220 ca        1 IW3     -0.086800
     18 HNAA        0.2310    1.4400   -0.4750 hn        1 IW3      0.394300
     19 HNAB       -0.2360    1.8710    1.0650 hn        1 IW3      0.394300
     20 HOAB        5.8140    4.5400    7.3520 ho        1 IW3      0.436000
     21 HAE         5.6010   -1.4770    1.9610 ha        1 IW3      0.126000
     22 HAF         6.9710   -0.6260    3.7120 ha        1 IW3      0.128000
     23 HAG         2.2930    0.2270   -0.9640 ha        1 IW3      0.134000
     24 HAH         1.0790    1.3670    3.0590 ha        1 IW3      0.134000
     25 HAI         4.4500   -0.5710   -0.0690 ha        1 IW3      0.135000
     26 HAJ         3.2580    0.5840    3.9200 ha        1 IW3      0.135000
     27 HAK         5.0970    2.3190    2.5810 ha        1 IW3      0.158500
     28 HAL         6.6470    0.2360    6.0260 ha        1 IW3      0.158500
     29 OAB         5.5160    4.6810    6.4370 oh        1 IW3     -0.475100
@<TRIPOS>BOND
     1    1   12 1   
     2    1   18 1   
     3    1   19 1   
     4    2   14 1   
     5    3   15 1   
     6    4    5 2   
     7    4   16 1   
     8    4   21 1   
     9    5   17 1   
    10    5   22 1   
    11    6    8 ar  
    12    6   12 ar  
    13    6   23 1   
    14    7    9 ar  
    15    7   12 ar  
    16    7   24 1   
    17    8   16 ar  
    18    8   25 1   
    19    9   16 ar  
    20    9   26 1   
    21   10   14 ar  
    22   10   17 ar  
    23   10   27 1   
    24   11   15 ar  
    25   11   17 ar  
    26   11   28 1   
    27   13   14 ar  
    28   13   15 ar  
    29   13   29 1   
    30   20   29 1   
@<TRIPOS>SUBSTRUCTURE
     1 IW3         1 TEMP              0 ****  ****    0 ROOT
