@<TRIPOS>MOLECULE
IW4
   30    31     1     0     0
SMALL
bcc


@<TRIPOS>ATOM
      1 NAA         7.3310   -1.2460    0.2680 nh        1 IW4     -0.818200
      2 BRAC       -3.3950    2.4990   -0.0310 br        1 IW4     -0.091600
      3 BRAD       -2.0090   -3.0860    0.0170 br        1 IW4     -0.091600
      4 CAE         2.6200    0.0170   -0.1660 ce        1 IW4     -0.110200
      5 CAF         1.5870    0.8130    0.1570 cf        1 IW4     -0.094200
      6 CAG         5.7570    2.0960   -0.0790 ca        1 IW4     -0.095000
      7 CAH         6.7340    1.1140    0.0250 ca        1 IW4     -0.186000
      8 CAI         4.4070    1.7610   -0.1410 ca        1 IW4     -0.160000
      9 CAJ         4.9950   -0.5830   -0.0030 ca        1 IW4     -0.181000
     10 CAK        -0.7960    1.4200    0.0660 ca        1 IW4     -0.031500
     11 CAL        -0.2150   -0.9160    0.0810 ca        1 IW4     -0.031500
     12 CAM         6.3650   -0.2510    0.0710 ca        1 IW4      0.136600
     13 CAN        -2.1460    1.0980    0.0040 ca        1 IW4     -0.114400
     14 CAO        -1.5610   -1.2630    0.0220 ca        1 IW4     -0.114400
     15 CAP        -2.5710   -0.2610   -0.0310 ca        1 IW4      0.244600
     16 CAQ         4.0180    0.4160   -0.0980 ca        1 IW4     -0.019800
     17 CAR         0.1900    0.4230    0.0960 ca        1 IW4     -0.114800
     18 HNAA        7.0550   -2.1500   -0.0450 hn        1 IW4      0.387800
     19 HNAB        8.2450   -0.9900   -0.0330 hn        1 IW4      0.387800
     20 HNAC       -4.5800    0.1140   -0.0100 hn        1 IW4      0.433800
     21 HNAD       -4.1720   -1.5310    0.0020 hn        1 IW4      0.433800
     22 HAE         2.4510   -1.0210   -0.5030 ha        1 IW4      0.126000
     23 HAF         1.7630    1.8510    0.4940 ha        1 IW4      0.129000
     24 HAG         6.0570    3.1550   -0.1140 ha        1 IW4      0.130000
     25 HAH         7.7940    1.4030    0.0770 ha        1 IW4      0.132000
     26 HAI         3.6510    2.5540   -0.2330 ha        1 IW4      0.132000
     27 HAJ         4.6820   -1.6380    0.0280 ha        1 IW4      0.132000
     28 HAK        -0.4870    2.4790    0.0880 ha        1 IW4      0.149500
     29 HAL         0.5490   -1.7110    0.1250 ha        1 IW4      0.149500
     30 NAB        -3.8990   -0.5920   -0.1640 nh        1 IW4     -0.851200
@<TRIPOS>BOND
     1    1   12 1   
     2    1   18 1   
     3    1   19 1   
     4    2   13 1   
     5    3   14 1   
     6    4    5 2   
     7    4   16 1   
     8    4   22 1   
     9    5   17 1   
    10    5   23 1   
    11    6    7 ar  
    12    6    8 ar  
    13    6   24 1   
    14    7   12 ar  
    15    7   25 1   
    16    8   16 ar  
    17    8   26 1   
    18    9   12 ar  
    19    9   16 ar  
    20    9   27 1   
    21   10   13 ar  
    22   10   17 ar  
    23   10   28 1   
    24   11   14 ar  
    25   11   17 ar  
    26   11   29 1   
    27   13   15 ar  
    28   14   15 ar  
    29   15   30 1   
    30   20   30 1   
    31   21   30 1   
@<TRIPOS>SUBSTRUCTURE
     1 IW4         1 TEMP              0 ****  ****    0 ROOT
