@<TRIPOS>MOLECULE
IW4
   32    28     1     0     0
SMALL
bcc


@<TRIPOS>ATOM
      1 NAA       -12.7720  -60.8520  573.5500 n3        1 IW4     -0.197000
      2 BRAC       11.5930   31.1880 -307.9080 br        1 IW4      0.103000
      3 BRAD       10.5220   27.6850 -308.1440 br        1 IW4      0.340000
      4 CAE        11.4270   35.8530 -305.1550 c2        1 IW4     -0.307000
      5 CAF        10.7410   34.8220 -305.5990 c1        1 IW4      0.148000
      6 CAG        -8.3550  -60.8230  572.7420 c1        1 IW4      0.156000
      7 CAH       -10.8710  -60.7420  571.8630 c1        1 IW4     -0.328000
      8 CAI        -7.1180  -60.8540  573.0620 c2        1 IW4     -0.359000
      9 CAJ        13.9950   36.1220 -304.9160 c1        1 IW4     -0.147000
     10 CAK         9.1580   32.2490 -306.9540 c2        1 IW4     -0.090000
     11 CAL         8.7400   28.6450 -306.2550 c1        1 IW4     -0.297000
     12 CAM       -11.8640  -60.7920  572.6380 c1        1 IW4      0.046000
     13 CAN         9.7460   31.2510 -307.6190 c2        1 IW4     -0.328000
     14 CAO         9.3060   28.8740 -307.4830 c2        1 IW4      0.246000
     15 CAP         8.9160   30.1400 -308.2420 c3        1 IW4      0.032000
     16 CAQ        12.8110   35.9870 -305.0300 c1        1 IW4     -0.137000
     17 CAR         8.2470   28.4280 -305.1680 c1        1 IW4      0.158000
     18 HNAA       15.0450   36.2450 -304.8140 ha        1 IW4      0.238000
     19 HNAB      -13.1460  -60.0180  573.9590 hn        1 IW4      0.274000
     20 HNAC        7.8210   30.3290 -307.9920 h1        1 IW4      0.159000
     21 HNAD        8.2750   30.3400 -310.1630 hn        1 IW4      0.206500
     22 HAE         7.8090   28.2350 -304.2080 ha        1 IW4      0.280000
     23 HAF        10.8350   36.7480 -304.8330 ha        1 IW4      0.217000
     24 HAG        -6.4970  -59.9560  573.2870 ha        1 IW4      0.269000
     25 HAH       -10.7810  -60.6640  570.7800 ha        1 IW4      0.233000
     26 HAI        -9.5920  -60.7880  572.3790 ha        1 IW4      0.365000
     27 HAJ        -6.5090  -61.7830  573.1550 ha        1 IW4      0.269000
     28 HAK         9.7210   33.1060 -306.5230 ha        1 IW4      0.170500
     29 HAL         8.0680   32.2900 -306.7980 ha        1 IW4      0.170500
     30 HAA3      -13.1570  -61.7300  573.8350 hn        1 IW4      0.274000
     31 HAB3        9.9210   30.2530 -310.0310 hn        1 IW4      0.206500
     32 NAB         9.0440   29.9520 -309.6560 n3        1 IW4     -0.369000
@<TRIPOS>BOND
     1    1   12 1   
     2    1   19 1   
     3    1   30 1   
     4    2   13 1   
     5    3   14 1   
     6    4    5 1   
     7    4   16 1   
     8    4   23 1   
     9    6    8 1   
    10    6   26 1   
    11    7   12 1   
    12    7   25 1   
    13    8   24 1   
    14    8   27 1   
    15    9   16 1   
    16    9   18 1   
    17   10   13 1   
    18   10   28 1   
    19   10   29 1   
    20   11   14 1   
    21   11   17 1   
    22   13   15 1   
    23   14   15 1   
    24   15   20 1   
    25   15   32 1   
    26   17   22 1   
    27   21   32 1   
    28   31   32 1   
@<TRIPOS>SUBSTRUCTURE
     1 IW4         1 TEMP              0 ****  ****    0 ROOT
