@<TRIPOS>MOLECULE
IW4
   30    28     1     0     0
SMALL
bcc


@<TRIPOS>ATOM
      1 NAA         1.9290   -1.8660   -2.6080 n8        1 IW4     -0.304000
      2 BrAC        2.3810   -2.1130   -6.5310 br        1 IW4      0.031000
      3 BrAD        1.9900    1.5600  -10.3280 br        1 IW4      0.045000
      4 CAE         5.6430    1.1720   -2.3310 c2        1 IW4     -0.502000
      5 CAF         5.3480    1.5160   -3.5710 c1        1 IW4      0.220000
      6 CAG         5.1950    1.3530    0.4960 c1        1 IW4      0.220000
      7 CAH         1.8040    0.0230   -1.0770 c2        1 IW4     -0.245000
      8 CAI         4.7190    0.3350   -0.1830 c2        1 IW4     -0.502000
      9 CAJ         3.7770   -0.3150   -2.4400 c1        1 IW4     -0.074000
     10 CAK         3.7780    0.2450   -5.8110 c2        1 IW4     -0.126000
     11 CAL         1.1660    1.3710   -7.6880 c1        1 IW4     -0.098000
     12 CAM         2.4790   -0.7270   -1.9910 c2        1 IW4     -0.038000
     13 CAN         3.1960   -0.4380   -6.7960 c2        1 IW4     -0.212000
     14 CAO         2.1450    0.9110   -8.5710 c2        1 IW4     -0.205000
     15 CAP         3.1460    0.0530   -8.1930 c2        1 IW4      0.138000
     16 CAQ         4.9280    0.0570   -1.6320 c3        1 IW4      0.041000
     17 CAR         0.3120    1.7800   -6.9540 c1        1 IW4     -0.209000
     18 HNAA        2.3230   -2.0500   -3.5090 hn        1 IW4      0.184000
     19 HNAB        0.9300   -1.8520   -2.6340 hn        1 IW4      0.184000
     20 HNAC        4.0400   -0.2350  -10.0030 hn        1 IW4      0.214500
     21 HNAD        4.6690   -1.1680   -8.7490 hn        1 IW4      0.214500
     22 HAE        -0.4440    2.1430   -6.3070 ha        1 IW4      0.222000
     23 HAF         6.4410    1.6770   -1.7590 ha        1 IW4      0.197000
     24 HAG         4.1060   -0.4290    0.3410 ha        1 IW4      0.197000
     25 HAH         0.7300   -0.0940   -0.8900 ha        1 IW4      0.131000
     26 HAI         2.3000    0.8240   -0.5150 ha        1 IW4      0.131000
     27 HAJ         5.5930   -0.8740   -1.7050 hc        1 IW4      0.163000
     28 HAK         3.8130   -0.1050   -4.7620 ha        1 IW4      0.158500
     29 HAL         4.2650    1.2190   -5.9840 ha        1 IW4      0.158500
     30 NAB         4.1710   -0.3530   -9.0240 n8        1 IW4     -0.338000
@<TRIPOS>BOND
     1    1   12 1   
     2    1   18 1   
     3    1   19 1   
     4    2   13 1   
     5    3   14 1   
     6    4    5 1   
     7    4   16 1   
     8    4   23 1   
     9    6    8 1   
    10    7   12 1   
    11    7   25 1   
    12    7   26 1   
    13    8   16 1   
    14    8   24 1   
    15    9   12 1   
    16    9   16 1   
    17   10   13 1   
    18   10   28 1   
    19   10   29 1   
    20   11   14 1   
    21   11   17 1   
    22   13   15 1   
    23   14   15 1   
    24   15   30 1   
    25   16   27 1   
    26   17   22 1   
    27   20   30 1   
    28   21   30 1   
@<TRIPOS>SUBSTRUCTURE
     1 IW4         1 TEMP              0 ****  ****    0 ROOT
