@<TRIPOS>MOLECULE
IW4
   30    24     1     0     0
SMALL
bcc


@<TRIPOS>ATOM
      1 NAA        -2.8230    0.5060    4.1030 n3        1 IW4     -0.326000
      2 NAB         1.2280   -1.7400   -5.0300 n3        1 IW4     -0.360000
      3 BRAC        3.7080   -1.5670   -3.3110 br        1 IW4      0.047000
      4 BRAD       -1.8060   -1.0080   -4.6950 br        1 IW4      0.048000
      5 CAE        -0.0760    1.5680    0.4920 c1        1 IW4     -0.126750
      6 CAF         0.1800    1.3010   -0.8040 c1        1 IW4     -0.126750
      7 CAG         0.7790    0.1950    3.6880 c1        1 IW4     -0.126750
      8 CAH        -0.4770    0.3710    4.2470 c1        1 IW4     -0.126750
      9 CAI         0.9350    0.2290    2.3120 c1        1 IW4     -0.095500
     10 CAJ        -1.4200    0.6140    2.0530 c1        1 IW4     -0.183000
     11 CAK         1.6720   -0.4920   -1.6010 c1        1 IW4     -0.095500
     12 CAL        -0.6520   -0.2930   -2.1680 c1        1 IW4     -0.025000
     13 CAM        -1.5770    0.5800    3.4300 c1        1 IW4      0.053000
     14 CAN         1.9340   -1.0180   -2.8560 c1        1 IW4     -0.256000
     15 CAO        -0.3900   -0.8200   -3.4230 c2        1 IW4     -0.256000
     16 CAP         0.9030   -1.1820   -3.7670 c2        1 IW4      0.161000
     17 CAQ        -0.1640    0.4380    1.4940 c1        1 IW4     -0.063000
     18 CAR         0.3790   -0.1290   -1.2570 c1        1 IW4     -0.063000
     19 HNAA       -3.5970    0.6930    3.6540 hn        1 IW4      0.182000
     20 HNAB       -2.8540    0.2600    4.9820 hn        1 IW4      0.182000
     21 HNAC        0.5700   -1.8900   -5.6460 hn        1 IW4      0.227000
     22 HNAD        2.0960   -1.9450   -5.2290 hn        1 IW4      0.227000
     23 HAE        -0.2050    2.4900    0.7840 ha        1 IW4      0.129750
     24 HAF         0.2370    2.0300   -1.4510 ha        1 IW4      0.129750
     25 HAG         1.5530    0.0480    4.2640 ha        1 IW4      0.129750
     26 HAH        -0.5880    0.3470    5.2170 ha        1 IW4      0.129750
     27 HAI         1.8200    0.1050    1.9180 ha        1 IW4      0.145000
     28 HAJ        -2.1970    0.7470    1.4770 ha        1 IW4      0.132000
     29 HAK         2.3970   -0.3810   -0.9570 ha        1 IW4      0.145000
     30 HAL        -1.5650   -0.0540   -1.9200 ha        1 IW4      0.161000
@<TRIPOS>BOND
     1    1   13 1   
     2    1   19 1   
     3    1   20 1   
     4    2   16 1   
     5    2   21 1   
     6    2   22 1   
     7    3   14 1   
     8    4   15 1   
     9    5    6 1   
    10    5   23 1   
    11    6   24 1   
    12    7    8 1   
    13    7   25 1   
    14    8   26 1   
    15    9   17 1   
    16    9   27 1   
    17   10   13 1   
    18   10   28 1   
    19   11   18 1   
    20   11   29 1   
    21   12   15 1   
    22   12   30 1   
    23   14   16 1   
    24   15   16 1   
@<TRIPOS>SUBSTRUCTURE
     1 IW4         1 TEMP              0 ****  ****    0 ROOT
