@<TRIPOS>MOLECULE
IW5
   32    32     1     0     0
SMALL
bcc


@<TRIPOS>ATOM
      1 NAA         1.0500   -0.5860   -0.5700 n2        1 IW5     -0.276400
      2 BRAC        7.6630   -4.8370    2.8780 br        1 IW5      0.031900
      3 BRAD        4.4160   -3.8850    7.4980 br        1 IW5      0.031900
      4 CAE         5.0410    0.6540    3.1640 ce        1 IW5     -0.175200
      5 CAF         5.7080   -0.0590    4.0890 cf        1 IW5      0.014800
      6 CAG         2.8520    0.7930    0.1540 ca        1 IW5      0.055500
      7 CAH         2.2450   -1.2230    1.4940 ca        1 IW5      0.055500
      8 CAI         3.8270    1.0730    1.0730 ca        1 IW5     -0.210000
      9 CAJ         3.2370   -0.9170    2.3760 ca        1 IW5     -0.210000
     10 CAK         6.4690   -2.3670    3.5780 ca        1 IW5     -0.063500
     11 CAL         5.1000   -1.9660    5.5370 ca        1 IW5     -0.063500
     12 CAM         1.9760   -0.3830    0.3140 ca        1 IW5      0.002600
     13 CAN         6.6360   -3.7020    3.9540 ca        1 IW5     -0.014900
     14 CAO         5.2480   -3.2980    5.9320 ca        1 IW5     -0.014900
     15 CAP         6.0400   -4.1620    5.1470 ca        1 IW5     -0.014400
     16 CAQ         4.0480    0.2450    2.2050 ca        1 IW5      0.222200
     17 CAR         5.7180   -1.4920    4.3720 ca        1 IW5     -0.057800
     18 HNAA       -0.0950   -3.0980    0.6960 ha        1 IW5      0.001500
     19 HNAB        0.4540   -1.3860   -0.4490 hn        1 IW5      0.411800
     20 HNAC        6.7380   -5.5350    6.5050 hn        1 IW5      0.482467
     21 HNAD        5.3650   -6.0320    5.6800 hn        1 IW5      0.482467
     22 HAE         5.2770    1.7440    3.1160 ha        1 IW5      0.191000
     23 HAF         6.4100    0.4980    4.7550 ha        1 IW5      0.191000
     24 HAG         2.6930    1.4480   -0.7290 ha        1 IW5      0.199500
     25 HAH         1.6060   -2.1150    1.6490 ha        1 IW5      0.199500
     26 HAI         4.4620    1.9700    0.9360 ha        1 IW5      0.184500
     27 HAJ         3.4160   -1.5540    3.2600 ha        1 IW5      0.184500
     28 HAK         6.9600   -1.9930    2.6590 ha        1 IW5      0.194500
     29 HAL         4.5060   -1.2730    6.1640 ha        1 IW5      0.194500
     30 HAA3       -0.6500   -3.4400    0.5090 ha        1 IW5      0.001500
     31 HAB3        6.8590   -6.0380    4.9020 hn        1 IW5      0.482467
     32 NAB         6.2650   -5.5390    5.5880 n4        1 IW5     -0.715000
@<TRIPOS>BOND
     1    1   12 1   
     2    1   19 1   
     3    2   13 1   
     4    3   14 1   
     5    4    5 2   
     6    4   16 1   
     7    4   22 1   
     8    5   17 1   
     9    5   23 1   
    10    6    8 ar  
    11    6   12 ar  
    12    6   24 1   
    13    7    9 ar  
    14    7   12 ar  
    15    7   25 1   
    16    8   16 ar  
    17    8   26 1   
    18    9   16 ar  
    19    9   27 1   
    20   10   13 ar  
    21   10   17 ar  
    22   10   28 1   
    23   11   14 ar  
    24   11   17 ar  
    25   11   29 1   
    26   13   15 ar  
    27   14   15 ar  
    28   15   32 1   
    29   18   30 1   
    30   20   32 1   
    31   21   32 1   
    32   31   32 1   
@<TRIPOS>SUBSTRUCTURE
     1 IW5         1 TEMP              0 ****  ****    0 ROOT
