@<TRIPOS>MOLECULE
IW5
   30    24     1     0     0
SMALL
bcc


@<TRIPOS>ATOM
      1 NAA        -3.6520   -1.1220   -3.0380 n3        1 IW5     -0.329000
      2 NAB         1.5580    3.1480    0.6770 n3        1 IW5     -0.360000
      3 BRAC        4.5480    2.2560    0.1780 br        1 IW5      0.047000
      4 BRAD        0.1090    3.4450    3.5690 br        1 IW5      0.046000
      5 CAE         0.4690   -2.0200    0.4320 c1        1 IW5     -0.124000
      6 CAF         1.3080   -1.4990    1.3490 c1        1 IW5     -0.124000
      7 CAG        -1.2730   -0.8660   -2.6030 c1        1 IW5     -0.124000
      8 CAH        -2.7450   -1.5790   -0.8460 c1        1 IW5     -0.195000
      9 CAI        -0.2270   -0.7900   -1.6960 c1        1 IW5     -0.124000
     10 CAJ        -1.6990   -1.5040    0.0610 c1        1 IW5     -0.058000
     11 CAK         2.4930    0.4000    0.9270 c1        1 IW5     -0.058000
     12 CAL         0.6290    0.9000    2.3540 c1        1 IW5     -0.029000
     13 CAM        -2.5320   -1.2600   -2.1770 c1        1 IW5      0.065000
     14 CAN         2.9320    1.7100    1.0420 c1        1 IW5     -0.255000
     15 CAO         1.0670    2.2100    2.4690 c2        1 IW5     -0.255000
     16 CAP         2.2190    2.6150    1.8130 c2        1 IW5      0.159000
     17 CAQ        -0.4400   -1.1090   -0.3650 c1        1 IW5     -0.101500
     18 CAR         1.3410   -0.0050    1.5830 c1        1 IW5     -0.101500
     19 HNAA       -3.5910   -1.3820   -3.9120 hn        1 IW5      0.186500
     20 HNAB       -4.4350   -0.7760   -2.7170 hn        1 IW5      0.186500
     21 HNAC        0.7350    3.5350    0.7680 hn        1 IW5      0.227000
     22 HNAD        1.9650    3.1270   -0.1400 hn        1 IW5      0.227000
     23 HAE         0.4480   -2.9840    0.2820 ha        1 IW5      0.130500
     24 HAF         1.8940   -2.0870    1.8640 ha        1 IW5      0.130500
     25 HAG        -1.1230   -0.6410   -3.5410 ha        1 IW5      0.130500
     26 HAH        -3.6310   -1.8570   -0.5460 ha        1 IW5      0.132000
     27 HAI         0.6600   -0.5120   -1.9960 ha        1 IW5      0.130500
     28 HAJ        -1.8490   -1.7290    0.9990 ha        1 IW5      0.140000
     29 HAK         3.0040   -0.2410    0.3970 ha        1 IW5      0.140000
     30 HAL        -0.1840    0.6150    2.8140 ha        1 IW5      0.161000
@<TRIPOS>BOND
     1    1   13 1   
     2    1   19 1   
     3    1   20 1   
     4    2   16 1   
     5    2   21 1   
     6    2   22 1   
     7    3   14 1   
     8    4   15 1   
     9    5    6 1   
    10    5   23 1   
    11    6   24 1   
    12    7    9 1   
    13    7   25 1   
    14    8   13 1   
    15    8   26 1   
    16    9   27 1   
    17   10   17 1   
    18   10   28 1   
    19   11   18 1   
    20   11   29 1   
    21   12   15 1   
    22   12   30 1   
    23   14   16 1   
    24   15   16 1   
@<TRIPOS>SUBSTRUCTURE
     1 IW5         1 TEMP              0 ****  ****    0 ROOT
