@<TRIPOS>MOLECULE
IW5
   30    31     1     0     0
SMALL
bcc


@<TRIPOS>ATOM
      1 NAA         0.8420   -1.5560   -0.2610 nh        1 IW5     -0.820200
      2 BRAC        7.2340   -3.3790    7.3010 br        1 IW5     -0.093600
      3 BRAD        6.1940   -4.7320    1.8060 br        1 IW5     -0.093600
      4 CAE         4.9680    0.7640    2.8710 ce        1 IW5     -0.089200
      5 CAF         5.8630    0.2080    3.7000 cf        1 IW5     -0.113200
      6 CAG         2.6540    0.0640    0.0090 ca        1 IW5     -0.194500
      7 CAH         2.2110   -1.5550    1.7660 ca        1 IW5     -0.194500
      8 CAI         3.6460    0.6310    0.7960 ca        1 IW5     -0.077500
      9 CAJ         3.2140   -0.9810    2.5340 ca        1 IW5     -0.077500
     10 CAK         6.4720   -1.6010    5.2550 ca        1 IW5     -0.033500
     11 CAL         6.0230   -2.1690    2.9580 ca        1 IW5     -0.033500
     12 CAM         1.9060   -1.0400    0.4830 ca        1 IW5      0.147600
     13 CAN         6.7470   -2.9330    5.5440 ca        1 IW5     -0.113400
     14 CAO         6.3030   -3.5050    3.2230 ca        1 IW5     -0.113400
     15 CAP         6.6610   -3.9310    4.5330 ca        1 IW5      0.236600
     16 CAQ         3.9500    0.1160    2.0650 ca        1 IW5     -0.114800
     17 CAR         6.1000   -1.2000    3.9660 ca        1 IW5     -0.111800
     18 HNAA        0.5930   -2.4930   -0.0330 hn        1 IW5      0.391300
     19 HNAB        0.9010   -1.3890   -1.2400 hn        1 IW5      0.391300
     20 HNAC        7.3050   -5.4910    5.6800 hn        1 IW5      0.428800
     21 HNAD        7.0000   -5.8890    4.0650 hn        1 IW5      0.428800
     22 HAE         4.9750    1.8670    2.7680 ha        1 IW5      0.124000
     23 HAF         6.5330    0.8810    4.2700 ha        1 IW5      0.125000
     24 HAG         2.4440    0.4870   -0.9840 ha        1 IW5      0.133500
     25 HAH         1.6480   -2.4110    2.1660 ha        1 IW5      0.133500
     26 HAI         4.2080    1.4980    0.4140 ha        1 IW5      0.136500
     27 HAJ         3.4390   -1.3940    3.5310 ha        1 IW5      0.136500
     28 HAK         6.5450   -0.8410    6.0510 ha        1 IW5      0.155000
     29 HAL         5.7320   -1.8530    1.9410 ha        1 IW5      0.155000
     30 NAB         6.8600   -5.2630    4.8230 nh        1 IW5     -0.847200
@<TRIPOS>BOND
     1    1   12 1   
     2    1   18 1   
     3    1   19 1   
     4    2   13 1   
     5    3   14 1   
     6    4    5 2   
     7    4   16 1   
     8    4   22 1   
     9    5   17 1   
    10    5   23 1   
    11    6    8 ar  
    12    6   12 ar  
    13    6   24 1   
    14    7    9 ar  
    15    7   12 ar  
    16    7   25 1   
    17    8   16 ar  
    18    8   26 1   
    19    9   16 ar  
    20    9   27 1   
    21   10   13 ar  
    22   10   17 ar  
    23   10   28 1   
    24   11   14 ar  
    25   11   17 ar  
    26   11   29 1   
    27   13   15 ar  
    28   14   15 ar  
    29   15   30 1   
    30   20   30 1   
    31   21   30 1   
@<TRIPOS>SUBSTRUCTURE
     1 IW5         1 TEMP              0 ****  ****    0 ROOT
