@<TRIPOS>MOLECULE
IW5
   30    31     1     0     0
SMALL
bcc


@<TRIPOS>ATOM
      1 NAA         8.1610    0.6100    0.1920 nh        1 IW5     -0.821200
      2 BRAC       -3.2260    2.6570   -0.2340 br        1 IW5     -0.092600
      3 BRAD       -2.3020   -3.0060    0.2010 br        1 IW5     -0.092600
      4 CAE         2.5650   -0.3040   -0.1240 ce        1 IW5     -0.091200
      5 CAF         1.5990    0.5890    0.1490 cf        1 IW5     -0.112200
      6 CAG         6.2590   -0.9120   -0.0210 ca        1 IW5     -0.194500
      7 CAH         5.8820    1.4860    0.0390 ca        1 IW5     -0.194500
      8 CAI         4.8880   -1.1150   -0.0740 ca        1 IW5     -0.077500
      9 CAJ         4.5130    1.2630   -0.0120 ca        1 IW5     -0.077500
     10 CAK        -0.7260    1.3800   -0.0240 ca        1 IW5     -0.035000
     11 CAL        -0.3380   -0.9890    0.1540 ca        1 IW5     -0.035000
     12 CAM         6.7880    0.3990    0.0460 ca        1 IW5      0.148600
     13 CAN        -2.0970    1.1640   -0.0870 ca        1 IW5     -0.111900
     14 CAO        -1.7070   -1.2280    0.0950 ca        1 IW5     -0.111900
     15 CAP        -2.6310   -0.1550   -0.0420 ca        1 IW5      0.239600
     16 CAQ         3.9890   -0.0360   -0.0660 ca        1 IW5     -0.102800
     17 CAR         0.1750    0.3110    0.0890 ca        1 IW5     -0.106800
     18 HNAA        8.7330   -0.1350   -0.1360 hn        1 IW5      0.391800
     19 HNAB        8.4750    1.5100   -0.0930 hn        1 IW5      0.391800
     20 HNAC       -4.6010    0.3820   -0.0710 hn        1 IW5      0.430800
     21 HNAD       -4.3300   -1.2840    0.0550 hn        1 IW5      0.430800
     22 HAE         2.3030   -1.3370   -0.4160 ha        1 IW5      0.123000
     23 HAF         1.8530    1.6250    0.4380 ha        1 IW5      0.126000
     24 HAG         6.9340   -1.7800   -0.0220 ha        1 IW5      0.132000
     25 HAH         6.2600    2.5180    0.0820 ha        1 IW5      0.132000
     26 HAI         4.4980   -2.1440   -0.1220 ha        1 IW5      0.131000
     27 HAJ         3.8340    2.1300   -0.0180 ha        1 IW5      0.131000
     28 HAK        -0.3310    2.4090   -0.0650 ha        1 IW5      0.149000
     29 HAL         0.3570   -1.8390    0.2640 ha        1 IW5      0.149000
     30 NAB        -3.9810   -0.3860   -0.1800 nh        1 IW5     -0.849200
@<TRIPOS>BOND
     1    1   12 1   
     2    1   18 1   
     3    1   19 1   
     4    2   13 1   
     5    3   14 1   
     6    4    5 2   
     7    4   16 1   
     8    4   22 1   
     9    5   17 1   
    10    5   23 1   
    11    6    8 ar  
    12    6   12 ar  
    13    6   24 1   
    14    7    9 ar  
    15    7   12 ar  
    16    7   25 1   
    17    8   16 ar  
    18    8   26 1   
    19    9   16 ar  
    20    9   27 1   
    21   10   13 ar  
    22   10   17 ar  
    23   10   28 1   
    24   11   14 ar  
    25   11   17 ar  
    26   11   29 1   
    27   13   15 ar  
    28   14   15 ar  
    29   15   30 1   
    30   20   30 1   
    31   21   30 1   
@<TRIPOS>SUBSTRUCTURE
     1 IW5         1 TEMP              0 ****  ****    0 ROOT
