@<TRIPOS>MOLECULE
IW5
   30    31     1     0     0
SMALL
bcc


@<TRIPOS>ATOM
      1 NAA         0.1560   -0.2330   -0.1830 nv        1 IW5     -0.820200
      2 BrAC        9.9590    2.0860   -0.2200 br        1 IW5     -0.093600
      3 BrAD        4.7310    4.3810   -0.9390 br        1 IW5     -0.093600
      4 CAE         4.7050    0.3740    3.1570 ce        1 IW5     -0.091200
      5 CAF         5.8960    0.9460    2.9280 cf        1 IW5     -0.111200
      6 CAG         2.5840   -0.1140    0.0800 ca        1 IW5     -0.194500
      7 CAH         1.1430    0.2500    2.0020 ca        1 IW5     -0.194500
      8 CAI         3.6960    0.0250    0.8990 ca        1 IW5     -0.078000
      9 CAJ         2.2660    0.3760    2.8070 ca        1 IW5     -0.078000
     10 CAK         7.6790    1.5810    1.3530 ca        1 IW5     -0.032500
     11 CAL         5.4870    2.5310    1.0450 ca        1 IW5     -0.032500
     12 CAM         1.2790   -0.0080    0.6170 ca        1 IW5      0.146600
     13 CAN         8.1580    2.3000    0.2640 ca        1 IW5     -0.114900
     14 CAO         5.9470    3.2670   -0.0420 ca        1 IW5     -0.114900
     15 CAP         7.3040    3.1790   -0.4610 ca        1 IW5      0.240600
     16 CAQ         3.5590    0.2750    2.2710 ca        1 IW5     -0.112800
     17 CAR         6.3410    1.6800    1.7570 ca        1 IW5     -0.113800
     18 HNAA        0.3030   -0.0790   -1.1560 hn        1 IW5      0.391300
     19 HNAB       -0.6850    0.1740    0.1600 hn        1 IW5      0.391300
     20 HNAC        8.6720    3.7290   -1.8760 hn        1 IW5      0.431800
     21 HNAD        7.1330    4.4040   -2.0870 hn        1 IW5      0.431800
     22 HAE         4.5410   -0.1020    4.1440 ha        1 IW5      0.124000
     23 HAF         6.6670    0.8750    3.7200 ha        1 IW5      0.125000
     24 HAG         2.7260   -0.3160   -0.9920 ha        1 IW5      0.132500
     25 HAH         0.1430    0.3400    2.4510 ha        1 IW5      0.132500
     26 HAI         4.7050   -0.0590    0.4660 ha        1 IW5      0.135500
     27 HAJ         2.1390    0.5640    3.8850 ha        1 IW5      0.135500
     28 HAK         8.3570    0.9150    1.9120 ha        1 IW5      0.155000
     29 HAL         4.4310    2.6060    1.3590 ha        1 IW5      0.155000
     30 NAB         7.7870    3.9560   -1.4900 nv        1 IW5     -0.851200
@<TRIPOS>BOND
     1    1   12 1   
     2    1   18 1   
     3    1   19 1   
     4    2   13 1   
     5    3   14 1   
     6    4    5 2   
     7    4   16 1   
     8    4   22 1   
     9    5   17 1   
    10    5   23 1   
    11    6    8 ar  
    12    6   12 ar  
    13    6   24 1   
    14    7    9 ar  
    15    7   12 ar  
    16    7   25 1   
    17    8   16 ar  
    18    8   26 1   
    19    9   16 ar  
    20    9   27 1   
    21   10   13 ar  
    22   10   17 ar  
    23   10   28 1   
    24   11   14 ar  
    25   11   17 ar  
    26   11   29 1   
    27   13   15 ar  
    28   14   15 ar  
    29   15   30 1   
    30   20   30 1   
    31   21   30 1   
@<TRIPOS>SUBSTRUCTURE
     1 IW5         1 TEMP              0 ****  ****    0 ROOT
