@<TRIPOS>MOLECULE
IW6
   36    34     1     0     0
SMALL
bcc


@<TRIPOS>ATOM
      1 CAA         1.8340   -0.2160   -0.9350 c3        1 IW6     -0.075000
      2 CAB         4.9600   -1.0580    5.3760 c3        1 IW6     -0.086000
      3 NAC         7.4070    0.1160   -5.3770 nv        1 IW6     -0.358000
      4 BrAD        9.5410    2.0890   -4.2030 br        1 IW6      0.046000
      5 BrAE        4.6550   -0.9510   -4.3220 br        1 IW6      0.046000
      6 CAF         6.5360   -0.2870    1.8830 c1        1 IW6      0.248000
      7 CAH         0.7030   -0.5180    2.5660 c1        1 IW6     -0.087000
      8 CAI         1.6490   -0.3370    1.8430 c1        1 IW6     -0.183000
      9 CAJ         2.6960   -0.7790    3.9540 c1        1 IW6      0.105000
     10 CAK         7.4680    2.1770   -2.2950 ca        1 IW6     -0.045500
     11 CAL         5.4250    0.9040   -2.3430 ca        1 IW6     -0.045500
     12 OAM         2.9470    0.2060   -0.1470 os        1 IW6     -0.208000
     13 CAO         6.2470    1.8380   -1.7190 ca        1 IW6     -0.197000
     14 CAP         7.0490    0.6440   -4.1550 ca        1 IW6      0.157000
     15 CAQ         7.8770    1.5930   -3.4910 ca        1 IW6     -0.253000
     16 CAR         5.8100    0.3060   -3.5400 ca        1 IW6     -0.253000
     17 CAS         4.0380   -0.3070    1.9050 c2        1 IW6      0.044000
     18 CAT         2.8800   -0.1610    1.1840 c2        1 IW6      0.089000
     19 CAU         3.8860   -0.6170    3.3260 c2        1 IW6     -0.196000
     20 HAA         1.7560   -1.3300   -0.9340 h1        1 IW6      0.088667
     21 HAAA        0.8900    0.2420   -0.5520 h1        1 IW6      0.088667
     22 HAAB        2.0790    0.1660   -1.9580 h1        1 IW6      0.088667
     23 HAB         4.4400   -2.0400    5.4920 h1        1 IW6      0.091000
     24 HABA        4.3930   -0.2520    5.9040 h1        1 IW6      0.091000
     25 HABB        6.0130   -1.1150    5.7480 h1        1 IW6      0.091000
     26 HNAC        6.9190   -0.6860   -5.6990 hn        1 IW6      0.224500
     27 HNAA        8.3520    0.2110   -5.6670 hn        1 IW6      0.224500
     28 HAF         5.9300    2.3090   -0.7780 ha        1 IW6      0.147000
     29 HAG         5.3480    0.1110    0.2360 ha        1 IW6      0.209000
     30 HAH         2.4800    5.2760    3.7630 ha        1 IW6      0.000000
     31 HAI         1.9990    5.6240    4.0880 ha        1 IW6      0.000000
     32 HAJ        -0.1510   -0.6720    3.1800 ha        1 IW6      0.241000
     33 HAK         8.1160    2.9160   -1.7940 ha        1 IW6      0.154000
     34 HAL         4.4580    0.6380   -1.8770 ha        1 IW6      0.154000
     35 CAG         5.3470   -0.1560    1.3230 c2        1 IW6     -0.444000
     36 OAN         5.1060   -0.7350    3.9930 os        1 IW6     -0.195000
@<TRIPOS>BOND
     1    1   12 1   
     2    1   20 1   
     3    1   21 1   
     4    1   22 1   
     5    2   23 1   
     6    2   24 1   
     7    2   25 1   
     8    2   36 1   
     9    3   14 1   
    10    3   26 1   
    11    3   27 1   
    12    4   15 1   
    13    5   16 1   
    14    6   35 1   
    15    7    8 1   
    16    7   32 1   
    17    8   18 1   
    18    9   19 1   
    19   10   13 1   
    20   10   15 1   
    21   10   33 1   
    22   11   13 1   
    23   11   16 1   
    24   11   34 1   
    25   12   18 1   
    26   13   28 1   
    27   14   15 1   
    28   14   16 1   
    29   17   18 1   
    30   17   19 1   
    31   17   35 1   
    32   19   36 1   
    33   29   35 1   
    34   30   31 1   
@<TRIPOS>SUBSTRUCTURE
     1 IW6         1 TEMP              0 ****  ****    0 ROOT
