@<TRIPOS>MOLECULE
IW6
   36    37     1     0     0
SMALL
bcc


@<TRIPOS>ATOM
      1 CAA        -4.8480    2.6780    2.0480 c3        1 IW6      0.113200
      2 CAB        -3.8960   -3.0590   -2.1480 c3        1 IW6      0.113200
      3 NAC         4.2930    0.5130   -0.0650 nh        1 IW6     -0.846200
      4 BRAD        3.6600   -2.4570    0.7160 br        1 IW6     -0.095100
      5 BRAE        2.4870    2.9960   -0.6980 br        1 IW6     -0.095100
      6 CAF        -1.2480   -0.7190   -0.0540 ce        1 IW6     -0.100200
      7 CAH        -6.4520   -0.6510    0.1000 ca        1 IW6     -0.060000
      8 CAI        -5.9430    0.4600    0.7670 ca        1 IW6     -0.237500
      9 CAJ        -5.6080   -1.5140   -0.5890 ca        1 IW6     -0.237500
     10 CAK         1.1080   -1.3580    0.2610 ca        1 IW6     -0.037000
     11 CAL         0.6160    0.9250   -0.3270 ca        1 IW6     -0.037000
     12 OAM        -3.9750    1.7830    1.3690 os        1 IW6     -0.324400
     13 CAO         0.1610   -0.3680   -0.0400 ca        1 IW6     -0.102800
     14 CAP         2.9430    0.2370   -0.0100 ca        1 IW6      0.232600
     15 CAQ         2.4680   -1.0720    0.2850 ca        1 IW6     -0.109900
     16 CAR         1.9720    1.2320   -0.3100 ca        1 IW6     -0.109900
     17 CAS        -3.6660   -0.1540    0.0570 ca        1 IW6     -0.101800
     18 CAT        -4.5660    0.7030    0.7410 ca        1 IW6      0.160600
     19 CAU        -4.2260   -1.2680   -0.6080 ca        1 IW6      0.160600
     20 HAA        -4.1530    3.4560    2.4560 h1        1 IW6      0.046033
     21 HAAA       -5.5770    3.1360    1.3360 h1        1 IW6      0.046033
     22 HAAB       -5.3830    2.1550    2.8770 h1        1 IW6      0.046033
     23 HAB        -4.5730   -2.5760   -2.8930 h1        1 IW6      0.046033
     24 HABA       -2.9980   -3.4970   -2.6540 h1        1 IW6      0.046033
     25 HABB       -4.4420   -3.8440   -1.5700 h1        1 IW6      0.046033
     26 HNAC        4.9160   -0.1350    0.3560 hn        1 IW6      0.427800
     27 HNAA        4.5720    1.4660   -0.0590 hn        1 IW6      0.427800
     28 HAF        -1.4560   -1.7990   -0.1590 ha        1 IW6      0.143000
     29 HAG        -2.0370    1.2420    0.2130 ha        1 IW6      0.136000
     30 HAH        -7.5350   -0.8480    0.1180 ha        1 IW6      0.134000
     31 HAI        -6.6270    1.1300    1.3040 ha        1 IW6      0.139500
     32 HAJ        -6.0300   -2.3840   -1.1090 ha        1 IW6      0.139500
     33 HAK         0.7580   -2.3800    0.4850 ha        1 IW6      0.150500
     34 HAL        -0.1180    1.7100   -0.5750 ha        1 IW6      0.150500
     35 CAG        -2.2510    0.1670    0.0640 cf        1 IW6     -0.085200
     36 OAN        -3.3350   -2.0930   -1.2650 os        1 IW6     -0.324400
@<TRIPOS>BOND
     1    1   12 1   
     2    1   20 1   
     3    1   21 1   
     4    1   22 1   
     5    2   23 1   
     6    2   24 1   
     7    2   25 1   
     8    2   36 1   
     9    3   14 1   
    10    3   26 1   
    11    3   27 1   
    12    4   15 1   
    13    5   16 1   
    14    6   13 1   
    15    6   28 1   
    16    6   35 2   
    17    7    8 ar  
    18    7    9 ar  
    19    7   30 1   
    20    8   18 ar  
    21    8   31 1   
    22    9   19 ar  
    23    9   32 1   
    24   10   13 ar  
    25   10   15 ar  
    26   10   33 1   
    27   11   13 ar  
    28   11   16 ar  
    29   11   34 1   
    30   12   18 1   
    31   14   15 ar  
    32   14   16 ar  
    33   17   18 ar  
    34   17   19 ar  
    35   17   35 1   
    36   19   36 1   
    37   29   35 1   
@<TRIPOS>SUBSTRUCTURE
     1 IW6         1 TEMP              0 ****  ****    0 ROOT
