@<TRIPOS>MOLECULE
IW6
   36    33     1     0     0
SMALL
bcc


@<TRIPOS>ATOM
      1 CAA        -2.0440   -0.2620    2.1840 c1        1 IW6     -0.032000
      2 CAB         4.5930   -0.4340    4.3590 c2        1 IW6     -0.108000
      3 NAC        10.2560    1.4310   -5.0060 nh        1 IW6     -0.351000
      4 BRAD        8.7470    3.8940   -3.7840 br        1 IW6      0.039000
      5 BRAE        9.8180   -1.6680   -4.8030 br        1 IW6      0.039000
      6 CAF         3.9710   -0.4410   -1.0460 c1        1 IW6      0.182000
      7 CAH         1.1590    0.6440    4.2070 c1        1 IW6     -0.174000
      8 CAI         1.3660    0.2760    3.0860 c1        1 IW6     -0.155000
      9 CAJ         4.3240   -0.1530    3.1250 c1        1 IW6     -0.291000
     10 CAK         7.1620    1.7080   -2.9740 ca        1 IW6     -0.048500
     11 CAL         7.6090   -0.6170   -3.3990 ca        1 IW6     -0.048500
     12 OAM         0.5010   -0.5080    1.0050 oh        1 IW6     -0.303000
     13 CAO         6.8010    0.3700   -2.8410 ca        1 IW6     -0.187000
     14 CAP         9.1530    1.0800   -4.2500 ca        1 IW6      0.139000
     15 CAQ         8.3190    2.0700   -3.6590 ca        1 IW6     -0.248000
     16 CAR         8.7720   -0.2810   -4.0900 ca        1 IW6     -0.248000
     17 CAS         2.8170   -0.1960    1.1530 c2        1 IW6     -0.039000
     18 CAT         1.5900   -0.1420    1.7560 c2        1 IW6      0.183000
     19 CAU         4.0580    0.1140    1.8630 c2        1 IW6      0.148000
     20 HAA        -0.3330   -0.3860    1.5370 ho        1 IW6      0.279000
     21 HAAA       -2.6600    0.6410    2.0800 ha        1 IW6      0.040500
     22 HAAB       -2.5860   -1.1030    2.6360 ha        1 IW6      0.040500
     23 HAB         4.3840    0.2670    5.1840 ha        1 IW6      0.121500
     24 HABA        5.8390    0.7440    1.4890 ho        1 IW6      0.226000
     25 HABB        5.0410   -1.3940    4.6610 ha        1 IW6      0.121500
     26 HNAC       10.6150    2.3490   -4.8850 hn        1 IW6      0.216000
     27 HNAA       10.9290    0.7210   -5.1830 hn        1 IW6      0.216000
     28 HAF         5.8800    0.0930   -2.2960 ha        1 IW6      0.182000
     29 HAG         2.0080   -1.0040   -0.6870 ha        1 IW6      0.207000
     30 HAH         2.8060    1.4290    6.4440 ha        1 IW6      0.000500
     31 HAI         3.2810    1.5610    6.9070 ha        1 IW6      0.000500
     32 HAJ         0.9930    0.9710    5.2030 ha        1 IW6      0.226000
     33 HAK         6.5200    2.4850   -2.5270 ha        1 IW6      0.148000
     34 HAL         7.3210   -1.6750   -3.2890 ha        1 IW6      0.148000
     35 CAG         2.9350   -0.5690   -0.2430 c2        1 IW6     -0.404000
     36 OAN         4.9900    0.7130    1.0260 oh        1 IW6     -0.264000
@<TRIPOS>BOND
     1    1   21 1   
     2    1   22 1   
     3    2    9 1   
     4    2   23 1   
     5    2   25 1   
     6    3   14 1   
     7    3   26 1   
     8    3   27 1   
     9    4   15 1   
    10    5   16 1   
    11    6   35 1   
    12    7    8 1   
    13    7   32 1   
    14    8   18 1   
    15    9   19 1   
    16   10   13 1   
    17   10   15 1   
    18   10   33 1   
    19   11   13 1   
    20   11   16 1   
    21   11   34 1   
    22   12   18 1   
    23   12   20 1   
    24   13   28 1   
    25   14   15 1   
    26   14   16 1   
    27   17   18 1   
    28   17   19 1   
    29   17   35 1   
    30   19   36 1   
    31   24   36 1   
    32   29   35 1   
    33   30   31 1   
@<TRIPOS>SUBSTRUCTURE
     1 IW6         1 TEMP              0 ****  ****    0 ROOT
