@<TRIPOS>MOLECULE
IW6
   37    37     1     0     0
SMALL
bcc


@<TRIPOS>ATOM
      1 CAA         1.4890   -1.6620   -1.7570 c2        1 IW6     -0.217100
      2 CAB         6.0110   -1.2130    2.9850 c3        1 IW6      0.112700
      3 NAC         8.7030    2.3080   -3.0980 n4        1 IW6     -0.711000
      4 BRAD        8.9850    1.0630   -0.2580 br        1 IW6     -0.017100
      5 BRAE        6.3480    2.4300   -5.1420 br        1 IW6     -0.017100
      6 CAF         2.2020   -1.4890   -0.6870 c1        1 IW6     -0.087800
      7 CAH         3.0720    1.7780    3.2800 ca        1 IW6     -0.059000
      8 CAI         1.9260    1.6260    2.5160 ca        1 IW6     -0.178000
      9 CAJ         4.1630    0.9230    3.1020 ca        1 IW6     -0.227000
     10 CAK         6.2990    0.4120   -0.9190 ca        1 IW6     -0.064500
     11 CAL         5.1860    0.9930   -2.9910 ca        1 IW6     -0.064500
     12 OAM         0.6780    0.5470    0.8590 oh        1 IW6     -0.489100
     13 CAO         5.1660    0.3900   -1.7350 ca        1 IW6     -0.066000
     14 CAP         7.4850    1.6470   -2.6290 ca        1 IW6     -0.039400
     15 CAQ         7.4670    1.0380   -1.3570 ca        1 IW6     -0.018900
     16 CAR         6.3420    1.6270   -3.4540 ca        1 IW6     -0.018900
     17 CAS         2.9380   -0.2820    1.3400 ca        1 IW6     -0.167800
     18 CAT         1.8580    0.5970    1.5530 ca        1 IW6      0.174100
     19 CAU         4.0910   -0.0880    2.1430 ca        1 IW6      0.143100
     20 HAA         0.5020   -2.1510   -1.7340 ha        1 IW6      0.137500
     21 HAAA        0.6170   -0.3030    0.3940 ho        1 IW6      0.435000
     22 HAAB        1.8230   -1.3330   -2.7530 ha        1 IW6      0.137500
     23 HAB         6.6970   -0.3500    3.1690 h1        1 IW6      0.051367
     24 HABA        5.4130   -1.4390    3.9000 h1        1 IW6      0.051367
     25 HABB        6.5870   -2.1130    2.6540 h1        1 IW6      0.051367
     26 HNAC        9.4390    2.2290   -2.3750 hn        1 IW6      0.471800
     27 HNAA        9.0270    1.8620   -3.9660 hn        1 IW6      0.471800
     28 HAF         4.2450   -0.1120   -1.3690 ha        1 IW6      0.199000
     29 HAG         3.6270   -2.2100    0.6490 ha        1 IW6      0.163000
     30 HAH         5.0610    1.0450    3.7220 ha        1 IW6      0.145000
     31 HAI         1.0560    2.2860    2.6490 ha        1 IW6      0.164000
     32 HAJ         3.1240    2.5750    4.0380 ha        1 IW6      0.148000
     33 HAK         6.2550   -0.0700    0.0810 ha        1 IW6      0.198500
     34 HAL         4.2790    0.9710   -3.6240 ha        1 IW6      0.198500
     35 OAN         5.1640   -0.9250    1.8720 os        1 IW6     -0.364900
     36 HAC3        8.5090    3.3010   -3.2810 hn        1 IW6      0.471800
     37 CAG         2.9260   -1.3850    0.3970 ce        1 IW6     -0.115300
@<TRIPOS>BOND
     1    1    6 2   
     2    1   20 1   
     3    1   22 1   
     4    2   23 1   
     5    2   24 1   
     6    2   25 1   
     7    2   35 1   
     8    3   14 1   
     9    3   26 1   
    10    3   27 1   
    11    3   36 1   
    12    4   15 1   
    13    5   16 1   
    14    6   37 2   
    15    7    8 ar  
    16    7    9 ar  
    17    7   32 1   
    18    8   18 ar  
    19    8   31 1   
    20    9   19 ar  
    21    9   30 1   
    22   10   13 ar  
    23   10   15 ar  
    24   10   33 1   
    25   11   13 ar  
    26   11   16 ar  
    27   11   34 1   
    28   12   18 1   
    29   12   21 1   
    30   13   28 1   
    31   14   15 ar  
    32   14   16 ar  
    33   17   18 ar  
    34   17   19 ar  
    35   17   37 1   
    36   19   35 1   
    37   29   37 1   
@<TRIPOS>SUBSTRUCTURE
     1 IW6         1 TEMP              0 ****  ****    0 ROOT
