@<TRIPOS>MOLECULE
IW6
   36    31     1     0     0
SMALL
bcc


@<TRIPOS>ATOM
      1 CAA        -3.9510   -1.0120   -0.9720 c3        1 IW6     -0.078000
      2 CAB        -0.2280    3.4880    1.9510 c3        1 IW6     -0.077000
      3 NAC         4.1990   -2.6380   -0.5020 n3        1 IW6     -0.355000
      4 BRAD        5.0370    0.2850   -0.0430 br        1 IW6      0.043000
      5 BRAE        1.7800   -4.0560   -1.7380 br        1 IW6      0.040000
      6 CAF         0.1180    1.0670   -2.0720 c1        1 IW6     -0.120750
      7 CAG        -0.9810    1.3680   -1.2640 c1        1 IW6     -0.120750
      8 CAH        -1.6230   -0.4140    2.6740 c1        1 IW6     -0.120750
      9 CAI        -2.2070   -0.9940    1.5330 c1        1 IW6     -0.235000
     10 CAJ        -0.8060    0.7020    2.5440 c1        1 IW6     -0.120750
     11 CAK         2.3710    0.5440   -1.0220 c1        1 IW6     -0.036000
     12 CAL         0.9980   -1.2800   -1.8120 c1        1 IW6     -0.029000
     13 OAM        -2.5440   -1.0730   -0.9210 os        1 IW6     -0.207000
     14 OAN         0.1960    2.4470    1.1180 os        1 IW6     -0.201000
     15 CAO         1.1710    0.0730   -1.5880 c1        1 IW6     -0.091000
     16 CAP         3.2040   -1.7170   -0.9150 c2        1 IW6      0.149000
     17 CAQ         3.3820   -0.3540   -0.6890 c2        1 IW6     -0.251000
     18 CAR         2.0160   -2.1830   -1.4750 c1        1 IW6     -0.250000
     19 CAS        -1.1350    0.6870    0.1290 c1        1 IW6     -0.104000
     20 CAT        -1.9660   -0.4490    0.2660 c2        1 IW6      0.110000
     21 CAU        -0.5590    1.2610    1.2500 c1        1 IW6      0.121000
     22 HAA        -4.2700   -0.1290   -0.5580 h1        1 IW6      0.085667
     23 HAAA       -4.2590   -1.0630   -1.9400 h1        1 IW6      0.085667
     24 HAAB       -4.3310   -1.7700   -0.4650 h1        1 IW6      0.085667
     25 HAB         0.1990    3.3930    2.8420 h1        1 IW6      0.084667
     26 HABA       -1.2050    3.4510    2.0490 h1        1 IW6      0.084667
     27 HABB        0.0200    4.3210    1.5670 h1        1 IW6      0.084667
     28 HNAC        4.1230   -3.5310   -0.7260 hn        1 IW6      0.221000
     29 HNAA        4.9370   -2.3410   -0.0360 hn        1 IW6      0.221000
     30 HAF         0.2140    1.4910   -2.9430 ha        1 IW6      0.132500
     31 HAG        -1.6530    2.0020   -1.5720 ha        1 IW6      0.132500
     32 HAH        -1.8010   -0.8160    3.6010 ha        1 IW6      0.132500
     33 HAI        -2.7750   -1.7680    1.6260 ha        1 IW6      0.140000
     34 HAJ        -0.3990    1.1080    3.3420 ha        1 IW6      0.132500
     35 HAK         2.5460    1.5010   -0.9880 ha        1 IW6      0.149000
     36 HAL         0.1810   -1.6030   -2.2470 ha        1 IW6      0.162000
@<TRIPOS>BOND
     1    1   13 1   
     2    1   22 1   
     3    1   23 1   
     4    1   24 1   
     5    2   14 1   
     6    2   25 1   
     7    2   26 1   
     8    2   27 1   
     9    3   16 1   
    10    3   28 1   
    11    3   29 1   
    12    4   17 1   
    13    5   18 1   
    14    6    7 1   
    15    6   30 1   
    16    7   31 1   
    17    8   10 1   
    18    8   32 1   
    19    9   20 1   
    20    9   33 1   
    21   10   34 1   
    22   11   17 1   
    23   11   35 1   
    24   12   15 1   
    25   12   36 1   
    26   13   20 1   
    27   14   21 1   
    28   16   17 1   
    29   16   18 1   
    30   19   20 1   
    31   19   21 1   
@<TRIPOS>SUBSTRUCTURE
     1 IW6         1 TEMP              0 ****  ****    0 ROOT
