@<TRIPOS>MOLECULE
IW7
   41    41     1     0     0
SMALL
bcc


@<TRIPOS>ATOM
      1 O5          0.4850    0.1050    0.7930 o         1 IW7     -0.556300
      2 S1          1.7420   -0.0170    0.2440 sy        1 IW7      1.488200
      3 O6          2.7740   -0.6740    0.8740 o         1 IW7     -0.556300
      4 N7          1.3650   -1.2750   -1.1530 n4        1 IW7     -0.791500
      5 C7          2.1940    1.2160   -0.6840 ca        1 IW7     -0.555500
      6 C8          1.2670    2.2070   -1.0780 ca        1 IW7      0.057000
      7 C9          1.6530    3.3120   -1.8330 ca        1 IW7     -0.103000
      8 C10         2.9890    3.4290   -2.1910 ca        1 IW7      0.056400
      9 C17         3.5950    4.5290   -3.0080 c         1 IW7      0.767200
     10 O18         4.9210    4.2760   -3.2050 os        1 IW7     -0.500800
     11 O17         3.0990    5.5330   -3.4810 o         1 IW7     -0.468500
     12 C12         3.5530    1.3880   -1.0500 ca        1 IW7      0.128000
     13 C11         3.9540    2.4720   -1.8010 ca        1 IW7     -0.359500
     14 S13         5.5190    2.8960   -2.3770 sy        1 IW7      1.636800
     15 O15         6.3370    3.3400   -1.3820 o         1 IW7     -0.594800
     16 O14         5.9090    2.0030   -3.3330 o         1 IW7     -0.594800
     17 N16         4.5100    5.5210   -0.5900 n3        1 IW7     -0.962800
     18 C19         3.7600    6.0140    0.5440 c3        1 IW7      0.149800
     19 C20         4.3890    7.1730    1.3150 c3        1 IW7     -0.117400
     20 C21         3.5040    7.5850    2.4710 c3        1 IW7     -0.075400
     21 C29         4.1140    8.7340    3.2460 c3        1 IW7     -0.080400
     22 C30         3.2370    9.1480    4.3990 c3        1 IW7     -0.094100
     23 H7A         0.3910   -1.5720   -1.1100 hn        1 IW7      0.460467
     24 H7B         1.5340   -0.9000   -2.0820 hn        1 IW7      0.460467
     25 H8          0.2070    2.1110   -0.7660 ha        1 IW7      0.180000
     26 H12         4.2960    0.6380   -0.7090 ha        1 IW7      0.175000
     27 H9          0.9200    4.0840   -2.1330 ha        1 IW7      0.204000
     28 H16         4.6380    6.2540   -1.2660 hn        1 IW7      0.363300
     29 H191        2.7460    6.3380    0.1730 h1        1 IW7      0.042200
     30 H192        3.6060    5.1530    1.2540 h1        1 IW7      0.042200
     31 H201        4.5420    8.0480    0.6290 hc        1 IW7      0.050200
     32 H202        5.3980    6.8720    1.7010 hc        1 IW7      0.050200
     33 H211        3.3490    6.7110    3.1570 hc        1 IW7      0.038700
     34 H212        2.4950    7.8870    2.0850 hc        1 IW7      0.038700
     35 H291        4.2690    9.6070    2.5580 hc        1 IW7      0.043700
     36 H292        5.1240    8.4320    3.6290 hc        1 IW7      0.043700
     37 H301        3.7050    9.9950    4.9550 hc        1 IW7      0.037033
     38 H302        3.0910    8.2980    5.1090 hc        1 IW7      0.037033
     39 H303        2.2340    9.4760    4.0350 hc        1 IW7      0.037033
     40 H73         1.9450   -2.1070   -1.0450 hn        1 IW7      0.460467
     41 H162        5.4200    5.2100   -0.2960 hn        1 IW7      0.363300
@<TRIPOS>BOND
     1    1    2 2   
     2    2    3 2   
     3    2    4 1   
     4    2    5 1   
     5    4   23 1   
     6    4   24 1   
     7    4   40 1   
     8    5    6 ar  
     9    5   12 ar  
    10    6    7 ar  
    11    6   25 1   
    12    7    8 ar  
    13    7   27 1   
    14    8    9 1   
    15    8   13 ar  
    16    9   10 1   
    17    9   11 2   
    18   10   14 1   
    19   12   13 ar  
    20   12   26 1   
    21   13   14 1   
    22   14   15 2   
    23   14   16 2   
    24   17   18 1   
    25   17   28 1   
    26   17   41 1   
    27   18   19 1   
    28   18   29 1   
    29   18   30 1   
    30   19   20 1   
    31   19   31 1   
    32   19   32 1   
    33   20   21 1   
    34   20   33 1   
    35   20   34 1   
    36   21   22 1   
    37   21   35 1   
    38   21   36 1   
    39   22   37 1   
    40   22   38 1   
    41   22   39 1   
@<TRIPOS>SUBSTRUCTURE
     1 IW7         1 TEMP              0 ****  ****    0 ROOT
