@<TRIPOS>MOLECULE
IW7
   41    41     1     0     0
SMALL
bcc


@<TRIPOS>ATOM
      1 O5          0.2890   -2.1180   -1.5480 o         1 IW7     -0.557300
      2 S1          1.3140   -1.3960   -0.9770 sy        1 IW7      1.488200
      3 O6          1.7320   -1.5930    0.3190 o         1 IW7     -0.557300
      4 N7          2.8070   -2.1550   -1.9130 nz        1 IW7     -0.791500
      5 C7          1.4630    0.1100   -1.5180 ca        1 IW7     -0.548500
      6 C8          0.7390    0.5510   -2.6480 ca        1 IW7      0.047000
      7 C9          0.8160    1.8690   -3.0970 ca        1 IW7     -0.098000
      8 C10         1.6280    2.7520   -2.3990 ca        1 IW7      0.014400
      9 C17         1.8600    4.1920   -2.7240 c         1 IW7      0.750200
     10 O18         2.7210    4.7370   -1.8230 os        1 IW7     -0.501800
     11 O17         1.4190    4.8840   -3.6230 o         1 IW7     -0.468500
     12 C12         2.2600    1.0540   -0.8230 ca        1 IW7      0.116000
     13 C11         2.3540    2.3590   -1.2570 ca        1 IW7     -0.338500
     14 S13         3.2890    3.6870   -0.5770 sy        1 IW7      1.656800
     15 O15         2.6920    4.0100    0.6050 o         1 IW7     -0.589800
     16 O14         4.5950    3.3610   -0.8150 o         1 IW7     -0.589800
     17 N16         4.4780    6.0510   -0.1380 n8        1 IW7     -0.977800
     18 C19         4.3510    6.5350    1.2210 c3        1 IW7      0.140800
     19 C20         4.8380    7.9610    1.4680 c3        1 IW7     -0.112400
     20 C21         4.6470    8.3380    2.9210 c3        1 IW7     -0.076400
     21 C29         5.1200    9.7520    3.1860 c3        1 IW7     -0.080400
     22 C30         4.9330   10.1330    4.6320 c3        1 IW7     -0.094100
     23 H7A         3.3080   -1.4750   -2.4770 hn        1 IW7      0.460133
     24 H7B         3.4700   -2.5600   -1.2520 hn        1 IW7      0.460133
     25 H8          0.0800   -0.1630   -3.1830 ha        1 IW7      0.179000
     26 H12         2.8000    0.7300    0.0900 ha        1 IW7      0.175000
     27 H9          0.2430    2.2050   -3.9800 ha        1 IW7      0.201000
     28 H16         5.4440    5.9640   -0.3970 hn        1 IW7      0.369800
     29 H191        3.2610    6.4620    1.5040 h1        1 IW7      0.062200
     30 H192        4.9210    5.8340    1.8940 h1        1 IW7      0.062200
     31 H201        5.9220    8.0480    1.1960 hc        1 IW7      0.045700
     32 H202        4.2710    8.6770    0.8170 hc        1 IW7      0.045700
     33 H211        5.2150    7.6250    3.5740 hc        1 IW7      0.043200
     34 H212        3.5630    8.2480    3.1950 hc        1 IW7      0.043200
     35 H291        4.5510   10.4650    2.5320 hc        1 IW7      0.041200
     36 H292        6.2030    9.8430    2.9090 hc        1 IW7      0.041200
     37 H301        5.5130    9.4490    5.2980 hc        1 IW7      0.036700
     38 H302        3.8560   10.0730    4.9200 hc        1 IW7      0.036700
     39 H303        5.2870   11.1780    4.8050 hc        1 IW7      0.036700
     40 H73         2.4950   -2.9030   -2.5320 hn        1 IW7      0.460133
     41 H162        4.0320    6.6800   -0.7810 hn        1 IW7      0.369800
@<TRIPOS>BOND
     1    1    2 2   
     2    2    3 2   
     3    2    4 1   
     4    2    5 1   
     5    4   23 1   
     6    4   24 1   
     7    4   40 1   
     8    5    6 ar  
     9    5   12 ar  
    10    6    7 ar  
    11    6   25 1   
    12    7    8 ar  
    13    7   27 1   
    14    8    9 1   
    15    8   13 ar  
    16    9   10 1   
    17    9   11 2   
    18   10   14 1   
    19   12   13 ar  
    20   12   26 1   
    21   13   14 1   
    22   14   15 2   
    23   14   16 2   
    24   17   18 1   
    25   17   28 1   
    26   17   41 1   
    27   18   19 1   
    28   18   29 1   
    29   18   30 1   
    30   19   20 1   
    31   19   31 1   
    32   19   32 1   
    33   20   21 1   
    34   20   33 1   
    35   20   34 1   
    36   21   22 1   
    37   21   35 1   
    38   21   36 1   
    39   22   37 1   
    40   22   38 1   
    41   22   39 1   
@<TRIPOS>SUBSTRUCTURE
     1 IW7         1 TEMP              0 ****  ****    0 ROOT
