@<TRIPOS>MOLECULE
IW8
   62    65     1     0     0
SMALL
bcc


@<TRIPOS>ATOM
      1 C01        -0.0180    0.2130    0.0810 ca        1 IW8     -0.318500
      2 C02         1.3600    0.4800    0.2130 ca        1 IW8      0.066100
      3 C03         1.9720    0.6240    1.4570 ca        1 IW8     -0.091000
      4 C04         1.2070    0.4810    2.6080 ca        1 IW8     -0.042800
      5 C05        -0.2000    0.1850    2.4910 ca        1 IW8     -0.008400
      6 C06        -0.7960    0.0580    1.2350 ca        1 IW8     -0.025000
      7 C07         1.5020    0.5620    4.0260 cc        1 IW8     -0.167200
      8 C08         0.3200    0.3200    4.7050 cd        1 IW8     -0.053400
      9 N01        -0.7370    0.0850    3.7960 n         1 IW8     -0.262200
     10 Br          2.4910    0.6580   -1.2780 br        1 IW8     -0.074100
     11 S          -0.8880    0.0870   -1.3960 sy        1 IW8      1.493200
     12 N02        -0.4460   -1.3650   -1.9760 n3        1 IW8     -0.811500
     13 O01        -2.2600    0.0570   -1.0570 o         1 IW8     -0.642300
     14 O02        -0.5250    1.1130   -2.2880 o         1 IW8     -0.642300
     15 C09        -2.0650   -0.2290    4.1420 c         1 IW8      0.678100
     16 O03        -2.8900   -0.4850    3.2540 o         1 IW8     -0.539100
     17 C10        -2.4240   -0.2390    5.6040 c3        1 IW8     -0.174100
     18 C11        -0.8450   -2.5890   -1.3270 c3        1 IW8      0.228300
     19 C12         0.2810   -3.6100   -1.1730 c3        1 IW8     -0.090900
     20 C13         0.9600   -3.8610   -2.5140 c3        1 IW8     -0.122700
     21 C14         1.4410   -2.5460   -3.1050 c3        1 IW8     -0.090900
     22 C15         0.2940   -1.5380   -3.1990 c3        1 IW8      0.228300
     23 C16         2.1360   -4.8160   -2.2980 c         1 IW8      0.666100
     24 N           2.4300   -5.7730   -3.2870 n         1 IW8     -0.390000
     25 O           2.7730   -4.7820   -1.2310 o         1 IW8     -0.573100
     26 C17         3.1680   -6.9390   -2.9520 ca        1 IW8      0.073600
     27 C18         2.2370   -5.4590   -4.6850 c3        1 IW8      0.094000
     28 C19         3.3300   -4.6210   -5.3380 c3        1 IW8     -0.128100
     29 C20         4.0230   -7.5660   -3.8820 ca        1 IW8     -0.175000
     30 C21         4.6870   -8.7540   -3.5610 ca        1 IW8     -0.057300
     31 C22         4.5150   -9.3310   -2.3010 ca        1 IW8     -0.151000
     32 C23         3.6790   -8.7170   -1.3710 ca        1 IW8     -0.107000
     33 C24         3.0090   -7.5400   -1.6810 ca        1 IW8     -0.144000
     34 C           5.5850   -9.3800   -4.5600 c3        1 IW8     -0.053800
     35 H1          3.0480    0.8440    1.5420 ha        1 IW8      0.158000
     36 H2         -1.8840   -0.1500    1.1600 ha        1 IW8      0.202000
     37 H3          2.4760    0.7730    4.4590 ha        1 IW8      0.169000
     38 H4          0.1350    0.2950    5.7820 h4        1 IW8      0.173000
     39 H5         -2.2270    0.7590    6.0650 hc        1 IW8      0.077367
     40 H6         -3.5130   -0.4740    5.6980 hc        1 IW8      0.077367
     41 H7         -1.8350   -1.0190    6.1450 hc        1 IW8      0.077367
     42 H8         -1.6800   -3.0610   -1.9240 h1        1 IW8      0.055200
     43 H9         -1.2520   -2.3360   -0.3050 h1        1 IW8      0.055200
     44 H10         1.0410   -3.2510   -0.4310 hc        1 IW8      0.065450
     45 H11        -0.1550   -4.5640   -0.7810 hc        1 IW8      0.065450
     46 H12         0.2000   -4.3240   -3.2040 hc        1 IW8      0.068700
     47 H13         2.2710   -2.1350   -2.4720 hc        1 IW8      0.065450
     48 H14         1.8390   -2.7090   -4.1400 hc        1 IW8      0.065450
     49 H15        -0.4190   -1.8910   -4.0020 h1        1 IW8      0.055200
     50 H16         0.7110   -0.5390   -3.5190 h1        1 IW8      0.055200
     51 H17         1.2590   -4.9090   -4.7970 h1        1 IW8      0.055200
     52 H18         2.1340   -6.4300   -5.2520 h1        1 IW8      0.055200
     53 H19         3.0010   -4.3470   -6.3690 hc        1 IW8      0.046367
     54 H20         4.2920   -5.1830   -5.4100 hc        1 IW8      0.046367
     55 H21         3.5270   -3.6840   -4.7640 hc        1 IW8      0.046367
     56 H22         4.1870   -7.1370   -4.8820 ha        1 IW8      0.132000
     57 H23         5.0370  -10.2640   -2.0450 ha        1 IW8      0.132000
     58 H24         3.5460   -9.1660   -0.3750 ha        1 IW8      0.132000
     59 H25         2.3670   -7.0700   -0.9190 ha        1 IW8      0.148000
     60 H26         6.5550   -8.8220   -4.6050 hc        1 IW8      0.043700
     61 H27         5.8050  -10.4430   -4.2950 hc        1 IW8      0.043700
     62 H28         5.1230   -9.3580   -5.5780 hc        1 IW8      0.043700
@<TRIPOS>BOND
     1    1    2 ar  
     2    1    6 ar  
     3    1   11 1   
     4    2    3 ar  
     5    2   10 1   
     6    3    4 ar  
     7    3   35 1   
     8    4    5 ar  
     9    4    7 1   
    10    5    6 ar  
    11    5    9 1   
    12    6   36 1   
    13    7    8 2   
    14    7   37 1   
    15    8    9 1   
    16    8   38 1   
    17    9   15 1   
    18   11   12 1   
    19   11   13 2   
    20   11   14 2   
    21   12   18 1   
    22   12   22 1   
    23   15   16 2   
    24   15   17 1   
    25   17   39 1   
    26   17   40 1   
    27   17   41 1   
    28   18   19 1   
    29   18   42 1   
    30   18   43 1   
    31   19   20 1   
    32   19   44 1   
    33   19   45 1   
    34   20   21 1   
    35   20   23 1   
    36   20   46 1   
    37   21   22 1   
    38   21   47 1   
    39   21   48 1   
    40   22   49 1   
    41   22   50 1   
    42   23   24 1   
    43   23   25 2   
    44   24   26 1   
    45   24   27 1   
    46   26   29 ar  
    47   26   33 ar  
    48   27   28 1   
    49   27   51 1   
    50   27   52 1   
    51   28   53 1   
    52   28   54 1   
    53   28   55 1   
    54   29   30 ar  
    55   29   56 1   
    56   30   31 ar  
    57   30   34 1   
    58   31   32 ar  
    59   31   57 1   
    60   32   33 ar  
    61   32   58 1   
    62   33   59 1   
    63   34   60 1   
    64   34   61 1   
    65   34   62 1   
@<TRIPOS>SUBSTRUCTURE
     1 IW8         1 TEMP              0 ****  ****    0 ROOT
