@<TRIPOS>MOLECULE
IW8
   62    65     1     0     0
SMALL
bcc


@<TRIPOS>ATOM
      1 C01        -0.0230    0.2110    0.0790 ca        1 IW8     -0.318500
      2 C02         1.3540    0.4820    0.2070 ca        1 IW8      0.066100
      3 C03         1.9700    0.6270    1.4490 ca        1 IW8     -0.091000
      4 C04         1.2080    0.4850    2.6030 ca        1 IW8     -0.042800
      5 C05        -0.1990    0.1850    2.4890 ca        1 IW8     -0.008400
      6 C06        -0.7980    0.0560    1.2360 ca        1 IW8     -0.025000
      7 C07         1.5070    0.5680    4.0190 cc        1 IW8     -0.167200
      8 C08         0.3280    0.3240    4.7020 cd        1 IW8     -0.053400
      9 N01        -0.7320    0.0860    3.7970 n         1 IW8     -0.262200
     10 BR          2.4800    0.6600   -1.2880 br        1 IW8     -0.074100
     11 S          -0.8980    0.0820   -1.3950 sy        1 IW8      1.493200
     12 N02        -0.4540   -1.3700   -1.9750 n3        1 IW8     -0.811500
     13 O01        -2.2690    0.0490   -1.0520 o         1 IW8     -0.642300
     14 O02        -0.5400    1.1070   -2.2900 o         1 IW8     -0.642300
     15 C09        -2.0580   -0.2310    4.1460 c         1 IW8      0.678100
     16 O03        -2.8850   -0.4900    3.2610 o         1 IW8     -0.539100
     17 C10        -2.4130   -0.2400    5.6090 c3        1 IW8     -0.174100
     18 C11        -0.8490   -2.5940   -1.3240 c3        1 IW8      0.228300
     19 C12         0.2800   -3.6130   -1.1710 c3        1 IW8     -0.090900
     20 C13         0.9570   -3.8640   -2.5130 c3        1 IW8     -0.122700
     21 C14         1.4330   -2.5490   -3.1070 c3        1 IW8     -0.090900
     22 C15         0.2830   -1.5440   -3.1990 c3        1 IW8      0.228300
     23 C16         2.1350   -4.8150   -2.2980 c         1 IW8      0.666100
     24 N           2.4290   -5.7740   -3.2860 n         1 IW8     -0.390000
     25 O           2.7750   -4.7780   -1.2320 o         1 IW8     -0.573100
     26 C17         3.1720   -6.9370   -2.9510 ca        1 IW8      0.073600
     27 C18         2.2330   -5.4620   -4.6840 c3        1 IW8      0.094000
     28 C19         3.3220   -4.6230   -5.3410 c3        1 IW8     -0.128100
     29 C20         4.0260   -7.5630   -3.8820 ca        1 IW8     -0.175000
     30 C21         4.6940   -8.7480   -3.5610 ca        1 IW8     -0.057300
     31 C22         4.5270   -9.3240   -2.2990 ca        1 IW8     -0.151000
     32 C23         3.6920   -8.7100   -1.3680 ca        1 IW8     -0.107000
     33 C24         3.0170   -7.5360   -1.6780 ca        1 IW8     -0.144000
     34 C           5.5920   -9.3740   -4.5610 c3        1 IW8     -0.053800
     35 H1          3.0450    0.8500    1.5310 ha        1 IW8      0.158000
     36 H2         -1.8850   -0.1550    1.1640 ha        1 IW8      0.202000
     37 H3          2.4820    0.7820    4.4490 ha        1 IW8      0.169000
     38 H4          0.1450    0.2990    5.7790 h4        1 IW8      0.173000
     39 H5         -3.5010   -0.4780    5.7070 hc        1 IW8      0.077367
     40 H6         -1.8210   -1.0190    6.1500 hc        1 IW8      0.077367
     41 H7         -2.2160    0.7590    6.0690 hc        1 IW8      0.077367
     42 H8         -1.6850   -3.0690   -1.9180 h1        1 IW8      0.055200
     43 H9         -1.2540   -2.3410   -0.3010 h1        1 IW8      0.055200
     44 H10        -0.1530   -4.5680   -0.7760 hc        1 IW8      0.065450
     45 H11         1.0410   -3.2510   -0.4300 hc        1 IW8      0.065450
     46 H12         0.1960   -4.3300   -3.2000 hc        1 IW8      0.068700
     47 H13         1.8290   -2.7130   -4.1430 hc        1 IW8      0.065450
     48 H14         2.2630   -2.1340   -2.4770 hc        1 IW8      0.065450
     49 H15         0.6970   -0.5440   -3.5220 h1        1 IW8      0.055200
     50 H16        -0.4310   -1.8990   -4.0000 h1        1 IW8      0.055200
     51 H17         2.1310   -6.4340   -5.2490 h1        1 IW8      0.055200
     52 H18         1.2530   -4.9150   -4.7940 h1        1 IW8      0.055200
     53 H19         4.2840   -5.1820   -5.4140 hc        1 IW8      0.046367
     54 H20         2.9890   -4.3510   -6.3720 hc        1 IW8      0.046367
     55 H21         3.5180   -3.6840   -4.7690 hc        1 IW8      0.046367
     56 H22         4.1860   -7.1350   -4.8830 ha        1 IW8      0.132000
     57 H23         5.0520  -10.2550   -2.0430 ha        1 IW8      0.132000
     58 H24         3.5620   -9.1590   -0.3710 ha        1 IW8      0.132000
     59 H25         2.3760   -7.0660   -0.9160 ha        1 IW8      0.148000
     60 H26         6.5600   -8.8140   -4.6080 hc        1 IW8      0.043700
     61 H27         5.8130  -10.4360   -4.2950 hc        1 IW8      0.043700
     62 H28         5.1280   -9.3540   -5.5780 hc        1 IW8      0.043700
@<TRIPOS>BOND
     1    1    2 ar  
     2    1    6 ar  
     3    1   11 1   
     4    2    3 ar  
     5    2   10 1   
     6    3    4 ar  
     7    3   35 1   
     8    4    5 ar  
     9    4    7 1   
    10    5    6 ar  
    11    5    9 1   
    12    6   36 1   
    13    7    8 2   
    14    7   37 1   
    15    8    9 1   
    16    8   38 1   
    17    9   15 1   
    18   11   12 1   
    19   11   13 2   
    20   11   14 2   
    21   12   18 1   
    22   12   22 1   
    23   15   16 2   
    24   15   17 1   
    25   17   39 1   
    26   17   40 1   
    27   17   41 1   
    28   18   19 1   
    29   18   42 1   
    30   18   43 1   
    31   19   20 1   
    32   19   44 1   
    33   19   45 1   
    34   20   21 1   
    35   20   23 1   
    36   20   46 1   
    37   21   22 1   
    38   21   47 1   
    39   21   48 1   
    40   22   49 1   
    41   22   50 1   
    42   23   24 1   
    43   23   25 2   
    44   24   26 1   
    45   24   27 1   
    46   26   29 ar  
    47   26   33 ar  
    48   27   28 1   
    49   27   51 1   
    50   27   52 1   
    51   28   53 1   
    52   28   54 1   
    53   28   55 1   
    54   29   30 ar  
    55   29   56 1   
    56   30   31 ar  
    57   30   34 1   
    58   31   32 ar  
    59   31   57 1   
    60   32   33 ar  
    61   32   58 1   
    62   33   59 1   
    63   34   60 1   
    64   34   61 1   
    65   34   62 1   
@<TRIPOS>SUBSTRUCTURE
     1 IW8         1 TEMP              0 ****  ****    0 ROOT
