@<TRIPOS>MOLECULE
IWD
   22    19     1     0     0
SMALL
bcc


@<TRIPOS>ATOM
      1 N1          0.1540   -0.5480    0.3750 n2        1 IWD     -0.637900
      2 C2          1.5130   -0.6210    0.4000 c1        1 IWD      0.839900
      3 O2          2.1350   -0.7130   -0.6390 o         1 IWD     -0.590500
      4 N3          2.1820   -0.6030    1.5990 n2        1 IWD     -0.836800
      5 C4          1.4920   -0.5120    2.7550 c1        1 IWD      0.631900
      6 O4          2.0740   -0.6120    3.8180 o         1 IWD     -0.622900
      7 C5          0.1270   -0.4380    2.7310 cg        1 IWD     -0.536200
      8 I5         -0.9590   -0.3400    4.5420 i         1 IWD      0.164000
      9 C6         -0.5390   -0.4570    1.5310 ce        1 IWD      0.593100
     10 C7         -0.5560   -0.6250   -0.8900 c3        1 IWD      0.186800
     11 C8         -0.7350    0.7680   -1.4550 c3        1 IWD     -0.011500
     12 N8         -2.1210    1.0840   -1.5040 n3        1 IWD     -0.912800
     13 C9         -0.1560    0.8240   -2.8480 c         1 IWD      0.897600
     14 O91         0.7120    1.6770   -3.1290 o         1 IWD     -0.821300
     15 O92        -0.4930   -0.0340   -3.7010 o         1 IWD     -0.821300
     16 H3          3.0900   -0.6400    1.6140 hn        1 IWD      0.498400
     17 H6         -1.5110   -0.3830    1.5130 h4        1 IWD      0.062800
     18 H71        -1.4290   -1.0310   -0.7470 h1        1 IWD      0.086700
     19 H72        -0.0400   -1.1710   -1.5230 h1        1 IWD      0.086700
     20 H8         -0.2750    1.4120   -0.8850 h1        1 IWD      0.053700
     21 H81        -2.2500    1.9270   -1.1890 hn        1 IWD      0.344800
     22 H82        -2.4150    1.0340   -2.3690 hn        1 IWD      0.344800
@<TRIPOS>BOND
     1    1    9 2   
     2    1   10 1   
     3    2    3 2   
     4    2    4 2   
     5    4   16 1   
     6    5    6 1   
     7    5    7 3   
     8    7    9 1   
     9    9   17 1   
    10   10   11 1   
    11   10   18 1   
    12   10   19 1   
    13   11   12 1   
    14   11   13 1   
    15   11   20 1   
    16   12   21 1   
    17   12   22 1   
    18   13   14 1   
    19   13   15 1   
@<TRIPOS>SUBSTRUCTURE
     1 IWD         1 TEMP              0 ****  ****    0 ROOT
