@<TRIPOS>MOLECULE
IWD
   22    22     1     0     0
SMALL
bcc


@<TRIPOS>ATOM
      1 N1         -0.8100   -0.5040    1.2390 n         1 IWD     -0.332000
      2 C2         -2.1940   -0.1910    1.1330 c         1 IWD      0.795500
      3 O2         -2.9730   -0.2510    2.1070 o         1 IWD     -0.632500
      4 N3         -2.6980    0.1600   -0.1320 n         1 IWD     -0.592500
      5 C4         -1.9060    0.2350   -1.2920 c         1 IWD      0.738700
      6 O4         -2.4720    0.5680   -2.3510 o         1 IWD     -0.643500
      7 C5         -0.4940   -0.0950   -1.1210 cc        1 IWD     -0.252400
      8 I5          0.7580   -0.0740   -2.6900 i         1 IWD     -0.108800
      9 C6         -0.0150   -0.4170    0.1260 cd        1 IWD      0.148600
     10 C7         -0.2240   -0.7500    2.5540 c3        1 IWD      0.099000
     11 C8          0.5660    0.4240    3.1650 c3        1 IWD     -0.011500
     12 N8          1.5710    0.9520    2.2580 n3        1 IWD     -0.912800
     13 C9          1.1380   -0.1220    4.5290 c         1 IWD      0.897600
     14 O91         2.3850   -0.0540    4.7030 o         1 IWD     -0.821300
     15 O92         0.3040   -0.5870    5.3470 o         1 IWD     -0.821300
     16 H3         -3.6660    0.3870   -0.1860 hn        1 IWD      0.340500
     17 H6          1.0600   -0.6450    0.2960 h4        1 IWD      0.192000
     18 H71         0.4530   -1.6440    2.4490 h1        1 IWD      0.086700
     19 H72        -1.0530   -1.0010    3.2790 h1        1 IWD      0.086700
     20 H8         -0.1640    1.2430    3.4220 h1        1 IWD      0.053700
     21 H81         1.7530    1.9070    2.5060 hn        1 IWD      0.344800
     22 H82         2.4290    0.4450    2.4090 hn        1 IWD      0.344800
@<TRIPOS>BOND
     1    1    2 1   
     2    1    9 1   
     3    1   10 1   
     4    2    3 2   
     5    2    4 1   
     6    4    5 1   
     7    4   16 1   
     8    5    6 2   
     9    5    7 1   
    10    7    8 1   
    11    7    9 2   
    12    9   17 1   
    13   10   11 1   
    14   10   18 1   
    15   10   19 1   
    16   11   12 1   
    17   11   13 1   
    18   11   20 1   
    19   12   21 1   
    20   12   22 1   
    21   13   14 1   
    22   13   15 1   
@<TRIPOS>SUBSTRUCTURE
     1 IWD         1 TEMP              0 ****  ****    0 ROOT
