@<TRIPOS>MOLECULE
IWD
   23    23     1     0     0
SMALL
bcc


@<TRIPOS>ATOM
      1 N1         -0.4070    0.3580    0.4770 n         1 IWD     -0.379000
      2 C2          0.3820    1.3990    1.0340 c         1 IWD      0.810500
      3 O2          0.2690    2.5790    0.6150 o         1 IWD     -0.705500
      4 N3          1.3030    1.0820    2.0290 ns        1 IWD     -0.575500
      5 C4          1.5060   -0.2340    2.5070 c         1 IWD      0.727700
      6 O4          2.3460   -0.3890    3.4030 o         1 IWD     -0.571500
      7 C5          0.6900   -1.2780    1.8720 cc        1 IWD     -0.189400
      8 I5          0.9050   -3.2000    2.4140 i         1 IWD     -0.046800
      9 C6         -0.2220   -0.9420    0.9140 cd        1 IWD      0.092600
     10 C7         -1.4840    0.6890   -0.4380 c3        1 IWD      0.086000
     11 C8         -1.0520    0.9950   -1.8720 c3        1 IWD     -0.111500
     12 N8         -0.4700    2.3510   -2.0460 nz        1 IWD     -0.824600
     13 C9         -2.3560    0.8330   -2.8290 c         1 IWD      0.946600
     14 O91        -3.0210   -0.1920   -2.6150 o         1 IWD     -0.747300
     15 O92        -2.4950    1.7570   -3.6640 o         1 IWD     -0.747300
     16 H3          1.8260    1.8350    2.4280 hn        1 IWD      0.360500
     17 H6         -0.8690   -1.7000    0.4220 h4        1 IWD      0.193000
     18 H71        -2.0570    1.5610   -0.0060 h1        1 IWD      0.110700
     19 H72        -2.1930   -0.1940   -0.5090 h1        1 IWD      0.110700
     20 H8         -0.3100    0.2400   -2.2500 hx        1 IWD      0.097700
     21 H81         0.5420    2.3160   -2.1200 hn        1 IWD      0.453800
     22 H82        -0.7170    2.9510   -1.2510 hn        1 IWD      0.453800
     23 H83        -0.8860    2.7430   -2.9180 hn        1 IWD      0.453800
@<TRIPOS>BOND
     1    1    2 1   
     2    1    9 1   
     3    1   10 1   
     4    2    3 2   
     5    2    4 1   
     6    4    5 1   
     7    4   16 1   
     8    5    6 2   
     9    5    7 1   
    10    7    8 1   
    11    7    9 2   
    12    9   17 1   
    13   10   11 1   
    14   10   18 1   
    15   10   19 1   
    16   11   12 1   
    17   11   13 1   
    18   11   20 1   
    19   12   21 1   
    20   12   22 1   
    21   12   23 1   
    22   13   14 1   
    23   13   15 1   
@<TRIPOS>SUBSTRUCTURE
     1 IWD         1 TEMP              0 ****  ****    0 ROOT
