@<TRIPOS>MOLECULE
IWD
   23    23     1     0     0
SMALL
bcc


@<TRIPOS>ATOM
      1 N1         -0.3700    0.3160    0.4560 n         1 IWD     -0.379000
      2 C2          0.3080    1.3960    1.0790 c         1 IWD      0.810500
      3 O2          0.0690    2.5820    0.7350 o         1 IWD     -0.705500
      4 N3          1.2610    1.1160    2.0540 n         1 IWD     -0.575500
      5 C4          1.6040   -0.1990    2.4480 c         1 IWD      0.727700
      6 O4          2.4590   -0.3210    3.3350 o         1 IWD     -0.571500
      7 C5          0.8990   -1.2810    1.7470 cc        1 IWD     -0.189400
      8 I5          1.3170   -3.2000    2.1670 i         1 IWD     -0.046800
      9 C6         -0.0470   -0.9830    0.8100 cd        1 IWD      0.092600
     10 C7         -1.4800    0.5890   -0.4390 c3        1 IWD      0.086000
     11 C8         -1.0900    1.0280   -1.8500 c3        1 IWD     -0.111500
     12 N8         -0.6540    2.4460   -1.9360 n4        1 IWD     -0.824600
     13 C9         -2.3740    0.7910   -2.8180 c         1 IWD      0.946600
     14 O91        -2.9260   -0.3100   -2.6700 o         1 IWD     -0.747300
     15 O92        -2.6120    1.7460   -3.5940 o         1 IWD     -0.747300
     16 H3          1.7040    1.8930    2.5010 hn        1 IWD      0.360500
     17 H6         -0.6140   -1.7720    0.2700 h4        1 IWD      0.193000
     18 H71        -2.1400    1.3670    0.0460 h1        1 IWD      0.110700
     19 H72        -2.0930   -0.3580   -0.5670 h1        1 IWD      0.110700
     20 H8         -0.2740    0.3800   -2.2730 hx        1 IWD      0.097700
     21 H81        -1.1130    2.8460   -2.7830 hn        1 IWD      0.453800
     22 H82        -0.9590    2.9660   -1.1050 hn        1 IWD      0.453800
     23 H83         0.3560    2.5220   -2.0110 hn        1 IWD      0.453800
@<TRIPOS>BOND
     1    1    2 1   
     2    1    9 1   
     3    1   10 1   
     4    2    3 2   
     5    2    4 1   
     6    4    5 1   
     7    4   16 1   
     8    5    6 2   
     9    5    7 1   
    10    7    8 1   
    11    7    9 2   
    12    9   17 1   
    13   10   11 1   
    14   10   18 1   
    15   10   19 1   
    16   11   12 1   
    17   11   13 1   
    18   11   20 1   
    19   12   21 1   
    20   12   22 1   
    21   12   23 1   
    22   13   14 1   
    23   13   15 1   
@<TRIPOS>SUBSTRUCTURE
     1 IWD         1 TEMP              0 ****  ****    0 ROOT
