@<TRIPOS>MOLECULE
IWH
   35    32     1     0     0
SMALL
bcc


@<TRIPOS>ATOM
      1 C1         -4.7710   -2.0790    0.0730 c3        1 IWH     -0.183000
      2 N1          1.1190    0.5110   -0.0740 n3        1 IWH     -0.224000
      3 O1          0.2310   -1.3650    0.9800 o         1 IWH     -0.360000
      4 C2         -3.6120   -1.1020   -0.0010 c2        1 IWH     -0.051000
      5 N2          5.8630    1.3280   -0.9480 n3        1 IWH     -0.430000
      6 O2          4.6910    1.0980   -2.9060 o         1 IWH     -0.394000
      7 C3         -2.6080   -1.2680   -0.9460 c1        1 IWH     -0.138000
      8 C4         -1.4520   -0.5060   -0.8730 c1        1 IWH     -0.112000
      9 C5         -1.2980    0.4200    0.1420 c1        1 IWH     -0.125000
     10 C6         -2.3030    0.5870    1.0900 c2        1 IWH     -0.031000
     11 C7         -3.4590   -0.1780    1.0140 c2        1 IWH     -0.138000
     12 C8         -2.2130    1.7400    2.1070 c3        1 IWH     -0.195000
     13 C9         -0.0700    1.3100    0.1740 c2        1 IWH     -0.005000
     14 C10         2.2740    1.1080   -0.7580 c2        1 IWH      0.090000
     15 C11         3.5280    0.2860   -0.9930 c1        1 IWH     -0.263000
     16 C12         3.5940   -1.1100   -0.5140 c2        1 IWH     -0.016000
     17 C13         2.4380   -1.7060    0.1660 c1        1 IWH     -0.249000
     18 C14         1.1830   -0.8760    0.4020 c1        1 IWH      0.327000
     19 C15         4.7270    0.9080   -1.7020 c1        1 IWH      0.365000
     20 H1         -4.8930   -2.5100   -0.8040 hc        1 IWH      0.086000
     21 H1A        -5.5870   -1.5990    0.3160 hc        1 IWH      0.086000
     22 H1B        -4.5800   -2.7630    0.7500 hc        1 IWH      0.086000
     23 HN2         6.5660    1.7420   -1.3690 hn        1 IWH      0.225500
     24 HN2A        5.8890    1.1890   -0.0430 hn        1 IWH      0.225500
     25 H3         -2.7170   -1.9220   -1.6640 ha        1 IWH      0.136000
     26 H4         -0.7480   -0.6220   -1.5370 ha        1 IWH      0.132000
     27 H7         -4.1690   -0.0620    1.6810 ha        1 IWH      0.135000
     28 H8         -1.3910    1.6580    2.6190 hc        1 IWH      0.094333
     29 H8A        -2.2180    2.6030    1.6280 hc        1 IWH      0.094333
     30 H8B        -2.9830    1.7000    2.7160 hc        1 IWH      0.094333
     31 H9         -0.1500    2.0050   -0.5210 h4        1 IWH      0.123000
     32 H9A         0.0000    1.7320    1.0470 h4        1 IWH      0.123000
     33 H10         2.2300    2.0210   -1.0710 h4        1 IWH      0.185000
     34 H12         4.4060   -1.6450   -0.6660 ha        1 IWH      0.138000
     35 H13         2.4810   -2.6340    0.4850 ha        1 IWH      0.166000
@<TRIPOS>BOND
     1    1    4 1   
     2    1   20 1   
     3    1   21 1   
     4    1   22 1   
     5    2   13 1   
     6    2   14 1   
     7    2   18 1   
     8    3   18 1   
     9    4    7 1   
    10    4   11 1   
    11    5   19 1   
    12    5   23 1   
    13    5   24 1   
    14    6   19 1   
    15    7   25 1   
    16    8    9 1   
    17    8   26 1   
    18    9   10 1   
    19   10   11 1   
    20   10   12 1   
    21   11   27 1   
    22   12   28 1   
    23   12   29 1   
    24   12   30 1   
    25   13   31 1   
    26   13   32 1   
    27   14   15 1   
    28   14   33 1   
    29   15   16 1   
    30   16   17 1   
    31   16   34 1   
    32   17   35 1   
@<TRIPOS>SUBSTRUCTURE
     1 IWH         1 TEMP              0 ****  ****    0 ROOT
