@<TRIPOS>MOLECULE
IWH
   36    35     1     0     0
SMALL
bcc


@<TRIPOS>ATOM
      1 C1          0.2440   -1.0750   -1.3430 c3        1 IWH     -0.198000
      2 N1          7.0960   -1.0640   -0.2210 n4        1 IWH     -0.022000
      3 C2          1.6030   -0.5520   -1.5810 c2        1 IWH     -0.123000
      4 N2          6.9560   -4.1630   -4.1140 n4        1 IWH     -0.164000
      5 O2          6.9170   -1.8940   -4.4920 o         1 IWH     -0.199000
      6 C3          3.6570    0.2370    2.5600 c2        1 IWH     -0.138000
      7 C4          4.2210    0.0750    1.4050 c1        1 IWH     -0.120000
      8 C5          4.7850   -0.0570    0.2230 c2        1 IWH     -0.079000
      9 C6          3.9920   -0.2790   -0.9920 c2        1 IWH     -0.044000
     10 C7          2.6440   -0.7950   -0.7740 c2        1 IWH     -0.167000
     11 C8          4.4590   -0.0080   -2.2230 c2        1 IWH     -0.199000
     12 C9          6.2640    0.1530    0.1170 c3        1 IWH     -0.034000
     13 C10         7.0050   -1.3630   -1.6310 c1        1 IWH     -0.093000
     14 C11         6.9020   -2.6200   -2.1520 c2        1 IWH     -0.419000
     15 C12         4.7790   -3.6460    0.7670 c1        1 IWH     -0.011000
     16 C13         5.7560   -2.9540    0.7420 c1        1 IWH     -0.252000
     17 C14         6.9290   -2.1610    0.7980 c2        1 IWH      0.333000
     18 C15         6.9190   -2.7100   -3.5840 c2        1 IWH      0.353000
     19 H1         -0.4710   -0.2240   -1.2050 hc        1 IWH      0.090333
     20 H1A        -0.0980   -1.6720   -2.2260 hc        1 IWH      0.090333
     21 H1B         0.1950   -1.7250   -0.4350 hc        1 IWH      0.090333
     22 HN2         6.1230   -4.6650   -3.8080 hn        1 IWH      0.248333
     23 HN2A        6.9890   -4.1540   -5.1380 hn        1 IWH      0.248333
     24 H3          3.4600   -0.6000    3.2490 ha        1 IWH      0.158500
     25 H4          3.3370    1.2290    2.9210 ha        1 IWH      0.158500
     26 H7          1.7110    0.0800   -2.4800 ha        1 IWH      0.129000
     27 H8          2.5140   -1.4030    0.1390 ha        1 IWH      0.121000
     28 H8A         5.4680    0.3770   -2.4240 ha        1 IWH      0.133000
     29 H8B         3.8400   -0.1670   -3.1170 ha        1 IWH      0.133000
     30 H9          6.4750    0.9130   -0.6930 hx        1 IWH      0.146000
     31 H9A         6.6680    0.5340    1.1000 hx        1 IWH      0.146000
     32 H10         8.0820   -0.7410   -0.1310 hn        1 IWH      0.266000
     33 H12         6.7960   -3.5480   -1.5680 ha        1 IWH      0.122000
     34 H13         3.9050   -4.2570    0.7900 ha        1 IWH      0.252000
     35 O1          7.8510   -2.3070    1.6010 o         1 IWH     -0.205000
     36 H23         7.7830   -4.6390   -3.7530 hn        1 IWH      0.248333
@<TRIPOS>BOND
     1    1    3 1   
     2    1   19 1   
     3    1   20 1   
     4    1   21 1   
     5    2   12 1   
     6    2   13 1   
     7    2   17 1   
     8    2   32 1   
     9    3   10 1   
    10    3   26 1   
    11    4   18 1   
    12    4   22 1   
    13    4   23 1   
    14    4   36 1   
    15    5   18 1   
    16    6    7 1   
    17    6   24 1   
    18    6   25 1   
    19    7    8 1   
    20    8    9 1   
    21    8   12 1   
    22    9   10 1   
    23    9   11 1   
    24   10   27 1   
    25   11   28 1   
    26   11   29 1   
    27   12   30 1   
    28   12   31 1   
    29   13   14 1   
    30   14   18 1   
    31   14   33 1   
    32   15   16 1   
    33   15   34 1   
    34   16   17 1   
    35   17   35 1   
@<TRIPOS>SUBSTRUCTURE
     1 IWH         1 TEMP              0 ****  ****    0 ROOT
