@<TRIPOS>MOLECULE
IWH
   36    36     1     0     0
SMALL
bcc


@<TRIPOS>ATOM
      1 C1          0.7680    0.5990    0.1530 c3        1 IWH     -0.222000
      2 N1          6.8570   -0.7090   -0.4190 n4        1 IWH     -0.026000
      3 C2          1.7160   -0.5180    0.1660 c2        1 IWH     -0.015000
      4 N2          7.9410   -4.3080   -3.6680 n4        1 IWH     -0.164000
      5 O2          6.9990   -2.3590   -4.4490 o         1 IWH     -0.202000
      6 C3          2.4270   -0.8760    1.3910 c3        1 IWH     -0.063000
      7 C4          3.7480   -0.3960    0.9670 c1        1 IWH     -0.196000
      8 C5          4.3430   -0.2930   -0.2160 c2        1 IWH     -0.198000
      9 C6          3.5780   -0.6250   -1.4330 c2        1 IWH     -0.082000
     10 C7          2.1710   -1.0850   -1.1260 c3        1 IWH     -0.132000
     11 C8          4.0350   -0.5590   -2.6860 c2        1 IWH     -0.220000
     12 C9          5.7080    0.2790   -0.3250 c3        1 IWH      0.002000
     13 C10         6.9230   -1.2760   -1.7420 c1        1 IWH     -0.101000
     14 C11         7.2170   -2.5790   -2.0190 c2        1 IWH     -0.422000
     15 C12         5.3520   -3.6760    0.9870 c1        1 IWH     -0.034000
     16 C13         6.0660   -2.7250    0.8520 c1        1 IWH     -0.231000
     17 C14         6.9280   -1.6010    0.7920 c2        1 IWH      0.342000
     18 C15         7.3060   -2.9190   -3.4090 c2        1 IWH      0.354000
     19 H1         -0.1320    0.3190   -0.4550 hc        1 IWH      0.117333
     20 H1A         1.2270    1.5060   -0.3250 hc        1 IWH      0.117333
     21 H1B         0.4310    0.8760    1.1830 hc        1 IWH      0.117333
     22 HN2         7.3750   -5.0360   -3.2320 hn        1 IWH      0.247667
     23 HN2A        7.9970   -4.4790   -4.6760 hn        1 IWH      0.247667
     24 H3          2.4950   -1.9780    1.6020 hc        1 IWH      0.147500
     25 H4          2.0410   -0.3650    2.3110 hc        1 IWH      0.147500
     26 H7          2.1710   -2.2090   -1.0750 hc        1 IWH      0.116000
     27 H8          1.4790   -0.7790   -1.9560 hc        1 IWH      0.116000
     28 H8A         3.4040   -0.8140   -3.5480 ha        1 IWH      0.137500
     29 H8B         5.0640   -0.2580   -2.9330 ha        1 IWH      0.137500
     30 H9          5.7810    0.9210   -1.2520 hx        1 IWH      0.144000
     31 H9A         5.9250    0.9010    0.5940 hx        1 IWH      0.144000
     32 H10         7.7110   -0.1160   -0.3840 hn        1 IWH      0.262000
     33 H12         7.3810   -3.3730   -1.2740 ha        1 IWH      0.121000
     34 H13         4.7180   -4.5240    1.1090 ha        1 IWH      0.248000
     35 O1          7.7670   -1.3030    1.6430 o         1 IWH     -0.206000
     36 H23         8.8790   -4.3330   -3.2670 hn        1 IWH      0.247667
@<TRIPOS>BOND
     1    1    3 1   
     2    1   19 1   
     3    1   20 1   
     4    1   21 1   
     5    2   12 1   
     6    2   13 1   
     7    2   17 1   
     8    2   32 1   
     9    3    6 1   
    10    3   10 1   
    11    4   18 1   
    12    4   22 1   
    13    4   23 1   
    14    4   36 1   
    15    5   18 1   
    16    6    7 1   
    17    6   24 1   
    18    6   25 1   
    19    7    8 1   
    20    8    9 1   
    21    8   12 1   
    22    9   10 1   
    23    9   11 1   
    24   10   26 1   
    25   10   27 1   
    26   11   28 1   
    27   11   29 1   
    28   12   30 1   
    29   12   31 1   
    30   13   14 1   
    31   14   18 1   
    32   14   33 1   
    33   15   16 1   
    34   15   34 1   
    35   16   17 1   
    36   17   35 1   
@<TRIPOS>SUBSTRUCTURE
     1 IWH         1 TEMP              0 ****  ****    0 ROOT
