@<TRIPOS>MOLECULE
IWH
   36    35     1     0     0
SMALL
bcc


@<TRIPOS>ATOM
      1 C1          0.7020   -2.1630   -0.7420 c2        1 IWH     -0.059000
      2 N1          6.8970   -1.1270   -0.3760 nx        1 IWH     -0.043000
      3 C2          1.6870   -1.5310   -1.4060 c2        1 IWH     -0.242000
      4 N2          7.2630   -4.8940   -3.5630 nz        1 IWH     -0.164000
      5 O2          6.3320   -2.9310   -4.3250 o         1 IWH     -0.205000
      6 C3          3.7040    1.1200    2.1140 c2        1 IWH     -0.138000
      7 C4          4.2190    0.6470    1.0230 c1        1 IWH     -0.127000
      8 C5          4.7290    0.1830   -0.0920 c2        1 IWH     -0.083000
      9 C6          3.8760   -0.2860   -1.2370 c3        1 IWH     -0.101000
     10 C7          2.9620   -1.3450   -0.8110 c1        1 IWH     -0.088000
     11 C8          3.2510    0.9080   -1.9380 c3        1 IWH     -0.220000
     12 C9          6.2100    0.2150   -0.3070 c3        1 IWH     -0.028000
     13 C10         6.7230   -1.6940   -1.7030 c1        1 IWH     -0.098000
     14 C11         6.9140   -3.0260   -1.9480 c2        1 IWH     -0.432000
     15 C12         4.1120   -2.9880    0.6700 c1        1 IWH      0.107000
     16 C13         5.2450   -2.5900    0.7390 c1        1 IWH     -0.347000
     17 C14         6.5270   -2.0180    0.7960 c2        1 IWH      0.380000
     18 C15         6.7650   -3.4500   -3.3080 c2        1 IWH      0.354000
     19 H1          1.4980   -1.1540   -2.4310 ha        1 IWH      0.125000
     20 H1A         0.8320   -2.5440    0.2820 ha        1 IWH      0.127000
     21 H1B        -0.3020   -2.2920   -1.1710 ha        1 IWH      0.127000
     22 HN2         6.7330   -5.5500   -2.9900 hn        1 IWH      0.248333
     23 HN2A        7.1410   -5.1310   -4.5520 hn        1 IWH      0.248333
     24 H3          3.4770    0.4820    2.9830 ha        1 IWH      0.155000
     25 H4          3.4640    2.1890    2.2360 ha        1 IWH      0.155000
     26 H7          4.5540   -0.8160   -1.9930 hc        1 IWH      0.167000
     27 H8          2.7420    0.5850   -2.8780 hc        1 IWH      0.087000
     28 H8A         4.0370    1.6560   -2.2030 hc        1 IWH      0.087000
     29 H8B         2.5000    1.4040   -1.2780 hc        1 IWH      0.087000
     30 H9          6.4190    0.7300   -1.2920 hx        1 IWH      0.141000
     31 H9A         6.7100    0.7780    0.5330 hx        1 IWH      0.141000
     32 H10         7.9090   -0.9220   -0.2910 hn        1 IWH      0.243000
     33 H12         7.1600   -3.7860   -1.1880 ha        1 IWH      0.123000
     34 H13         3.1220   -3.3800    0.6380 ha        1 IWH      0.247000
     35 O1          7.3930   -2.1590    1.6570 o         1 IWH     -0.222000
     36 H23         8.2510   -4.9620   -3.3170 hn        1 IWH      0.248333
@<TRIPOS>BOND
     1    1    3 1   
     2    1   20 1   
     3    1   21 1   
     4    2   12 1   
     5    2   13 1   
     6    2   17 1   
     7    2   32 1   
     8    3   10 1   
     9    3   19 1   
    10    4   18 1   
    11    4   22 1   
    12    4   23 1   
    13    4   36 1   
    14    5   18 1   
    15    6    7 1   
    16    6   24 1   
    17    6   25 1   
    18    7    8 1   
    19    8    9 1   
    20    8   12 1   
    21    9   10 1   
    22    9   11 1   
    23    9   26 1   
    24   11   27 1   
    25   11   28 1   
    26   11   29 1   
    27   12   30 1   
    28   12   31 1   
    29   13   14 1   
    30   14   18 1   
    31   14   33 1   
    32   15   16 1   
    33   15   34 1   
    34   16   17 1   
    35   17   35 1   
@<TRIPOS>SUBSTRUCTURE
     1 IWH         1 TEMP              0 ****  ****    0 ROOT
