@<TRIPOS>MOLECULE
IWH
   35    36     1     0     0
SMALL
bcc


@<TRIPOS>ATOM
      1 C1         -4.9920    1.1960   -1.5970 c3        1 IWH     -0.056800
      2 N1          0.7280   -0.8760    0.7690 n         1 IWH     -0.331000
      3 C2         -3.8320    0.7620   -0.7860 ca        1 IWH     -0.061300
      4 N2          4.5420    0.9400   -1.6400 n         1 IWH     -0.670000
      5 O2          3.5300    2.0980    0.0260 o         1 IWH     -0.634100
      6 C3         -3.3850   -0.5640   -0.8420 ca        1 IWH     -0.138000
      7 C4         -2.2870   -0.9620   -0.0880 ca        1 IWH     -0.101000
      8 C5         -1.6140   -0.0470    0.7320 ca        1 IWH     -0.129300
      9 C6         -2.0540    1.2840    0.7980 ca        1 IWH     -0.055300
     10 C7         -3.1630    1.6730    0.0370 ca        1 IWH     -0.136000
     11 C8         -1.3860    2.2880    1.6600 c3        1 IWH     -0.058800
     12 C9         -0.4580   -0.5480    1.5480 c3        1 IWH      0.121300
     13 C10         1.6050    0.1130    0.4170 cc        1 IWH      0.092600
     14 C11         2.7480   -0.1260   -0.3290 cd        1 IWH     -0.282200
     15 C12         3.0320   -1.4640   -0.7400 cd        1 IWH     -0.016000
     16 C13         2.1750   -2.4670   -0.4170 cc        1 IWH     -0.267200
     17 C14         0.9530   -2.2180    0.3460 c         1 IWH      0.688700
     18 C15         3.6190    1.0330   -0.6260 c         1 IWH      0.690300
     19 H1         -4.6470    1.5120   -2.6150 hc        1 IWH      0.046033
     20 H1A        -5.7270    0.3630   -1.7210 hc        1 IWH      0.046033
     21 H1B        -5.5150    2.0620   -1.1210 hc        1 IWH      0.046033
     22 HN2         5.0970    1.7300   -1.8550 hn        1 IWH      0.312000
     23 HN2A        4.5670    0.1600   -2.2430 hn        1 IWH      0.312000
     24 H3         -3.9060   -1.2910   -1.4820 ha        1 IWH      0.136000
     25 H4         -1.9360   -2.0080   -0.1260 ha        1 IWH      0.157000
     26 H7         -3.5150    2.7150    0.0870 ha        1 IWH      0.133000
     27 H8         -0.2980    2.3650    1.4100 hc        1 IWH      0.046700
     28 H8A        -1.8420    3.3000    1.5280 hc        1 IWH      0.046700
     29 H8B        -1.4820    2.0030    2.7380 hc        1 IWH      0.046700
     30 H9         -0.7810   -1.4930    2.0820 h1        1 IWH      0.082200
     31 H9A        -0.1660    0.2130    2.3270 h1        1 IWH      0.082200
     32 H10         1.3740    1.1430    0.7650 h4        1 IWH      0.184000
     33 H12         3.9520   -1.6840   -1.3030 ha        1 IWH      0.137000
     34 H13         2.3420   -3.5140   -0.7050 ha        1 IWH      0.166000
     35 O1          0.1230   -3.0980    0.6450 o         1 IWH     -0.634500
@<TRIPOS>BOND
     1    1    3 1   
     2    1   19 1   
     3    1   20 1   
     4    1   21 1   
     5    2   12 1   
     6    2   13 1   
     7    2   17 1   
     8    3    6 ar  
     9    3   10 ar  
    10    4   18 1   
    11    4   22 1   
    12    4   23 1   
    13    5   18 2   
    14    6    7 ar  
    15    6   24 1   
    16    7    8 ar  
    17    7   25 1   
    18    8    9 ar  
    19    8   12 1   
    20    9   10 ar  
    21    9   11 1   
    22   10   26 1   
    23   11   27 1   
    24   11   28 1   
    25   11   29 1   
    26   12   30 1   
    27   12   31 1   
    28   13   14 2   
    29   13   32 1   
    30   14   15 1   
    31   14   18 1   
    32   15   16 2   
    33   15   33 1   
    34   16   17 1   
    35   16   34 1   
    36   17   35 2   
@<TRIPOS>SUBSTRUCTURE
     1 IWH         1 TEMP              0 ****  ****    0 ROOT
