@<TRIPOS>MOLECULE
IWR
   50    55     1     0     0
SMALL
bcc


@<TRIPOS>ATOM
      1 CAF        -0.0160   -0.3230    0.0010 ca        1 IWR      0.361600
      2 NAG         1.3320   -0.5640   -0.1940 nb        1 IWR     -0.679000
      3 CAH         2.1140   -0.6660    0.8630 ca        1 IWR      0.411200
      4 CAI         1.6580   -0.5450    2.2140 ca        1 IWR     -0.246300
      5 CAJ         0.3250   -0.3070    2.4270 ca        1 IWR     -0.082000
      6 CAA        -0.5600   -0.1870    1.3140 ca        1 IWR     -0.121300
      7 CAB        -1.9400    0.0630    1.4990 ca        1 IWR     -0.148000
      8 CAC        -2.7660    0.1740    0.4090 ca        1 IWR     -0.093000
      9 CAD        -2.2660    0.0400   -0.9010 ca        1 IWR     -0.167000
     10 CAE        -0.9160   -0.2030   -1.1420 ca        1 IWR      0.035300
     11 NAK        -0.3880   -0.3510   -2.4310 ns        1 IWR     -0.457100
     12 CAL        -1.0130   -0.0440   -3.6340 c         1 IWR      0.680700
     13 OAM        -2.1960    0.3360   -3.7120 o         1 IWR     -0.589100
     14 CAN        -0.1850   -0.2290   -4.8620 ca        1 IWR     -0.158600
     15 CAS        -0.8000   -0.7650   -5.9980 ca        1 IWR     -0.077000
     16 CAO        -0.0800   -0.9520   -7.1720 ca        1 IWR     -0.147000
     17 CAR         1.1600    0.1430   -4.9190 ca        1 IWR     -0.077000
     18 CAQ         1.8900   -0.0260   -6.0910 ca        1 IWR     -0.147000
     19 CAP         1.2830   -0.5860   -7.2370 ca        1 IWR      0.077600
     20 NAT         2.0250   -0.7700   -8.4260 n         1 IWR     -0.425600
     21 CAW         1.4650   -0.7480   -9.7350 c         1 IWR      0.718500
     22 OBE         0.2770   -0.5400   -9.9910 o         1 IWR     -0.572000
     23 CAV         2.5670   -0.9820  -10.7590 c3        1 IWR     -0.147700
     24 CBB         2.4490   -2.3120  -11.5470 c3        1 IWR     -0.032500
     25 CBC         3.9660   -2.5780  -11.8280 c3        1 IWR     -0.083400
     26 CBA         2.1840   -3.4080  -10.5230 c2        1 IWR     -0.177700
     27 CAZ         3.3110   -3.5730   -9.7910 c2        1 IWR     -0.177700
     28 CAY         4.3530   -2.5910  -10.3110 c3        1 IWR     -0.032500
     29 CAU         3.8690   -1.1730   -9.9150 c3        1 IWR     -0.147700
     30 CAX         3.4230   -1.0310   -8.4670 c         1 IWR      0.718500
     31 OBD         4.1560   -1.1020   -7.4780 o         1 IWR     -0.572000
     32 H1          3.1840   -0.8580    0.6620 h4        1 IWR      0.022100
     33 H2          2.3750   -0.6450    3.0380 ha        1 IWR      0.145000
     34 H3         -0.0860   -0.2050    3.4420 ha        1 IWR      0.140000
     35 H4         -2.3300    0.1670    2.5220 ha        1 IWR      0.135000
     36 H5         -3.8420    0.3690    0.5400 ha        1 IWR      0.138000
     37 H6         -2.9800    0.1390   -1.7360 ha        1 IWR      0.178000
     38 H7          0.5640   -0.6490   -2.4880 hn        1 IWR      0.341500
     39 H8         -1.8690   -1.0320   -5.9590 ha        1 IWR      0.151000
     40 H9         -0.5930   -1.3690   -8.0550 ha        1 IWR      0.162500
     41 H10         1.6590    0.5940   -4.0470 ha        1 IWR      0.151000
     42 H11         2.9530    0.2690   -6.1070 ha        1 IWR      0.162500
     43 H12         2.6230   -0.1110  -11.4540 hc        1 IWR      0.100700
     44 H13         1.7690   -2.2770  -12.4170 hc        1 IWR      0.093700
     45 H14         4.4570   -1.7640  -12.4020 hc        1 IWR      0.062700
     46 H15         4.1440   -3.5560  -12.3240 hc        1 IWR      0.062700
     47 H17         1.2280   -3.9200  -10.4470 ha        1 IWR      0.158500
     48 H18         3.5080   -4.2520   -8.9650 ha        1 IWR      0.158500
     49 H20         5.4050   -2.8100  -10.0570 hc        1 IWR      0.093700
     50 H21         4.6490   -0.4080  -10.1420 hc        1 IWR      0.100700
@<TRIPOS>BOND
     1    1    2 ar  
     2    1    6 ar  
     3    1   10 ar  
     4    2    3 ar  
     5    3    4 ar  
     6    3   32 1   
     7    4    5 ar  
     8    4   33 1   
     9    5    6 ar  
    10    5   34 1   
    11    6    7 ar  
    12    7    8 ar  
    13    7   35 1   
    14    8    9 ar  
    15    8   36 1   
    16    9   10 ar  
    17    9   37 1   
    18   10   11 1   
    19   11   12 1   
    20   11   38 1   
    21   12   13 2   
    22   12   14 1   
    23   14   15 ar  
    24   14   17 ar  
    25   15   16 ar  
    26   15   39 1   
    27   16   19 ar  
    28   16   40 1   
    29   17   18 ar  
    30   17   41 1   
    31   18   19 ar  
    32   18   42 1   
    33   19   20 1   
    34   20   21 1   
    35   20   30 1   
    36   21   22 2   
    37   21   23 1   
    38   23   24 1   
    39   23   29 1   
    40   23   43 1   
    41   24   25 1   
    42   24   26 1   
    43   24   44 1   
    44   25   28 1   
    45   25   45 1   
    46   25   46 1   
    47   26   27 2   
    48   26   47 1   
    49   27   28 1   
    50   27   48 1   
    51   28   29 1   
    52   28   49 1   
    53   29   30 1   
    54   29   50 1   
    55   30   31 2   
@<TRIPOS>SUBSTRUCTURE
     1 IWR         1 TEMP              0 ****  ****    0 ROOT
