@<TRIPOS>MOLECULE
IWR
   51    56     1     0     0
SMALL
bcc


@<TRIPOS>ATOM
      1 CAF         0.1740    0.2130   -0.7100 ca        1 IWR      0.408600
      2 NAG         1.1920    1.1360   -0.8580 nb        1 IWR     -0.731000
      3 CAH         2.2380    1.0440   -0.0550 ca        1 IWR      0.470200
      4 CAI         2.3810    0.0430    0.9600 ca        1 IWR     -0.232300
      5 CAJ         1.3810   -0.8820    1.1150 ca        1 IWR     -0.054000
      6 CAA         0.2290   -0.8220    0.2720 ca        1 IWR     -0.143300
      7 CAB        -0.8380   -1.7450    0.3950 ca        1 IWR     -0.042000
      8 CAC        -1.9400   -1.6520   -0.4230 ca        1 IWR     -0.133000
      9 CAD        -2.0280   -0.6390   -1.3980 ca        1 IWR     -0.055000
     10 CAE        -0.9960    0.2760   -1.5500 ca        1 IWR     -0.108700
     11 NAK        -1.1030    1.3490   -2.5430 n4        1 IWR     -0.539200
     12 CAL        -1.6200    0.8570   -3.8900 c         1 IWR      0.586700
     13 OAM        -2.8380    0.9410   -4.0110 o         1 IWR     -0.459100
     14 CAN        -0.6410    0.4120   -4.8650 ca        1 IWR     -0.238600
     15 CAS        -1.0840    0.2800   -6.1960 ca        1 IWR     -0.037500
     16 CAO        -0.2200   -0.1410   -7.1930 ca        1 IWR     -0.166000
     17 CAR         0.6920    0.0950   -4.5590 ca        1 IWR     -0.037500
     18 CAQ         1.5630   -0.3260   -5.5480 ca        1 IWR     -0.166000
     19 CAP         1.1320   -0.4530   -6.8970 ca        1 IWR      0.161600
     20 NAT         2.0150   -0.8700   -7.9000 n         1 IWR     -0.440600
     21 CAW         1.8510   -0.5900   -9.2980 c         1 IWR      0.723500
     22 OBE         0.9330    0.0870   -9.7590 o         1 IWR     -0.559000
     23 CAV         2.9970   -1.2120  -10.0750 c3        1 IWR     -0.143200
     24 CBB         2.5830   -2.3650  -11.0270 c3        1 IWR     -0.032500
     25 CBC         3.9090   -3.1990  -11.0060 c3        1 IWR     -0.080400
     26 CBA         1.6830   -3.2960  -10.2260 c2        1 IWR     -0.180200
     27 CAZ         2.4490   -3.9140   -9.2950 c2        1 IWR     -0.180200
     28 CAY         3.8770   -3.4090   -9.4550 c3        1 IWR     -0.032500
     29 CAU         3.8810   -1.9260   -9.0010 c3        1 IWR     -0.143200
     30 CAX         3.1870   -1.6650   -7.6760 c         1 IWR      0.723500
     31 OBD         3.5580   -2.0460   -6.5660 o         1 IWR     -0.559000
     32 H1          3.0340    1.8020   -0.1990 h4        1 IWR      0.047100
     33 H2          3.2840    0.0380    1.5880 ha        1 IWR      0.174000
     34 H3          1.4410   -1.6740    1.8780 ha        1 IWR      0.165000
     35 H4         -0.7700   -2.5380    1.1600 ha        1 IWR      0.167000
     36 H5         -2.7740   -2.3680   -0.3280 ha        1 IWR      0.172000
     37 H6         -2.9340   -0.5910   -2.0300 ha        1 IWR      0.171000
     38 H7         -1.7600    2.0510   -2.1750 hn        1 IWR      0.471300
     39 H8         -2.1350    0.5110   -6.4460 ha        1 IWR      0.156000
     40 H9         -0.6040   -0.2220   -8.2260 ha        1 IWR      0.188000
     41 H10         1.0750    0.1540   -3.5270 ha        1 IWR      0.156000
     42 H11         2.6030   -0.5730   -5.2690 ha        1 IWR      0.188000
     43 H12         3.5470   -0.4150  -10.6310 hc        1 IWR      0.112200
     44 H13         2.2040   -2.0380  -12.0120 hc        1 IWR      0.102700
     45 H14         3.8210   -4.1530  -11.5680 hc        1 IWR      0.071700
     46 H15         4.7950   -2.6290  -11.3570 hc        1 IWR      0.071700
     47 H17         0.6200   -3.4030  -10.4310 ha        1 IWR      0.161000
     48 H18         2.1680   -4.6520   -8.5460 ha        1 IWR      0.161000
     49 H20         4.6730   -4.0320   -9.0100 hc        1 IWR      0.102700
     50 H21         4.9230   -1.5260   -8.9600 hc        1 IWR      0.112200
     51 HAK2       -0.1850    1.7940   -2.6810 hn        1 IWR      0.471300
@<TRIPOS>BOND
     1    1    2 ar  
     2    1    6 ar  
     3    1   10 ar  
     4    2    3 ar  
     5    3    4 ar  
     6    3   32 1   
     7    4    5 ar  
     8    4   33 1   
     9    5    6 ar  
    10    5   34 1   
    11    6    7 ar  
    12    7    8 ar  
    13    7   35 1   
    14    8    9 ar  
    15    8   36 1   
    16    9   10 ar  
    17    9   37 1   
    18   10   11 1   
    19   11   12 1   
    20   11   38 1   
    21   11   51 1   
    22   12   13 2   
    23   12   14 1   
    24   14   15 ar  
    25   14   17 ar  
    26   15   16 ar  
    27   15   39 1   
    28   16   19 ar  
    29   16   40 1   
    30   17   18 ar  
    31   17   41 1   
    32   18   19 ar  
    33   18   42 1   
    34   19   20 1   
    35   20   21 1   
    36   20   30 1   
    37   21   22 2   
    38   21   23 1   
    39   23   24 1   
    40   23   29 1   
    41   23   43 1   
    42   24   25 1   
    43   24   26 1   
    44   24   44 1   
    45   25   28 1   
    46   25   45 1   
    47   25   46 1   
    48   26   27 2   
    49   26   47 1   
    50   27   28 1   
    51   27   48 1   
    52   28   29 1   
    53   28   49 1   
    54   29   30 1   
    55   29   50 1   
    56   30   31 2   
@<TRIPOS>SUBSTRUCTURE
     1 IWR         1 TEMP              0 ****  ****    0 ROOT
