@<TRIPOS>MOLECULE
IWR
   50    55     1     0     0
SMALL
bcc


@<TRIPOS>ATOM
      1 CAF         5.3830   -0.3970   -0.2260 ca        1 IWR      0.361600
      2 NAG         4.8510   -1.5920   -0.6740 nb        1 IWR     -0.679000
      3 CAH         5.6770   -2.5680   -0.9990 ca        1 IWR      0.411200
      4 CAI         7.1020   -2.4720   -0.9200 ca        1 IWR     -0.246300
      5 CAJ         7.6480   -1.2950   -0.4780 ca        1 IWR     -0.082000
      6 CAA         6.7940   -0.2120   -0.1140 ca        1 IWR     -0.121300
      7 CAB         7.3250    1.0150    0.3500 ca        1 IWR     -0.148000
      8 CAC         6.4780    2.0380    0.6930 ca        1 IWR     -0.093000
      9 CAD         5.0800    1.8940    0.5910 ca        1 IWR     -0.167000
     10 CAE         4.5030    0.7080    0.1450 ca        1 IWR      0.035300
     11 NAK         3.1190    0.5340    0.0220 n         1 IWR     -0.457100
     12 CAL         2.1210    1.3590    0.5290 c         1 IWR      0.680700
     13 OAM         2.3540    2.4380    1.1060 o         1 IWR     -0.589100
     14 CAN         0.7200    0.8910    0.3120 ca        1 IWR     -0.158600
     15 CAS        -0.2480    1.8430   -0.0230 ca        1 IWR     -0.077000
     16 CAO        -1.5730    1.4680   -0.2170 ca        1 IWR     -0.147000
     17 CAR         0.3470   -0.4460    0.4670 ca        1 IWR     -0.077000
     18 CAQ        -0.9740   -0.8370    0.2740 ca        1 IWR     -0.147000
     19 CAP        -1.9580    0.1160   -0.0750 ca        1 IWR      0.077600
     20 NAT        -3.3000   -0.2770   -0.2770 n         1 IWR     -0.425600
     21 CAW        -4.2090    0.3890   -1.1460 c         1 IWR      0.718500
     22 OBE        -3.9250    1.3560   -1.8560 o         1 IWR     -0.572000
     23 CAV        -5.5630   -0.3050   -1.0900 c3        1 IWR     -0.147700
     24 CBB        -6.7030    0.5440   -0.4710 c3        1 IWR     -0.032500
     25 CBC        -7.5820   -0.6060    0.1270 c3        1 IWR     -0.083400
     26 CBA        -6.1550    1.1420    0.8180 c2        1 IWR     -0.177700
     27 CAZ        -5.9920    0.1340    1.7070 c2        1 IWR     -0.177700
     28 CAY        -6.4290   -1.1590    1.0310 c3        1 IWR     -0.032500
     29 CAU        -5.3770   -1.4700   -0.0630 c3        1 IWR     -0.147700
     30 CAX        -3.9290   -1.3630    0.3940 c         1 IWR      0.718500
     31 OBD        -3.3710   -2.1140    1.1980 o         1 IWR     -0.572000
     32 H1          5.2100   -3.5060   -1.3520 h4        1 IWR      0.021100
     33 H2          7.7200   -3.3320   -1.2100 ha        1 IWR      0.145000
     34 H3          8.7370   -1.1610   -0.3960 ha        1 IWR      0.140000
     35 H4          8.4160    1.1270    0.4280 ha        1 IWR      0.135000
     36 H5          6.8780    2.9980    1.0560 ha        1 IWR      0.138000
     37 H6          4.4520    2.7540    0.8810 ha        1 IWR      0.178000
     38 H7          2.8160   -0.3060   -0.4240 hn        1 IWR      0.341500
     39 H8          0.0440    2.9020   -0.1200 ha        1 IWR      0.151000
     40 H9         -2.3130    2.2360   -0.4950 ha        1 IWR      0.163000
     41 H10         1.0870   -1.2080    0.7580 ha        1 IWR      0.151000
     42 H11        -1.2450   -1.8960    0.4170 ha        1 IWR      0.163000
     43 H12        -5.8410   -0.6650   -2.1090 hc        1 IWR      0.100200
     44 H13        -7.1900    1.2450   -1.1710 hc        1 IWR      0.093700
     45 H14        -8.4420   -0.2230    0.7160 hc        1 IWR      0.062700
     46 H15        -7.9340   -1.3330   -0.6340 hc        1 IWR      0.062700
     47 H17        -5.9470    2.2040    0.9290 ha        1 IWR      0.158500
     48 H18        -5.6170    0.1640    2.7280 ha        1 IWR      0.158500
     49 H20        -6.6690   -2.0060    1.6980 hc        1 IWR      0.093700
     50 H21        -5.5530   -2.4760   -0.5120 hc        1 IWR      0.100200
@<TRIPOS>BOND
     1    1    2 ar  
     2    1    6 ar  
     3    1   10 ar  
     4    2    3 ar  
     5    3    4 ar  
     6    3   32 1   
     7    4    5 ar  
     8    4   33 1   
     9    5    6 ar  
    10    5   34 1   
    11    6    7 ar  
    12    7    8 ar  
    13    7   35 1   
    14    8    9 ar  
    15    8   36 1   
    16    9   10 ar  
    17    9   37 1   
    18   10   11 1   
    19   11   12 1   
    20   11   38 1   
    21   12   13 2   
    22   12   14 1   
    23   14   15 ar  
    24   14   17 ar  
    25   15   16 ar  
    26   15   39 1   
    27   16   19 ar  
    28   16   40 1   
    29   17   18 ar  
    30   17   41 1   
    31   18   19 ar  
    32   18   42 1   
    33   19   20 1   
    34   20   21 1   
    35   20   30 1   
    36   21   22 2   
    37   21   23 1   
    38   23   24 1   
    39   23   29 1   
    40   23   43 1   
    41   24   25 1   
    42   24   26 1   
    43   24   44 1   
    44   25   28 1   
    45   25   45 1   
    46   25   46 1   
    47   26   27 2   
    48   26   47 1   
    49   27   28 1   
    50   27   48 1   
    51   28   29 1   
    52   28   49 1   
    53   29   30 1   
    54   29   50 1   
    55   30   31 2   
@<TRIPOS>SUBSTRUCTURE
     1 IWR         1 TEMP              0 ****  ****    0 ROOT
