@<TRIPOS>MOLECULE
IWR
   50    42     1     0     0
SMALL
bcc


@<TRIPOS>ATOM
      1 CAF        -3.2800    0.4570    4.5790 c1        1 IWR     -0.032000
      2 NAG        -3.9360   -0.3990    3.6970 n2        1 IWR     -0.153000
      3 CAH        -5.2070   -0.8420    3.9880 c1        1 IWR     -0.055000
      4 CAI        -5.8330   -0.4360    5.1570 c1        1 IWR     -0.123500
      5 CAJ        -5.1880    0.4060    6.0230 c1        1 IWR     -0.123500
      6 CAA        -3.9040    0.8560    5.7330 c1        1 IWR     -0.056000
      7 CAB        -3.2430    1.7510    6.6380 c1        1 IWR     -0.123500
      8 CAC        -1.9670    2.2190    6.3490 c1        1 IWR     -0.123500
      9 CAD        -1.3250    1.8180    5.1760 c1        1 IWR     -0.126333
     10 CAE        -1.9740    0.9350    4.2810 c1        1 IWR      0.018333
     11 NAK        -1.2470    0.4530    3.0580 n2        1 IWR     -0.311000
     12 CAL        -0.1050    1.2040    2.5460 c1        1 IWR      0.354000
     13 OAM         0.2470    2.1850    3.0930 o         1 IWR     -0.350000
     14 CAN         0.5160    0.8180    1.2180 c1        1 IWR      0.018333
     15 CAS        -0.0880   -0.1500    0.4250 c1        1 IWR     -0.123500
     16 CAO         0.4560   -0.4740   -0.8140 c1        1 IWR     -0.123500
     17 CAR         1.6790    1.4700    0.7680 c1        1 IWR     -0.126333
     18 CAQ         2.2230    1.1460   -0.4710 c1        1 IWR     -0.126333
     19 CAP         1.6180    0.1770   -1.2650 c1        1 IWR      0.018333
     20 NAT         2.1240   -0.0890   -2.5900 n2        1 IWR     -0.299000
     21 CAW         1.6640    0.5910   -3.8630 c1        1 IWR      0.326000
     22 OBE         0.7520    1.4260   -3.9540 o         1 IWR     -0.297000
     23 CAV         2.5840    0.1950   -4.9420 c2        1 IWR     -0.137000
     24 CBB         1.9150   -0.7400   -5.9460 c3        1 IWR     -0.076000
     25 CBC         2.9470   -1.4970   -6.3820 c3        1 IWR     -0.162000
     26 CBA         1.2710   -1.7510   -5.1550 c2        1 IWR     -0.175000
     27 CAZ         2.1330   -2.4760   -4.6930 c1        1 IWR     -0.172000
     28 CAY         3.3880   -1.9950   -5.1380 c2        1 IWR     -0.076000
     29 CAU         3.6530   -0.7330   -4.3550 c3        1 IWR     -0.137000
     30 CAX         3.3830   -0.9040   -2.9240 c2        1 IWR      0.326000
     31 OBD         3.9950   -1.6720   -2.1420 o         1 IWR     -0.296000
     32 H1         -5.6610   -1.4330    3.3810 ha        1 IWR      0.158000
     33 H2         -6.7120   -0.7420    5.3580 ha        1 IWR      0.144000
     34 H3         -5.6230    0.6880    6.8330 ha        1 IWR      0.144000
     35 H4         -3.6890    2.0320    7.4570 ha        1 IWR      0.144000
     36 H5         -1.5050    2.8480    6.9870 ha        1 IWR      0.144000
     37 H6         -0.4720    2.1320    4.9850 ha        1 IWR      0.166333
     38 H7         -1.5500   -0.3050    2.6030 hn        1 IWR      0.254000
     39 H8         -0.8990   -0.6040    0.7390 ha        1 IWR      0.144000
     40 H9          0.0280   -1.1600   -1.3760 ha        1 IWR      0.144000
     41 H10         2.1150    2.1700    1.3400 ha        1 IWR      0.166333
     42 H11         3.0090    1.5870   -0.7750 ha        1 IWR      0.166333
     43 H12         3.0020    1.0060   -5.4020 ha        1 IWR      0.140000
     44 H13         1.3510   -0.3100   -6.6640 hc        1 IWR      0.133000
     45 H14         3.6330   -0.9500   -6.8110 hc        1 IWR      0.101500
     46 H15         2.6350   -2.2290   -6.9760 hc        1 IWR      0.101500
     47 H17         0.4060   -2.1340   -5.4490 ha        1 IWR      0.157000
     48 H18         1.9740   -3.4620   -4.6320 ha        1 IWR      0.159000
     49 H20         4.1580   -2.6880   -5.1790 ha        1 IWR      0.134000
     50 H21         4.5440   -0.3960   -4.5150 hc        1 IWR      0.140000
@<TRIPOS>BOND
     1    1    2 1   
     2    1    6 1   
     3    2    3 1   
     4    3   32 1   
     5    4    5 1   
     6    4   33 1   
     7    5   34 1   
     8    7    8 1   
     9    7   35 1   
    10    8   36 1   
    11    9   10 1   
    12    9   37 1   
    13   11   12 1   
    14   11   38 1   
    15   12   13 1   
    16   14   17 1   
    17   15   16 1   
    18   15   39 1   
    19   16   40 1   
    20   17   41 1   
    21   18   19 1   
    22   18   42 1   
    23   20   21 1   
    24   20   30 1   
    25   21   22 1   
    26   23   24 1   
    27   23   29 1   
    28   23   43 1   
    29   24   25 1   
    30   24   26 1   
    31   24   44 1   
    32   25   28 1   
    33   25   45 1   
    34   25   46 1   
    35   26   27 1   
    36   26   47 1   
    37   27   48 1   
    38   28   29 1   
    39   28   49 1   
    40   29   30 1   
    41   29   50 1   
    42   30   31 1   
@<TRIPOS>SUBSTRUCTURE
     1 IWR         1 TEMP              0 ****  ****    0 ROOT
