@<TRIPOS>MOLECULE
IWR
   50    55     1     0     0
SMALL
bcc


@<TRIPOS>ATOM
      1 CAF        -0.0170   -0.3030   -0.0200 ca        1 IWR      0.361600
      2 NAG         1.3270   -0.5680   -0.2110 nb        1 IWR     -0.679000
      3 CAH         2.1040   -0.6810    0.8490 ca        1 IWR      0.411200
      4 CAI         1.6460   -0.5490    2.1980 ca        1 IWR     -0.246300
      5 CAJ         0.3180   -0.2870    2.4070 ca        1 IWR     -0.082000
      6 CAA        -0.5620   -0.1540    1.2920 ca        1 IWR     -0.121300
      7 CAB        -1.9380    0.1200    1.4720 ca        1 IWR     -0.148000
      8 CAC        -2.7590    0.2430    0.3790 ca        1 IWR     -0.093000
      9 CAD        -2.2580    0.0970   -0.9290 ca        1 IWR     -0.167000
     10 CAE        -0.9120   -0.1700   -1.1650 ca        1 IWR      0.035300
     11 NAK        -0.3830   -0.3310   -2.4530 n         1 IWR     -0.457100
     12 CAL        -0.9980   -0.0130   -3.6580 c         1 IWR      0.680700
     13 OAM        -2.1730    0.3900   -3.7400 o         1 IWR     -0.589100
     14 CAN        -0.1700   -0.2180   -4.8840 ca        1 IWR     -0.158600
     15 CAS        -0.7940   -0.7420   -6.0200 ca        1 IWR     -0.077000
     16 CAO        -0.0750   -0.9460   -7.1920 ca        1 IWR     -0.147000
     17 CAR         1.1820    0.1280   -4.9380 ca        1 IWR     -0.077000
     18 CAQ         1.9120   -0.0590   -6.1080 ca        1 IWR     -0.147000
     19 CAP         1.2960   -0.6080   -7.2550 ca        1 IWR      0.077600
     20 NAT         2.0370   -0.8090   -8.4410 n         1 IWR     -0.425600
     21 CAW         1.4820   -0.7780   -9.7510 c         1 IWR      0.718500
     22 OBE         0.2980   -0.5460  -10.0110 o         1 IWR     -0.572000
     23 CAV         2.5800   -1.0360  -10.7720 c3        1 IWR     -0.147700
     24 CBB         2.4380   -2.3640  -11.5590 c3        1 IWR     -0.032500
     25 CBC         3.9500   -2.6600  -11.8360 c3        1 IWR     -0.083400
     26 CBA         2.1480   -3.4530  -10.5340 c2        1 IWR     -0.177700
     27 CAZ         3.2700   -3.6390   -9.7990 c2        1 IWR     -0.177700
     28 CAY         4.3330   -2.6800  -10.3170 c3        1 IWR     -0.032500
     29 CAU         3.8770   -1.2520   -9.9240 c3        1 IWR     -0.147700
     30 CAX         3.4290   -1.0990   -8.4770 c         1 IWR      0.718500
     31 OBD         4.1580   -1.1830   -7.4860 o         1 IWR     -0.572000
     32 H1          3.1710   -0.8920    0.6510 h4        1 IWR      0.022100
     33 H2          2.3590   -0.6590    3.0250 ha        1 IWR      0.145000
     34 H3         -0.0950   -0.1750    3.4210 ha        1 IWR      0.140000
     35 H4         -2.3290    0.2330    2.4940 ha        1 IWR      0.135000
     36 H5         -3.8320    0.4570    0.5060 ha        1 IWR      0.138000
     37 H6         -2.9680    0.2060   -1.7670 ha        1 IWR      0.178000
     38 H7          0.5640   -0.6470   -2.5070 hn        1 IWR      0.341500
     39 H8         -1.8680   -0.9870   -5.9840 ha        1 IWR      0.151000
     40 H9         -0.5930   -1.3540   -8.0750 ha        1 IWR      0.162500
     41 H10         1.6880    0.5690   -4.0650 ha        1 IWR      0.151000
     42 H11         2.9800    0.2140   -6.1220 ha        1 IWR      0.162500
     43 H12         2.6560   -0.1660  -11.4680 hc        1 IWR      0.100700
     44 H13         1.7620   -2.3160  -12.4300 hc        1 IWR      0.093700
     45 H14         4.4600   -1.8570  -12.4090 hc        1 IWR      0.062700
     46 H15         4.1100   -3.6420  -12.3290 hc        1 IWR      0.062700
     47 H17         1.1810   -3.9450  -10.4600 ha        1 IWR      0.158500
     48 H18         3.4500   -4.3220   -8.9710 ha        1 IWR      0.158500
     49 H20         5.3790   -2.9190  -10.0600 hc        1 IWR      0.093700
     50 H21         4.6730   -0.5030  -10.1500 hc        1 IWR      0.100700
@<TRIPOS>BOND
     1    1    2 ar  
     2    1    6 ar  
     3    1   10 ar  
     4    2    3 ar  
     5    3    4 ar  
     6    3   32 1   
     7    4    5 ar  
     8    4   33 1   
     9    5    6 ar  
    10    5   34 1   
    11    6    7 ar  
    12    7    8 ar  
    13    7   35 1   
    14    8    9 ar  
    15    8   36 1   
    16    9   10 ar  
    17    9   37 1   
    18   10   11 1   
    19   11   12 1   
    20   11   38 1   
    21   12   13 2   
    22   12   14 1   
    23   14   15 ar  
    24   14   17 ar  
    25   15   16 ar  
    26   15   39 1   
    27   16   19 ar  
    28   16   40 1   
    29   17   18 ar  
    30   17   41 1   
    31   18   19 ar  
    32   18   42 1   
    33   19   20 1   
    34   20   21 1   
    35   20   30 1   
    36   21   22 2   
    37   21   23 1   
    38   23   24 1   
    39   23   29 1   
    40   23   43 1   
    41   24   25 1   
    42   24   26 1   
    43   24   44 1   
    44   25   28 1   
    45   25   45 1   
    46   25   46 1   
    47   26   27 2   
    48   26   47 1   
    49   27   28 1   
    50   27   48 1   
    51   28   29 1   
    52   28   49 1   
    53   29   30 1   
    54   29   50 1   
    55   30   31 2   
@<TRIPOS>SUBSTRUCTURE
     1 IWR         1 TEMP              0 ****  ****    0 ROOT
