@<TRIPOS>MOLECULE
IX1
   49    42     1     0     0
SMALL
bcc


@<TRIPOS>ATOM
      1 C1         -0.7420    1.7290   -3.4600 c1        1 IX1     -0.127500
      2 C2          0.2800    0.8660   -3.1710 c1        1 IX1      0.007000
      3 C3          0.9190    0.9300   -1.9360 c1        1 IX1     -0.105000
      4 C4          0.5080    1.8990   -0.9680 c1        1 IX1     -0.064000
      5 C5         -0.5040    2.7550   -1.2530 c1        1 IX1     -0.124000
      6 C6         -1.1490    2.6870   -2.5030 c1        1 IX1     -0.127500
      7 C7          0.6890   -0.0740   -4.1210 c1        1 IX1     -0.041000
      8 O12         0.3820   -1.4080   -4.1100 os        1 IX1     -0.114000
      9 N13         0.9930   -2.0010   -5.2060 n2        1 IX1     -0.028000
     10 C14         1.6640   -1.0490   -5.8790 c1        1 IX1     -0.126000
     11 C15         1.4810    0.1670   -5.2070 c1        1 IX1     -0.155000
     12 C16         2.4830   -1.2590   -7.2150 c1        1 IX1      0.394000
     13 O1          1.8700   -1.2860   -8.3490 o         1 IX1     -0.538500
     14 O2          3.6870   -1.4430   -7.1700 o         1 IX1     -0.538500
     15 C8          1.3010    2.0250    0.4320 c2        1 IX1     -0.111000
     16 C32        -1.3690   -0.9770    3.0990 c1        1 IX1      0.160000
     17 C33        -1.8450   -1.8310    2.1030 c1        1 IX1     -0.127500
     18 C34        -2.2080   -3.1330    2.4230 c1        1 IX1     -0.127500
     19 C35        -2.0920   -3.5840    3.7530 c1        1 IX1     -0.260000
     20 C36        -1.6100   -2.7140    4.7500 c1        1 IX1      0.143000
     21 C37        -1.2540   -1.4320    4.4280 c1        1 IX1     -0.163000
     22 C38        -0.6060   -0.5020    5.5180 c2        1 IX1      0.386000
     23 O11         0.6300   -0.5240    5.7040 o         1 IX1     -0.347000
     24 O13        -1.4470    0.2800    6.3750 os        1 IX1     -0.264000
     25 C39        -0.9500    0.4490    7.6910 c3        1 IX1     -0.063000
     26 O14        -1.4490   -3.1850    6.1040 oh        1 IX1     -0.248000
     27 O3         -0.9940    0.3830    2.7700 os        1 IX1     -0.210000
     28 C40        -0.4720    0.5460    1.4420 c3        1 IX1      0.001000
     29 C41         0.8480    1.4070    1.5120 c2        1 IX1     -0.166000
     30 C9          2.1820    1.4790   -5.5390 c2        1 IX1      0.061000
     31 O4          1.8570    1.8540   -6.8170 oh        1 IX1     -0.364000
     32 H1         -1.2060    1.6810   -4.3590 ha        1 IX1      0.152250
     33 H3          1.6740    0.2890   -1.7240 ha        1 IX1      0.146000
     34 H5         -0.7050    3.4600   -0.6600 ha        1 IX1      0.124000
     35 H6         -1.8620    3.2910   -2.7060 ha        1 IX1      0.152250
     36 H8          2.1030    2.5500    0.4830 ha        1 IX1      0.123000
     37 H33        -1.9250   -1.5050    1.1640 ha        1 IX1      0.152250
     38 H34        -2.5410   -3.7300    1.7320 ha        1 IX1      0.152250
     39 H35        -2.3390   -4.4730    3.9790 ha        1 IX1      0.136000
     40 H391       -0.5200   -0.4070    8.0050 h1        1 IX1      0.083667
     41 H392       -0.3200    1.1350    7.6990 h1        1 IX1      0.083667
     42 H393       -1.6860    0.6790    8.2840 h1        1 IX1      0.083667
     43 H14        -1.2730   -4.0150    6.0950 ho        1 IX1      0.221000
     44 H401       -1.1610    1.0210    0.8620 h1        1 IX1      0.105500
     45 H402       -0.2850   -0.2790    1.0810 h1        1 IX1      0.105500
     46 H41         1.3600    1.4880    2.4050 ha        1 IX1      0.141000
     47 H91         1.8950    2.1840   -4.9050 h4        1 IX1      0.083000
     48 H92         3.2000    1.3450   -5.4680 h4        1 IX1      0.083000
     49 HO4         2.5070    2.2360   -7.1670 ho        1 IX1      0.256000
@<TRIPOS>BOND
     1    1    6 1   
     2    1   32 1   
     3    2    3 1   
     4    3   33 1   
     5    4    5 1   
     6    4   15 1   
     7    5   34 1   
     8    6   35 1   
     9    7    8 1   
    10    7   11 1   
    11    8    9 1   
    12    9   10 1   
    13   10   11 1   
    14   12   13 1   
    15   12   14 1   
    16   15   29 1   
    17   15   36 1   
    18   16   21 1   
    19   16   27 1   
    20   17   18 1   
    21   17   37 1   
    22   18   38 1   
    23   19   20 1   
    24   19   39 1   
    25   20   26 1   
    26   21   22 1   
    27   22   23 1   
    28   22   24 1   
    29   24   25 1   
    30   25   40 1   
    31   25   41 1   
    32   25   42 1   
    33   26   43 1   
    34   27   28 1   
    35   28   29 1   
    36   28   44 1   
    37   28   45 1   
    38   29   46 1   
    39   30   31 1   
    40   30   47 1   
    41   30   48 1   
    42   31   49 1   
@<TRIPOS>SUBSTRUCTURE
     1 IX1         1 TEMP              0 ****  ****    0 ROOT
