@<TRIPOS>MOLECULE
IX1
   49    51     1     0     0
SMALL
bcc


@<TRIPOS>ATOM
      1 C1          0.2550   -0.9560    0.9520 ca        1 IX1     -0.105000
      2 C2          1.3870   -0.1710    0.6770 ca        1 IX1     -0.096500
      3 C3          1.5790    1.0310    1.3720 ca        1 IX1     -0.096000
      4 C4          0.6550    1.4490    2.3400 ca        1 IX1     -0.088800
      5 C5         -0.4770    0.6640    2.5930 ca        1 IX1     -0.130000
      6 C6         -0.6720   -0.5290    1.8990 ca        1 IX1     -0.139000
      7 C7          2.3440   -0.6060   -0.3070 cc        1 IX1      0.256200
      8 O12         3.6790   -0.1390   -0.1600 os        1 IX1     -0.162100
      9 N13         4.4410   -0.6460   -1.1190 nc        1 IX1     -0.358300
     10 C14         3.7000   -1.4270   -1.9180 cd        1 IX1      0.289800
     11 C15         2.3110   -1.4190   -1.4230 cd        1 IX1     -0.292900
     12 C16         4.1510   -2.2360   -3.1310 c         1 IX1      0.836100
     13 O1          5.0340   -1.7570   -3.8800 o         1 IX1     -0.804300
     14 O2          3.5620   -3.3430   -3.2990 o         1 IX1     -0.804300
     15 C8          0.8940    2.7030    3.0410 ce        1 IX1     -0.080200
     16 C32         2.0010    1.8930    6.9450 ca        1 IX1      0.203100
     17 C33         2.9270    1.4400    5.9940 ca        1 IX1     -0.234000
     18 C34         4.2250    1.1310    6.3900 ca        1 IX1     -0.034000
     19 C35         4.6200    1.2690    7.7180 ca        1 IX1     -0.258000
     20 C36         3.6920    1.7270    8.6660 ca        1 IX1      0.189100
     21 C37         2.3750    2.0500    8.2970 ca        1 IX1     -0.182600
     22 C38         1.4170    2.5540    9.2940 c         1 IX1      0.683700
     23 O11         1.2570    3.7040    9.7020 o         1 IX1     -0.534000
     24 O13         0.6150    1.5700    9.8160 os        1 IX1     -0.425900
     25 C39        -0.3500    1.9830   10.7810 c3        1 IX1      0.126700
     26 O14         4.0200    1.8780    9.9920 oh        1 IX1     -0.492100
     27 O3          0.6960    2.2240    6.6590 os        1 IX1     -0.324900
     28 C40         0.2220    1.9440    5.3340 c3        1 IX1      0.161600
     29 C41         0.7220    2.9340    4.3470 c2        1 IX1     -0.221200
     30 C9          1.1950   -2.1420   -2.0680 c3        1 IX1      0.218700
     31 O4          1.1810   -3.5150   -1.7360 oh        1 IX1     -0.637800
     32 H1          0.1140   -1.9110    0.4180 ha        1 IX1      0.163000
     33 H3          2.4710    1.6390    1.1560 ha        1 IX1      0.152000
     34 H5         -1.2200    0.9970    3.3330 ha        1 IX1      0.122000
     35 H6         -1.5620   -1.1410    2.1050 ha        1 IX1      0.129000
     36 H8          1.2780    3.5160    2.3960 ha        1 IX1      0.132000
     37 H33         2.6370    1.3390    4.9370 ha        1 IX1      0.164000
     38 H34         4.9490    0.7730    5.6400 ha        1 IX1      0.147000
     39 H35         5.6450    1.0220    8.0250 ha        1 IX1      0.138000
     40 H391       -1.0500    2.7260   10.3290 h1        1 IX1      0.045700
     41 H392       -0.8780    1.0360   11.0510 h1        1 IX1      0.045700
     42 H393        0.1620    2.4310   11.6670 h1        1 IX1      0.045700
     43 H14         4.9550    1.6470   10.0950 ho        1 IX1      0.424000
     44 H401        0.4710    0.8880    5.0460 h1        1 IX1      0.072200
     45 H402       -0.8940    2.0470    5.4630 h1        1 IX1      0.072200
     46 H41         0.9540    3.9250    4.7730 ha        1 IX1      0.139000
     47 H91         1.2880   -2.0230   -3.1850 h1        1 IX1      0.043700
     48 H92         0.2000   -1.7470   -1.7240 h1        1 IX1      0.043700
     49 HO4         2.0000   -3.8960   -2.1030 ho        1 IX1      0.457000
@<TRIPOS>BOND
     1    1    2 ar  
     2    1    6 ar  
     3    1   32 1   
     4    2    3 ar  
     5    2    7 1   
     6    3    4 ar  
     7    3   33 1   
     8    4    5 ar  
     9    4   15 1   
    10    5    6 ar  
    11    5   34 1   
    12    6   35 1   
    13    7    8 1   
    14    7   11 2   
    15    8    9 1   
    16    9   10 2   
    17   10   11 1   
    18   10   12 1   
    19   11   30 1   
    20   12   13 1   
    21   12   14 1   
    22   15   29 2   
    23   15   36 1   
    24   16   17 ar  
    25   16   21 ar  
    26   16   27 1   
    27   17   18 ar  
    28   17   37 1   
    29   18   19 ar  
    30   18   38 1   
    31   19   20 ar  
    32   19   39 1   
    33   20   21 ar  
    34   20   26 1   
    35   21   22 1   
    36   22   23 2   
    37   22   24 1   
    38   24   25 1   
    39   25   40 1   
    40   25   41 1   
    41   25   42 1   
    42   26   43 1   
    43   27   28 1   
    44   28   29 1   
    45   28   44 1   
    46   28   45 1   
    47   29   46 1   
    48   30   31 1   
    49   30   47 1   
    50   30   48 1   
    51   31   49 1   
@<TRIPOS>SUBSTRUCTURE
     1 IX1         1 TEMP              0 ****  ****    0 ROOT
