@<TRIPOS>MOLECULE
IX1
   49    51     1     0     0
SMALL
bcc


@<TRIPOS>ATOM
      1 C1          1.8480    0.4410    3.2280 ca        1 IX1     -0.103000
      2 C2          0.5020    0.0640    3.3460 ca        1 IX1     -0.095500
      3 C3         -0.2630   -0.1210    2.1850 ca        1 IX1     -0.091000
      4 C4          0.3050    0.0560    0.9140 ca        1 IX1     -0.076800
      5 C5          1.6560    0.4170    0.8160 ca        1 IX1     -0.117000
      6 C6          2.4160    0.6090    1.9670 ca        1 IX1     -0.141000
      7 C7         -0.1040   -0.1320    4.6390 cc        1 IX1      0.259200
      8 O12        -1.4990    0.1400    4.7220 os        1 IX1     -0.161100
      9 N13        -1.9270   -0.0790    5.9570 nc        1 IX1     -0.360300
     10 C14        -0.9080   -0.4920    6.7220 cd        1 IX1      0.290800
     11 C15         0.3100   -0.5480    5.8910 cd        1 IX1     -0.294900
     12 C16        -0.9520   -0.8360    8.2100 c         1 IX1      0.835100
     13 O1         -1.6030   -0.0830    8.9720 o         1 IX1     -0.803800
     14 O2         -0.2940   -1.8530    8.5680 o         1 IX1     -0.803800
     15 C8         -0.5310   -0.1520   -0.2550 ce        1 IX1     -0.079200
     16 C32        -1.0210   -0.1900   -5.0260 ca        1 IX1      0.223100
     17 C33        -2.4020   -0.4060   -5.1200 ca        1 IX1     -0.261000
     18 C34        -2.9900   -0.5660   -6.3740 ca        1 IX1     -0.033000
     19 C35        -2.2280   -0.5250   -7.5330 ca        1 IX1     -0.217000
     20 C36        -0.8380   -0.3130   -7.4400 ca        1 IX1      0.219100
     21 C37        -0.2160   -0.1240   -6.1930 ca        1 IX1     -0.246600
     22 C38         1.2160    0.1550   -6.0520 c         1 IX1      0.659700
     23 O11         1.7910    0.9590   -5.3200 o         1 IX1     -0.508000
     24 O13         2.0070   -0.6020   -6.8920 os        1 IX1     -0.470900
     25 C39         3.4180   -0.4140   -6.7820 c3        1 IX1      0.129700
     26 O14        -0.1820   -0.2780   -8.6410 oh        1 IX1     -0.499100
     27 O3         -0.3410   -0.0520   -3.8440 os        1 IX1     -0.308900
     28 C40        -1.1390   -0.0710   -2.6430 c3        1 IX1      0.166600
     29 C41        -0.1950    0.1480   -1.5160 c2        1 IX1     -0.194200
     30 C9          1.6320   -0.9970    6.3760 c3        1 IX1      0.223700
     31 O4          1.6890   -2.3900    6.5950 oh        1 IX1     -0.634800
     32 H1          2.4520    0.6100    4.1320 ha        1 IX1      0.144000
     33 H3         -1.3230   -0.4030    2.2860 ha        1 IX1      0.151000
     34 H5          2.1230    0.5490   -0.1720 ha        1 IX1      0.128000
     35 H6          3.4740    0.8970    1.8810 ha        1 IX1      0.127000
     36 H8         -1.5260   -0.5870   -0.0380 ha        1 IX1      0.123000
     37 H33        -3.0280   -0.4510   -4.2190 ha        1 IX1      0.148000
     38 H34        -4.0760   -0.7320   -6.4430 ha        1 IX1      0.137000
     39 H35        -2.6820   -0.6560   -8.5240 ha        1 IX1      0.153000
     40 H391        3.8410   -1.1430   -7.5150 h1        1 IX1      0.050367
     41 H392        3.6830    0.6380   -7.0480 h1        1 IX1      0.050367
     42 H393        3.7520   -0.6390   -5.7400 h1        1 IX1      0.050367
     43 H14         0.7740   -0.2180   -8.4920 ho        1 IX1      0.445000
     44 H401       -1.8980    0.7560   -2.6950 h1        1 IX1      0.050200
     45 H402       -1.6600   -1.0630   -2.5670 h1        1 IX1      0.050200
     46 H41         0.7780    0.5810   -1.7960 ha        1 IX1      0.153000
     47 H91         2.4350   -0.7980    5.6140 h1        1 IX1      0.038200
     48 H92         1.8700   -0.4510    7.3320 h1        1 IX1      0.038200
     49 HO4         1.0160   -2.6030    7.2680 ho        1 IX1      0.459000
@<TRIPOS>BOND
     1    1    2 ar  
     2    1    6 ar  
     3    1   32 1   
     4    2    3 ar  
     5    2    7 1   
     6    3    4 ar  
     7    3   33 1   
     8    4    5 ar  
     9    4   15 1   
    10    5    6 ar  
    11    5   34 1   
    12    6   35 1   
    13    7    8 1   
    14    7   11 2   
    15    8    9 1   
    16    9   10 2   
    17   10   11 1   
    18   10   12 1   
    19   11   30 1   
    20   12   13 1   
    21   12   14 1   
    22   15   29 2   
    23   15   36 1   
    24   16   17 ar  
    25   16   21 ar  
    26   16   27 1   
    27   17   18 ar  
    28   17   37 1   
    29   18   19 ar  
    30   18   38 1   
    31   19   20 ar  
    32   19   39 1   
    33   20   21 ar  
    34   20   26 1   
    35   21   22 1   
    36   22   23 2   
    37   22   24 1   
    38   24   25 1   
    39   25   40 1   
    40   25   41 1   
    41   25   42 1   
    42   26   43 1   
    43   27   28 1   
    44   28   29 1   
    45   28   44 1   
    46   28   45 1   
    47   29   46 1   
    48   30   31 1   
    49   30   47 1   
    50   30   48 1   
    51   31   49 1   
@<TRIPOS>SUBSTRUCTURE
     1 IX1         1 TEMP              0 ****  ****    0 ROOT
