@<TRIPOS>MOLECULE
IX1
   49    51     1     0     0
SMALL
bcc


@<TRIPOS>ATOM
      1 C1          0.2840   -1.0340    0.9800 ca        1 IX1     -0.105000
      2 C2          1.3800   -0.2060    0.6860 ca        1 IX1     -0.096500
      3 C3          1.5320    1.0070    1.3710 ca        1 IX1     -0.096000
      4 C4          0.6060    1.3940    2.3480 ca        1 IX1     -0.088800
      5 C5         -0.4910    0.5660    2.6210 ca        1 IX1     -0.130000
      6 C6         -0.6470   -0.6380    1.9370 ca        1 IX1     -0.139000
      7 C7          2.3410   -0.6090   -0.3070 cc        1 IX1      0.256200
      8 O12         3.6590   -0.0880   -0.1800 os        1 IX1     -0.162100
      9 N13         4.4280   -0.5710   -1.1460 nc        1 IX1     -0.358300
     10 C14         3.7090   -1.3860   -1.9310 cd        1 IX1      0.289800
     11 C15         2.3270   -1.4310   -1.4180 cd        1 IX1     -0.292900
     12 C16         4.1760   -2.1840   -3.1450 c         1 IX1      0.836100
     13 O1          5.0300   -1.6750   -3.9080 o         1 IX1     -0.804300
     14 O2          3.6300   -3.3140   -3.2990 o         1 IX1     -0.804300
     15 C8          0.8030    2.6610    3.0380 ce        1 IX1     -0.080200
     16 C32         1.9880    1.9240    6.9340 ca        1 IX1      0.203100
     17 C33         2.9200    1.5020    5.9750 ca        1 IX1     -0.234000
     18 C34         4.2340    1.2500    6.3570 ca        1 IX1     -0.034000
     19 C35         4.6390    1.4130    7.6790 ca        1 IX1     -0.258000
     20 C36         3.7050    1.8410    8.6350 ca        1 IX1      0.189100
     21 C37         2.3710    2.1060    8.2800 ca        1 IX1     -0.182600
     22 C38         1.4050    2.5780    9.2860 c         1 IX1      0.683700
     23 O11         1.2040    3.7250    9.6880 o         1 IX1     -0.534000
     24 O13         0.6500    1.5670    9.8230 os        1 IX1     -0.425900
     25 C39        -0.3200    1.9480   10.7970 c3        1 IX1      0.126700
     26 O14         4.0420    2.0140    9.9570 oh        1 IX1     -0.492100
     27 O3          0.6670    2.2000    6.6620 os        1 IX1     -0.324900
     28 C40         0.1900    1.8920    5.3450 c3        1 IX1      0.161600
     29 C41         0.6370    2.8940    4.3450 c2        1 IX1     -0.221200
     30 C9          1.2330   -2.2010   -2.0450 c3        1 IX1      0.218700
     31 O4          1.2780   -3.5720   -1.7040 oh        1 IX1     -0.637800
     32 H1          0.1750   -1.9980    0.4550 ha        1 IX1      0.163000
     33 H3          2.3970    1.6490    1.1400 ha        1 IX1      0.152000
     34 H5         -1.2370    0.8740    3.3680 ha        1 IX1      0.122000
     35 H6         -1.5090   -1.2840    2.1580 ha        1 IX1      0.129000
     36 H8          1.1460    3.4840    2.3840 ha        1 IX1      0.132000
     37 H33         2.6220    1.3810    4.9230 ha        1 IX1      0.164000
     38 H34         4.9630    0.9160    5.6010 ha        1 IX1      0.147000
     39 H35         5.6760    1.2110    7.9760 ha        1 IX1      0.138000
     40 H391       -1.0540    2.6590   10.3490 h1        1 IX1      0.045700
     41 H392       -0.8060    0.9820   11.0790 h1        1 IX1      0.045700
     42 H393        0.1840    2.4220   11.6740 h1        1 IX1      0.045700
     43 H14         4.9870    1.8220   10.0500 ho        1 IX1      0.424000
     44 H401        0.4770    0.8450    5.0600 h1        1 IX1      0.072200
     45 H402       -0.9280    1.9510    5.4860 h1        1 IX1      0.072200
     46 H41         0.8350    3.8960    4.7620 ha        1 IX1      0.139000
     47 H91         1.3070   -2.0860   -3.1630 h1        1 IX1      0.043700
     48 H92         0.2280   -1.8440   -1.6900 h1        1 IX1      0.043700
     49 HO4         2.1060   -3.9220   -2.0790 ho        1 IX1      0.457000
@<TRIPOS>BOND
     1    1    2 ar  
     2    1    6 ar  
     3    1   32 1   
     4    2    3 ar  
     5    2    7 1   
     6    3    4 ar  
     7    3   33 1   
     8    4    5 ar  
     9    4   15 1   
    10    5    6 ar  
    11    5   34 1   
    12    6   35 1   
    13    7    8 1   
    14    7   11 2   
    15    8    9 1   
    16    9   10 2   
    17   10   11 1   
    18   10   12 1   
    19   11   30 1   
    20   12   13 1   
    21   12   14 1   
    22   15   29 2   
    23   15   36 1   
    24   16   17 ar  
    25   16   21 ar  
    26   16   27 1   
    27   17   18 ar  
    28   17   37 1   
    29   18   19 ar  
    30   18   38 1   
    31   19   20 ar  
    32   19   39 1   
    33   20   21 ar  
    34   20   26 1   
    35   21   22 1   
    36   22   23 2   
    37   22   24 1   
    38   24   25 1   
    39   25   40 1   
    40   25   41 1   
    41   25   42 1   
    42   26   43 1   
    43   27   28 1   
    44   28   29 1   
    45   28   44 1   
    46   28   45 1   
    47   29   46 1   
    48   30   31 1   
    49   30   47 1   
    50   30   48 1   
    51   31   49 1   
@<TRIPOS>SUBSTRUCTURE
     1 IX1         1 TEMP              0 ****  ****    0 ROOT
