@<TRIPOS>MOLECULE
IX6
   73    77     1     0     0
SMALL
bcc


@<TRIPOS>ATOM
      1 C1          0.5980    0.1290   -0.3090 ca        1 IX6     -0.192000
      2 C2          1.9540   -0.0170   -0.0340 ca        1 IX6     -0.098000
      3 C3          2.4190    0.0620    1.2710 ca        1 IX6     -0.129000
      4 C4          1.5320    0.2800    2.3470 ca        1 IX6      0.093600
      5 C5          0.1400    0.4320    2.0920 ca        1 IX6      0.112600
      6 C6         -0.2980    0.3530    0.7380 ca        1 IX6      0.099100
      7 C8          1.7940    1.6710    4.3480 c3        1 IX6      0.247200
      8 C15        -2.0090    1.3860    5.0870 c3        1 IX6     -0.115200
      9 C16         1.2310    3.7290    2.9490 ca        1 IX6     -0.050000
     10 C17         2.1800    2.8530    3.4880 ca        1 IX6     -0.168300
     11 C18         1.6060    4.8340    2.1980 ca        1 IX6     -0.175000
     12 C19         2.9740    5.0820    1.9710 ca        1 IX6      0.162100
     13 C21         3.5460    3.1170    3.2530 ca        1 IX6      0.183900
     14 C24        -3.1380    1.2690    7.2770 c3        1 IX6     -0.094100
     15 C27         3.6650    8.5440   -0.0770 c2        1 IX6     -0.187000
     16 O29        -1.6540    0.4940    0.5080 oh        1 IX6     -0.517100
     17 C32         2.5330   -0.6870    4.3800 c         1 IX6      0.620600
     18 C34         2.6090   -2.0200    3.7440 cc        1 IX6      0.168500
     19 C35         3.5830   -2.9860    4.0140 cd        1 IX6      0.250700
     20 C37         2.0820   -3.7840    2.5640 cd        1 IX6      0.485700
     21 C39         1.5310   -4.8400    1.6960 c3        1 IX6     -0.123400
     22 C40         4.7710   -3.0360    4.8650 c3        1 IX6     -0.148400
     23 F41         4.5020    2.3030    3.7590 f         1 IX6     -0.132900
     24 C20         3.9510    4.2330    2.4940 ca        1 IX6     -0.255000
     25 O23         3.2380    6.1960    1.2020 os        1 IX6     -0.324900
     26 C22         4.6250    6.5360    1.0550 c3        1 IX6      0.164600
     27 C26         4.7220    7.8090    0.2780 c2        1 IX6     -0.139400
     28 C28         6.1170    8.1860   -0.0580 c3        1 IX6     -0.061900
     29 N7          2.0340    0.3980    3.6640 n         1 IX6     -0.374000
     30 N38         1.6730   -2.5450    2.8320 nc        1 IX6     -0.642000
     31 O36         3.2680   -4.1160    3.2620 os        1 IX6     -0.386800
     32 O33         2.9530   -0.5380    5.5450 o         1 IX6     -0.590100
     33 C9          0.4020    1.7930    4.9000 ce        1 IX6     -0.582300
     34 S12         0.2530    2.5720    6.3480 sy        1 IX6      1.403900
     35 O30        -0.5480    3.7230    6.2260 o         1 IX6     -0.664300
     36 O31         1.4800    2.7530    7.0020 o         1 IX6     -0.664300
     37 C13        -0.6450    1.3800    7.2120 c3        1 IX6     -0.303600
     38 C14        -1.8880    0.8370    6.5160 c3        1 IX6      0.008000
     39 C25        -1.8420   -0.6840    6.4700 c3        1 IX6     -0.094100
     40 C10        -0.7120    1.2490    4.3030 c2        1 IX6      0.321800
     41 N11        -0.8180    0.6020    3.1070 nh        1 IX6     -0.590400
     42 H1          0.2290    0.0720   -1.3430 ha        1 IX6      0.138000
     43 H2          2.6630   -0.1900   -0.8580 ha        1 IX6      0.140000
     44 H3          3.4970   -0.0490    1.4740 ha        1 IX6      0.150000
     45 H8          2.5150    1.6790    5.2400 h1        1 IX6      0.127700
     46 H15        -2.2640    2.4840    5.1250 hc        1 IX6      0.088700
     47 H15A       -2.8690    0.8650    4.5880 hc        1 IX6      0.088700
     48 H16         0.1600    3.5450    3.1350 ha        1 IX6      0.149000
     49 H18         0.8560    5.5210    1.7840 ha        1 IX6      0.154000
     50 H24        -4.0550    0.9070    6.7530 hc        1 IX6      0.043367
     51 H24A       -3.1830    2.3820    7.3540 hc        1 IX6      0.043367
     52 H24B       -3.1240    0.8380    8.3070 hc        1 IX6      0.043367
     53 H27         2.6370    8.2530    0.1790 ha        1 IX6      0.122000
     54 H27A        3.7670    9.4780   -0.6430 ha        1 IX6      0.122000
     55 HO29       -1.8040    0.4030   -0.4440 ho        1 IX6      0.431000
     56 H39         1.4610   -4.4670    0.6430 hc        1 IX6      0.070033
     57 H39A        0.5080   -5.1230    2.0480 hc        1 IX6      0.070033
     58 H39B        2.1930   -5.7400    1.7250 hc        1 IX6      0.070033
     59 H40         4.7890   -3.9870    5.4550 hc        1 IX6      0.077033
     60 H40A        4.7550   -2.1630    5.5680 hc        1 IX6      0.077033
     61 H40B        5.6970   -2.9910    4.2380 hc        1 IX6      0.077033
     62 H20         5.0230    4.4080    2.3370 ha        1 IX6      0.152000
     63 H22         5.1490    5.7060    0.5070 h1        1 IX6      0.049200
     64 H22A        5.0860    6.6680    2.0710 h1        1 IX6      0.049200
     65 H28         6.7310    8.2720    0.8740 hc        1 IX6      0.044033
     66 H28A        6.5820    7.4070   -0.7130 hc        1 IX6      0.044033
     67 H28B        6.1530    9.1650   -0.5950 hc        1 IX6      0.044033
     68 H13        -0.9440    1.8100    8.2060 h1        1 IX6      0.116200
     69 H13A        0.0380    0.5230    7.4650 h1        1 IX6      0.116200
     70 H25        -2.7800   -1.0880    6.0170 hc        1 IX6      0.043367
     71 H25A       -1.7440   -1.0950    7.5040 hc        1 IX6      0.043367
     72 H25B       -0.9720   -1.0310    5.8640 hc        1 IX6      0.043367
     73 HN11       -1.7420    0.3290    2.8290 hn        1 IX6      0.454800
@<TRIPOS>BOND
     1    1    2 ar  
     2    1    6 ar  
     3    1   42 1   
     4    2    3 ar  
     5    2   43 1   
     6    3    4 ar  
     7    3   44 1   
     8    4    5 ar  
     9    4   29 1   
    10    5    6 ar  
    11    5   41 1   
    12    6   16 1   
    13    7   10 1   
    14    7   29 1   
    15    7   33 1   
    16    7   45 1   
    17    8   38 1   
    18    8   40 1   
    19    8   46 1   
    20    8   47 1   
    21    9   10 ar  
    22    9   11 ar  
    23    9   48 1   
    24   10   13 ar  
    25   11   12 ar  
    26   11   49 1   
    27   12   24 ar  
    28   12   25 1   
    29   13   23 1   
    30   13   24 ar  
    31   14   38 1   
    32   14   50 1   
    33   14   51 1   
    34   14   52 1   
    35   15   27 2   
    36   15   53 1   
    37   15   54 1   
    38   16   55 1   
    39   17   18 1   
    40   17   29 1   
    41   17   32 2   
    42   18   19 2   
    43   18   30 1   
    44   19   22 1   
    45   19   31 1   
    46   20   21 1   
    47   20   30 2   
    48   20   31 1   
    49   21   56 1   
    50   21   57 1   
    51   21   58 1   
    52   22   59 1   
    53   22   60 1   
    54   22   61 1   
    55   24   62 1   
    56   25   26 1   
    57   26   27 1   
    58   26   63 1   
    59   26   64 1   
    60   27   28 1   
    61   28   65 1   
    62   28   66 1   
    63   28   67 1   
    64   33   34 1   
    65   33   40 2   
    66   34   35 2   
    67   34   36 2   
    68   34   37 1   
    69   37   38 1   
    70   37   68 1   
    71   37   69 1   
    72   38   39 1   
    73   39   70 1   
    74   39   71 1   
    75   39   72 1   
    76   40   41 1   
    77   41   73 1   
@<TRIPOS>SUBSTRUCTURE
     1 IX6         1 TEMP              0 ****  ****    0 ROOT
