@<TRIPOS>MOLECULE
IX6
   73    77     1     0     0
SMALL
bcc


@<TRIPOS>ATOM
      1 C1          0.5870    0.1510   -0.3150 ca        1 IX6     -0.192000
      2 C2          1.9430   -0.0080   -0.0410 ca        1 IX6     -0.098000
      3 C3          2.4080    0.0610    1.2650 ca        1 IX6     -0.129000
      4 C4          1.5220    0.2810    2.3410 ca        1 IX6      0.093600
      5 C5          0.1320    0.4460    2.0870 ca        1 IX6      0.112600
      6 C6         -0.3070    0.3790    0.7320 ca        1 IX6      0.099100
      7 C8          1.7960    1.6590    4.3500 c3        1 IX6      0.247200
      8 C15        -2.0100    1.4040    5.0860 c3        1 IX6     -0.115200
      9 C16         1.2520    3.7280    2.9600 ca        1 IX6     -0.050000
     10 C17         2.1920    2.8420    3.4960 ca        1 IX6     -0.168300
     11 C18         1.6370    4.8340    2.2160 ca        1 IX6     -0.174000
     12 C19         3.0070    5.0720    1.9900 ca        1 IX6      0.162100
     13 C21         3.5620    3.0950    3.2630 ca        1 IX6      0.183900
     14 C24        -3.1410    1.2860    7.2760 c3        1 IX6     -0.094100
     15 C27         3.7290    8.5320   -0.0480 c2        1 IX6     -0.187000
     16 O29        -1.6610    0.5320    0.5030 oh        1 IX6     -0.517100
     17 C32         2.5130   -0.7050    4.3700 c         1 IX6      0.620600
     18 C34         2.5780   -2.0360    3.7270 cc        1 IX6      0.168500
     19 C35         3.5430   -3.0120    3.9920 cd        1 IX6      0.250700
     20 C37         2.0360   -3.7890    2.5380 cd        1 IX6      0.485700
     21 C39         1.4760   -4.8350    1.6640 c3        1 IX6     -0.123400
     22 C40         4.7300   -3.0770    4.8430 c3        1 IX6     -0.148400
     23 F41         4.5100    2.2700    3.7650 f         1 IX6     -0.132900
     24 C20         3.9760    4.2110    2.5090 ca        1 IX6     -0.255000
     25 O23         3.2810    6.1860    1.2270 os        1 IX6     -0.324900
     26 C22         4.6710    6.5160    1.0830 c3        1 IX6      0.164600
     27 C26         4.7800    7.7920    0.3120 c2        1 IX6     -0.139400
     28 C28         6.1800    8.1650   -0.0090 c3        1 IX6     -0.061900
     29 N7          2.0250    0.3880    3.6590 n         1 IX6     -0.374000
     30 N38         1.6380   -2.5480    2.8120 nc        1 IX6     -0.642000
     31 O36         3.2180   -4.1350    3.2340 os        1 IX6     -0.386800
     32 O33         2.9350   -0.5660    5.5360 o         1 IX6     -0.590100
     33 C9          0.4050    1.7910    4.9020 ce        1 IX6     -0.582300
     34 S12         0.2620    2.5630    6.3530 sy        1 IX6      1.403900
     35 O30        -0.5280    3.7220    6.2380 o         1 IX6     -0.664300
     36 O31         1.4900    2.7310    7.0090 o         1 IX6     -0.664300
     37 C13        -0.6470    1.3750    7.2110 c3        1 IX6     -0.303600
     38 C14        -1.8950    0.8470    6.5120 c3        1 IX6      0.008000
     39 C25        -1.8620   -0.6740    6.4590 c3        1 IX6     -0.094100
     40 C10        -0.7140    1.2600    4.3010 c2        1 IX6      0.321800
     41 N11        -0.8250    0.6200    3.1020 nu        1 IX6     -0.590400
     42 H1          0.2180    0.1030   -1.3500 ha        1 IX6      0.138000
     43 H2          2.6500   -0.1830   -0.8660 ha        1 IX6      0.140000
     44 H3          3.4840   -0.0610    1.4670 ha        1 IX6      0.150000
     45 H8          2.5170    1.6550    5.2420 h1        1 IX6      0.127700
     46 H15        -2.8740    0.8940    4.5840 hc        1 IX6      0.088700
     47 H15A       -2.2540    2.5040    5.1300 hc        1 IX6      0.088700
     48 H16         0.1790    3.5530    3.1450 ha        1 IX6      0.149000
     49 H18         0.8930    5.5300    1.8050 ha        1 IX6      0.154000
     50 H24        -3.1760    2.4000    7.3570 hc        1 IX6      0.043367
     51 H24A       -4.0600    0.9350    6.7490 hc        1 IX6      0.043367
     52 H24B       -3.1310    0.8500    8.3030 hc        1 IX6      0.043367
     53 H27         2.6980    8.2450    0.1970 ha        1 IX6      0.122000
     54 H27A        3.8400    9.4690   -0.6100 ha        1 IX6      0.122000
     55 HO29       -1.8120    0.4480   -0.4500 ho        1 IX6      0.431000
     56 H39         2.1290   -5.7420    1.6880 hc        1 IX6      0.070033
     57 H39A        1.4090   -4.4570    0.6130 hc        1 IX6      0.070033
     58 H39B        0.4500   -5.1110    2.0140 hc        1 IX6      0.070033
     59 H40         5.6570   -3.0380    4.2160 hc        1 IX6      0.077033
     60 H40A        4.7390   -4.0310    5.4290 hc        1 IX6      0.077033
     61 H40B        4.7220   -2.2070    5.5500 hc        1 IX6      0.077033
     62 H20         5.0500    4.3770    2.3540 ha        1 IX6      0.152000
     63 H22         5.1890    5.6850    0.5310 h1        1 IX6      0.049200
     64 H22A        5.1320    6.6390    2.1000 h1        1 IX6      0.049200
     65 H28         6.2230    9.1440   -0.5460 hc        1 IX6      0.043700
     66 H28A        6.7840    8.2490    0.9280 hc        1 IX6      0.043700
     67 H28B        6.6490    7.3840   -0.6600 hc        1 IX6      0.043700
     68 H13         0.0280    0.5110    7.4600 h1        1 IX6      0.116200
     69 H13A       -0.9420    1.8030    8.2080 h1        1 IX6      0.116200
     70 H25        -0.9940   -1.0260    5.8510 hc        1 IX6      0.043367
     71 H25A       -1.7680   -1.0910    7.4900 hc        1 IX6      0.043367
     72 H25B       -2.8030   -1.0670    6.0030 hc        1 IX6      0.043367
     73 HN11       -1.7520    0.3560    2.8230 hn        1 IX6      0.454800
@<TRIPOS>BOND
     1    1    2 ar  
     2    1    6 ar  
     3    1   42 1   
     4    2    3 ar  
     5    2   43 1   
     6    3    4 ar  
     7    3   44 1   
     8    4    5 ar  
     9    4   29 1   
    10    5    6 ar  
    11    5   41 1   
    12    6   16 1   
    13    7   10 1   
    14    7   29 1   
    15    7   33 1   
    16    7   45 1   
    17    8   38 1   
    18    8   40 1   
    19    8   46 1   
    20    8   47 1   
    21    9   10 ar  
    22    9   11 ar  
    23    9   48 1   
    24   10   13 ar  
    25   11   12 ar  
    26   11   49 1   
    27   12   24 ar  
    28   12   25 1   
    29   13   23 1   
    30   13   24 ar  
    31   14   38 1   
    32   14   50 1   
    33   14   51 1   
    34   14   52 1   
    35   15   27 2   
    36   15   53 1   
    37   15   54 1   
    38   16   55 1   
    39   17   18 1   
    40   17   29 1   
    41   17   32 2   
    42   18   19 2   
    43   18   30 1   
    44   19   22 1   
    45   19   31 1   
    46   20   21 1   
    47   20   30 2   
    48   20   31 1   
    49   21   56 1   
    50   21   57 1   
    51   21   58 1   
    52   22   59 1   
    53   22   60 1   
    54   22   61 1   
    55   24   62 1   
    56   25   26 1   
    57   26   27 1   
    58   26   63 1   
    59   26   64 1   
    60   27   28 1   
    61   28   65 1   
    62   28   66 1   
    63   28   67 1   
    64   33   34 1   
    65   33   40 2   
    66   34   35 2   
    67   34   36 2   
    68   34   37 1   
    69   37   38 1   
    70   37   68 1   
    71   37   69 1   
    72   38   39 1   
    73   39   70 1   
    74   39   71 1   
    75   39   72 1   
    76   40   41 1   
    77   41   73 1   
@<TRIPOS>SUBSTRUCTURE
     1 IX6         1 TEMP              0 ****  ****    0 ROOT
