@<TRIPOS>MOLECULE
IX6
   73    77     1     0     0
SMALL
bcc


@<TRIPOS>ATOM
      1 C1          0.6860   -2.3740    3.2120 ca        1 IX6     -0.192000
      2 C2          0.4320   -3.0870    2.0440 ca        1 IX6     -0.098000
      3 C3          0.4950   -2.4570    0.8090 ca        1 IX6     -0.129000
      4 C4          0.8250   -1.0890    0.7070 ca        1 IX6      0.093600
      5 C5          1.0880   -0.3380    1.8870 ca        1 IX6      0.112600
      6 C6          1.0060   -1.0180    3.1380 ca        1 IX6      0.099100
      7 C8         -0.0960    0.6490   -0.7550 c3        1 IX6      0.247200
      8 C15         1.5820    3.4060    1.4050 c3        1 IX6     -0.115200
      9 C16        -2.1090    0.8420    0.8010 ca        1 IX6     -0.050000
     10 C17        -1.4990    0.2810   -0.3260 ca        1 IX6     -0.168300
     11 C18        -3.4120    0.5260    1.1550 ca        1 IX6     -0.175000
     12 C19        -4.1410   -0.3830    0.3640 ca        1 IX6      0.162100
     13 C21        -2.2430   -0.6260   -1.1100 ca        1 IX6      0.183900
     14 C27        -7.9990   -0.8650    1.6030 c2        1 IX6     -0.187000
     15 O29         1.2730   -0.2770    4.2730 oh        1 IX6     -0.517100
     16 C34         2.8900   -1.6980   -1.2340 cc        1 IX6      0.168500
     17 C35         3.5150   -2.4930   -2.1990 cd        1 IX6      0.250700
     18 C37         4.4220   -2.8560   -0.1900 cd        1 IX6      0.485700
     19 C39         5.3810   -3.5130    0.7160 c3        1 IX6     -0.123400
     20 C40         3.3570   -2.6730   -3.6410 c3        1 IX6     -0.148400
     21 F41        -1.6990   -1.1920   -2.2130 f         1 IX6     -0.132900
     22 C20        -3.5680   -0.9640   -0.7690 ca        1 IX6     -0.255000
     23 O23        -5.4200   -0.6400    0.8100 os        1 IX6     -0.324900
     24 C22        -6.2220   -1.4710   -0.0420 c3        1 IX6      0.164600
     25 C26        -7.5950   -1.5670    0.5430 c2        1 IX6     -0.139400
     26 C28        -8.4740   -2.5200   -0.1800 c3        1 IX6     -0.061900
     27 N7          0.8420   -0.4590   -0.5590 n         1 IX6     -0.374000
     28 N38         3.4790   -1.9400    0.0210 nc        1 IX6     -0.642000
     29 O36         4.4900   -3.2470   -1.5480 os        1 IX6     -0.386800
     30 O33         1.8140   -0.1120   -2.6070 o         1 IX6     -0.590100
     31 C9          0.3720    1.9370   -0.1420 ce        1 IX6     -0.582300
     32 S12         0.0260    3.3170   -0.9790 sy        1 IX6      1.403900
     33 O30        -0.7930    4.1780   -0.2250 o         1 IX6     -0.664300
     34 O31        -0.4000    3.0700   -2.2910 o         1 IX6     -0.664300
     35 C13         1.6070    4.0030   -1.0480 c3        1 IX6     -0.303600
     36 C14         2.3620    4.0920    0.2730 c3        1 IX6      0.008000
     37 C25         3.7330    3.4430    0.1400 c3        1 IX6     -0.094100
     38 C10         1.1070    2.0130    1.0200 c2        1 IX6      0.321800
     39 N11         1.4720    1.0140    1.8740 nh        1 IX6     -0.590400
     40 H1          0.6310   -2.8710    4.1920 ha        1 IX6      0.138000
     41 H2          0.1760   -4.1560    2.1010 ha        1 IX6      0.140000
     42 H3          0.2870   -3.0330   -0.1070 ha        1 IX6      0.150000
     43 H8         -0.1440    0.8110   -1.8900 h1        1 IX6      0.127700
     44 H15         2.2330    3.4000    2.3190 hc        1 IX6      0.088700
     45 H15A        0.6660    4.0160    1.6550 hc        1 IX6      0.088700
     46 H16        -1.5460    1.5650    1.4150 ha        1 IX6      0.149000
     47 H18        -3.8870    0.9770    2.0370 ha        1 IX6      0.154000
     48 H24         3.0640    5.6270    1.6530 hc        1 IX6      0.043367
     49 H24A        3.1640    6.0800   -0.0990 hc        1 IX6      0.043367
     50 H24B        1.5550    6.0650    0.7430 hc        1 IX6      0.043367
     51 H27        -9.0160   -0.9520    2.0080 ha        1 IX6      0.122000
     52 H27A       -7.3380   -0.1630    2.1280 ha        1 IX6      0.122000
     53 HO29        1.1960   -0.8670    5.0370 ho        1 IX6      0.431000
     54 H39         4.8300   -4.0420    1.5340 hc        1 IX6      0.070033
     55 H39A        5.9960   -4.2540    0.1470 hc        1 IX6      0.070033
     56 H39B        6.0560   -2.7470    1.1720 hc        1 IX6      0.070033
     57 H40         4.3540   -2.6500   -4.1490 hc        1 IX6      0.077033
     58 H40A        2.8720   -3.6580   -3.8570 hc        1 IX6      0.077033
     59 H40B        2.7160   -1.8460   -4.0450 hc        1 IX6      0.077033
     60 H20        -4.1170   -1.6690   -1.4060 ha        1 IX6      0.152000
     61 H22        -6.2710   -1.0150   -1.0680 h1        1 IX6      0.049200
     62 H22A       -5.7540   -2.4910   -0.1030 h1        1 IX6      0.049200
     63 H28        -8.5490   -2.2370   -1.2590 hc        1 IX6      0.044033
     64 H28A       -8.0560   -3.5560   -0.1170 hc        1 IX6      0.044033
     65 H28B       -9.5030   -2.5280    0.2550 hc        1 IX6      0.044033
     66 H13         2.2240    3.4190   -1.7850 h1        1 IX6      0.116200
     67 H13A        1.5300    5.0320   -1.4930 h1        1 IX6      0.116200
     68 H25         3.6300    2.3540   -0.0850 hc        1 IX6      0.043367
     69 H25A        4.3050    3.9270   -0.6870 hc        1 IX6      0.043367
     70 H25B        4.3120    3.5610    1.0870 hc        1 IX6      0.043367
     71 HN11        1.9660    1.2940    2.7000 hn        1 IX6      0.454800
     72 C24         2.5450    5.5540    0.6670 c3        1 IX6     -0.094100
     73 C32         1.8310   -0.7010   -1.5080 c         1 IX6      0.620600
@<TRIPOS>BOND
     1    1    2 ar  
     2    1    6 ar  
     3    1   40 1   
     4    2    3 ar  
     5    2   41 1   
     6    3    4 ar  
     7    3   42 1   
     8    4    5 ar  
     9    4   27 1   
    10    5    6 ar  
    11    5   39 1   
    12    6   15 1   
    13    7   10 1   
    14    7   27 1   
    15    7   31 1   
    16    7   43 1   
    17    8   36 1   
    18    8   38 1   
    19    8   44 1   
    20    8   45 1   
    21    9   10 ar  
    22    9   11 ar  
    23    9   46 1   
    24   10   13 ar  
    25   11   12 ar  
    26   11   47 1   
    27   12   22 ar  
    28   12   23 1   
    29   13   21 1   
    30   13   22 ar  
    31   14   25 2   
    32   14   51 1   
    33   14   52 1   
    34   15   53 1   
    35   16   17 2   
    36   16   28 1   
    37   16   73 1   
    38   17   20 1   
    39   17   29 1   
    40   18   19 1   
    41   18   28 2   
    42   18   29 1   
    43   19   54 1   
    44   19   55 1   
    45   19   56 1   
    46   20   57 1   
    47   20   58 1   
    48   20   59 1   
    49   22   60 1   
    50   23   24 1   
    51   24   25 1   
    52   24   61 1   
    53   24   62 1   
    54   25   26 1   
    55   26   63 1   
    56   26   64 1   
    57   26   65 1   
    58   27   73 1   
    59   30   73 2   
    60   31   32 1   
    61   31   38 2   
    62   32   33 2   
    63   32   34 2   
    64   32   35 1   
    65   35   36 1   
    66   35   66 1   
    67   35   67 1   
    68   36   37 1   
    69   36   72 1   
    70   37   68 1   
    71   37   69 1   
    72   37   70 1   
    73   38   39 1   
    74   39   71 1   
    75   48   72 1   
    76   49   72 1   
    77   50   72 1   
@<TRIPOS>SUBSTRUCTURE
     1 IX6         1 TEMP              0 ****  ****    0 ROOT
