@<TRIPOS>MOLECULE
IX6
   73    67     1     0     0
SMALL
bcc


@<TRIPOS>ATOM
      1 C1         -2.6430   -1.5670   -3.9460 c1        1 IX6     -0.194000
      2 C2         -1.2590   -1.4080   -3.9170 c1        1 IX6     -0.107000
      3 C3         -0.6150   -1.1090   -2.7200 c1        1 IX6     -0.107000
      4 C4         -1.3600   -0.9660   -1.5380 c1        1 IX6      0.095000
      5 C5         -2.7310   -1.1240   -1.5650 c1        1 IX6      0.013000
      6 C6         -3.3820   -1.4270   -2.7810 c1        1 IX6      0.053000
      7 C8         -0.2720   -0.6980    0.5100 c3        1 IX6      0.171000
      8 C15        -3.9610    0.7130    1.4000 c3        1 IX6     -0.198000
      9 C16         0.3790    1.1590   -0.9760 c1        1 IX6     -0.048000
     10 C17         0.7370    0.0250   -0.2500 c2        1 IX6     -0.170000
     11 C18         1.3700    1.9340   -1.6050 c1        1 IX6     -0.177000
     12 C19         2.7210    1.5650   -1.5030 c1        1 IX6      0.119000
     13 C21         2.0920   -0.3440   -0.1480 c2        1 IX6      0.152000
     14 C24        -4.6270    2.1360    3.3460 c3        1 IX6     -0.212500
     15 C27         5.9250    3.6200   -3.4450 c1        1 IX6     -0.188000
     16 O29        -4.7770   -1.5910   -2.8750 oh        1 IX6     -0.274000
     17 C32        -0.6090   -3.0880   -0.2630 c1        1 IX6      0.408000
     18 C34         0.3810   -3.6500    0.7610 c1        1 IX6     -0.165000
     19 C35         0.1070   -4.6290    1.6880 c1        1 IX6     -0.009000
     20 C37         2.2740   -4.2850    1.6700 c1        1 IX6      0.022000
     21 C39         3.7730   -4.4480    1.9450 c2        1 IX6     -0.156000
     22 C40        -1.2640   -5.2800    1.9350 c2        1 IX6     -0.156000
     23 F41         3.0870   -0.9290    0.5510 f         1 IX6     -0.086000
     24 C20         3.0800    0.4300   -0.7760 c1        1 IX6     -0.257000
     25 O23         3.7340    2.2890   -2.2670 os        1 IX6     -0.208000
     26 C22         4.3730    3.3650   -1.5290 c3        1 IX6      0.010000
     27 C26         5.2120    4.2100   -2.4830 c2        1 IX6     -0.130000
     28 C28         5.2370    5.7140   -2.3380 c3        1 IX6     -0.184000
     29 N7         -0.7850   -1.6250   -0.3850 n3        1 IX6     -0.282000
     30 N38         1.7160   -3.4460    0.7580 n2        1 IX6     -0.107000
     31 O36         1.2720   -5.0130    2.2420 os        1 IX6     -0.123000
     32 O33        -1.1000   -3.8290   -1.1010 o         1 IX6     -0.344000
     33 C9         -1.3310    0.3130    0.7700 c2        1 IX6     -1.046000
     34 S12        -0.9210    1.6430    1.8410 s4        1 IX6      2.092800
     35 O30        -0.2330    2.6510    1.0680 o         1 IX6     -0.552900
     36 O31        -0.0360    1.1530    2.8660 o         1 IX6     -0.552900
     37 C13        -2.2850    2.3310    2.6160 c2        1 IX6     -0.840000
     38 C14        -3.4420    1.3740    2.7070 c3        1 IX6      0.008000
     39 C25        -3.0360    0.2320    3.6750 c3        1 IX6     -0.212500
     40 C10        -2.8290   -0.0580    0.5590 c2        1 IX6      0.247000
     41 N11        -3.3820   -0.1090   -0.7750 n3        1 IX6     -0.217000
     42 H1         -3.0920   -1.7770   -4.7850 ha        1 IX6      0.140000
     43 H2         -0.7450   -1.5060   -4.7290 ha        1 IX6      0.153000
     44 H3          0.3460   -0.9990   -2.7020 ha        1 IX6      0.153000
     45 H8          0.2270   -1.0450    1.2860 h1        1 IX6      0.155000
     46 H15        -4.3940    1.3000    0.7250 hc        1 IX6      0.128500
     47 H15A       -4.7270    0.1410    1.6670 hc        1 IX6      0.128500
     48 H16        -0.5780    1.4200   -1.0490 ha        1 IX6      0.145000
     49 H18         1.1220    2.7200   -2.1080 ha        1 IX6      0.154000
     50 H24        -5.3620    1.5030    3.5370 hc        1 IX6      0.082500
     51 H24A       -4.3330    2.5580    4.1830 hc        1 IX6      0.082500
     52 H24B       -4.9450    2.8310    2.7230 hc        1 IX6      0.082500
     53 H27         5.9090    2.6500   -3.5390 DU        1 IX6      0.131000
     54 H27A        6.4610    4.1610   -4.0550 ha        1 IX6      0.113000
     55 HO29       -4.9960   -1.7990   -3.7120 ho        1 IX6      0.231000
     56 H39         4.2820   -3.8340    1.3640 ha        1 IX6      0.109167
     57 H39A        4.0410   -5.3730    1.7580 ha        1 IX6      0.109167
     58 H39B        3.9570   -4.2380    2.8810 ha        1 IX6      0.109167
     59 H40        -1.7410   -4.7840    2.6350 ha        1 IX6      0.109167
     60 H40A       -1.1380   -6.2080    2.2220 ha        1 IX6      0.109167
     61 H40B       -1.7920   -5.2620    1.1020 ha        1 IX6      0.109167
     62 H20         4.0400    0.1690   -0.7040 ha        1 IX6      0.153000
     63 H22         3.6930    3.9240   -1.1160 h1        1 IX6      0.089000
     64 H22A        4.9510    2.9870   -0.8330 h1        1 IX6      0.089000
     65 H28         6.0990    5.9920   -1.9730 hc        1 IX6      0.083000
     66 H28A        5.1070    6.1270   -3.2140 hc        1 IX6      0.083000
     67 H28B        4.5230    5.9950   -1.7380 hc        1 IX6      0.083000
     68 H13        -2.6060    3.2270    2.3600 ha        1 IX6      0.150500
     69 H13A       -1.9580    2.5260    3.5120 ha        1 IX6      0.150500
     70 H25        -2.3180   -0.3130    3.2590 hc        1 IX6      0.082500
     71 H25A       -3.8140   -0.3340    3.8530 hc        1 IX6      0.082500
     72 H25B       -2.7080    0.6190    4.5250 hc        1 IX6      0.082500
     73 HN11       -4.1010    0.3880   -1.0580 hn        1 IX6      0.250000
@<TRIPOS>BOND
     1    1    6 1   
     2    1   42 1   
     3    2    3 1   
     4    2   43 1   
     5    3   44 1   
     6    4    5 1   
     7    4   29 1   
     8    5   41 1   
     9    6   16 1   
    10    7   10 1   
    11    7   29 1   
    12    7   33 1   
    13    7   45 1   
    14    8   38 1   
    15    8   40 1   
    16    8   46 1   
    17    8   47 1   
    18    9   10 1   
    19    9   48 1   
    20   10   13 1   
    21   11   12 1   
    22   11   49 1   
    23   12   25 1   
    24   13   23 1   
    25   13   24 1   
    26   14   38 1   
    27   14   50 1   
    28   14   51 1   
    29   14   52 1   
    30   15   27 1   
    31   15   54 1   
    32   16   55 1   
    33   17   29 1   
    34   17   32 1   
    35   18   19 1   
    36   18   30 1   
    37   19   31 1   
    38   20   30 1   
    39   20   31 1   
    40   21   56 1   
    41   21   57 1   
    42   21   58 1   
    43   22   59 1   
    44   22   60 1   
    45   22   61 1   
    46   24   62 1   
    47   25   26 1   
    48   26   27 1   
    49   26   63 1   
    50   26   64 1   
    51   27   28 1   
    52   28   65 1   
    53   28   66 1   
    54   28   67 1   
    55   33   34 1   
    56   33   40 1   
    57   34   35 1   
    58   34   36 1   
    59   37   38 1   
    60   37   68 1   
    61   37   69 1   
    62   38   39 1   
    63   39   70 1   
    64   39   71 1   
    65   39   72 1   
    66   40   41 1   
    67   41   73 1   
@<TRIPOS>SUBSTRUCTURE
     1 IX6         1 TEMP              0 ****  ****    0 ROOT
