@<TRIPOS>MOLECULE
IXD
   22    22     1     0     0
SMALL
bcc


@<TRIPOS>ATOM
      1 S          -2.9490    0.3940   -0.7740 s6        1 IXD      1.697300
      2 C1          0.2700   -1.0600   -0.3380 c3        1 IXD      0.296900
      3 C2         -0.4430    0.1470    0.3110 c3        1 IXD      0.147100
      4 O2         -1.2650    0.7680   -0.6250 os        1 IXD     -0.602500
      5 C3          0.5330    1.1840    0.9070 c3        1 IXD      0.201300
      6 O3          0.0070    2.4990    0.8060 oh        1 IXD     -0.624800
      7 C4          1.9020    1.1100    0.3330 c2        1 IXD     -0.366200
      8 O1          0.5700   -2.0460    0.6320 oh        1 IXD     -0.643800
      9 C5          2.3230    0.1520   -0.5100 ce        1 IXD      0.066900
     10 O5          1.5030   -0.8400   -1.0020 os        1 IXD     -0.334900
     11 C6          3.7710    0.0080   -0.9920 c         1 IXD      0.929800
     12 O1S        -3.3610    0.2320    0.5520 o         1 IXD     -0.756533
     13 O2S        -3.4310    1.5320   -1.4190 o         1 IXD     -0.756533
     14 O3S        -2.9400   -0.7780   -1.5300 o         1 IXD     -0.756533
     15 O61         4.5140   -0.7670   -0.3260 o         1 IXD     -0.829300
     16 O62         4.1510    0.6870   -1.9820 o         1 IXD     -0.829300
     17 H1         -0.4050   -1.5470   -1.1010 h2        1 IXD      0.116700
     18 H3          0.5960    1.0090    2.0230 h1        1 IXD      0.030700
     19 HO3        -0.3090    2.6060   -0.1020 ho        1 IXD      0.426000
     20 H4          2.5890    1.9070    0.6460 ha        1 IXD      0.129000
     21 HO1         1.3750   -1.7670    1.0860 ho        1 IXD      0.409000
     22 H2         -1.0780   -0.2670    1.1520 h1        1 IXD      0.049700
@<TRIPOS>BOND
     1    1    4 1   
     2    1   12 1   
     3    1   13 1   
     4    1   14 1   
     5    2    3 1   
     6    2    8 1   
     7    2   10 1   
     8    2   17 1   
     9    3    4 1   
    10    3    5 1   
    11    3   22 1   
    12    5    6 1   
    13    5    7 1   
    14    5   18 1   
    15    6   19 1   
    16    7    9 2   
    17    7   20 1   
    18    8   21 1   
    19    9   10 1   
    20    9   11 1   
    21   11   15 1   
    22   11   16 1   
@<TRIPOS>SUBSTRUCTURE
     1 IXD         1 TEMP              0 ****  ****    0 ROOT
