@<TRIPOS>MOLECULE
IXD
   22    22     1     0     0
SMALL
bcc


@<TRIPOS>ATOM
      1 S           0.6310   -0.3240   -0.9490 s6        1 IXD      1.697300
      2 C1          2.0870   -1.4150    2.1090 c3        1 IXD      0.296900
      3 C2          1.8240   -0.0200    1.5000 c3        1 IXD      0.147100
      4 O2          1.9720   -0.0740    0.1170 os        1 IXD     -0.602500
      5 C3          2.7460    1.0780    2.0730 c3        1 IXD      0.201300
      6 O3          3.0360    2.0660    1.0940 oh        1 IXD     -0.624800
      7 C4          3.9930    0.5490    2.6850 c2        1 IXD     -0.366200
      8 O1          1.3670   -1.5790    3.3160 oh        1 IXD     -0.643800
      9 C5          4.2530   -0.7550    2.8730 ce        1 IXD      0.066900
     10 O5          3.4180   -1.7660    2.4490 os        1 IXD     -0.334900
     11 C6          5.4800   -1.2860    3.6240 c         1 IXD      0.929800
     12 O1S        -0.3910    0.4270   -0.3620 o         1 IXD     -0.756533
     13 O2S         1.1340    0.1770   -2.1500 o         1 IXD     -0.756533
     14 O3S         0.4460   -1.7050   -0.8950 o         1 IXD     -0.756533
     15 O61         5.3330   -1.5160    4.8570 o         1 IXD     -0.829300
     16 O62         6.5620   -1.4240    2.9960 o         1 IXD     -0.829300
     17 H1          1.7300   -2.2220    1.4040 h2        1 IXD      0.116700
     18 H3          2.1670    1.6490    2.8600 h1        1 IXD      0.030700
     19 HO3         3.2950    1.5940    0.2890 ho        1 IXD      0.426000
     20 H4          4.7240    1.3060    2.9950 ha        1 IXD      0.129000
     21 HO1         1.8690   -1.1390    4.0130 ho        1 IXD      0.409000
     22 H2          0.7530    0.2470    1.7530 h1        1 IXD      0.049700
@<TRIPOS>BOND
     1    1    4 1   
     2    1   12 1   
     3    1   13 1   
     4    1   14 1   
     5    2    3 1   
     6    2    8 1   
     7    2   10 1   
     8    2   17 1   
     9    3    4 1   
    10    3    5 1   
    11    3   22 1   
    12    5    6 1   
    13    5    7 1   
    14    5   18 1   
    15    6   19 1   
    16    7    9 2   
    17    7   20 1   
    18    8   21 1   
    19    9   10 1   
    20    9   11 1   
    21   11   15 1   
    22   11   16 1   
@<TRIPOS>SUBSTRUCTURE
     1 IXD         1 TEMP              0 ****  ****    0 ROOT
