@<TRIPOS>MOLECULE
IXE
   37    39     1     0     0
SMALL
bcc


@<TRIPOS>ATOM
      1 C3         -0.1100    0.2110    0.0600 ca        1 IXE     -0.064000
      2 C4          1.3120    0.1200    0.0640 ca        1 IXE     -0.278600
      3 C8          2.2030    0.6450    1.0700 ca        1 IXE      0.603200
      4 N6          1.6690    1.3640    2.2510 n4        1 IXE     -0.842300
      5 N5          3.5340    0.5230    1.0110 nb        1 IXE     -0.654000
      6 C7          4.0460   -0.1540   -0.0990 ca        1 IXE      0.776900
      7 N4          5.5320   -0.2870   -0.1580 n4        1 IXE     -0.819300
      8 N3          3.3410   -0.6920   -1.1080 nb        1 IXE     -0.537000
      9 C5          1.9580   -0.5620   -1.0420 ca        1 IXE      0.714300
     10 N2          1.2200   -1.1130   -2.0830 nb        1 IXE     -0.535000
     11 C6         -0.0900   -1.0100   -2.0530 ca        1 IXE      0.509200
     12 C2         -0.8240   -0.3510   -0.9850 ca        1 IXE     -0.059700
     13 N1         -2.2950   -0.3010   -1.0520 n4        1 IXE     -0.427200
     14 C1         -2.8910   -1.6270   -0.6840 c3        1 IXE      0.089100
     15 C9         -2.7630    0.1790   -2.3740 ca        1 IXE     -0.052400
     16 C10        -2.9590    1.5590   -2.5410 ca        1 IXE     -0.158000
     17 C11        -3.4550    2.0450   -3.7610 ca        1 IXE      0.165400
     18 F1         -3.6440    3.3650   -3.9230 f         1 IXE     -0.054400
     19 C12        -3.7600    1.1470   -4.8270 ca        1 IXE      0.158900
     20 F2         -4.2350    1.6060   -5.9890 f         1 IXE     -0.028900
     21 C13        -3.5490   -0.2480   -4.6270 ca        1 IXE      0.165400
     22 F3         -3.8290   -1.1150   -5.6140 f         1 IXE     -0.054400
     23 C14        -3.0520   -0.7290   -3.4030 ca        1 IXE     -0.158000
     24 H1         -0.6270    0.7270    0.8880 ha        1 IXE      0.166000
     25 H2          1.1460    2.1960    1.9380 hn        1 IXE      0.505133
     26 H3          1.0480    0.7350    2.7830 hn        1 IXE      0.505133
     27 H4          5.8120   -0.8020   -1.0160 hn        1 IXE      0.515467
     28 H5          5.9650    0.6530   -0.1730 hn        1 IXE      0.515467
     29 H6         -0.6260   -1.4600   -2.9250 h4        1 IXE      0.112100
     30 H7         -2.7140   -1.8140    0.4090 hx        1 IXE      0.126033
     31 H8         -2.4240   -2.4470   -1.2910 hx        1 IXE      0.126033
     32 H9         -3.9990   -1.5890   -0.8920 hx        1 IXE      0.126033
     33 H10        -2.7600    2.2920   -1.7420 ha        1 IXE      0.177500
     34 H11        -2.9380   -1.8210   -3.2950 ha        1 IXE      0.177500
     35 H63         2.4330    1.6790    2.8830 hn        1 IXE      0.505133
     36 H43         5.8680   -0.8050    0.6720 hn        1 IXE      0.515467
     37 H111       -2.6290    0.3910   -0.3580 hn        1 IXE      0.469800
@<TRIPOS>BOND
     1    1    2 ar  
     2    1   12 ar  
     3    1   24 1   
     4    2    3 ar  
     5    2    9 ar  
     6    3    4 1   
     7    3    5 ar  
     8    4   25 1   
     9    4   26 1   
    10    4   35 1   
    11    5    6 ar  
    12    6    7 1   
    13    6    8 ar  
    14    7   27 1   
    15    7   28 1   
    16    7   36 1   
    17    8    9 ar  
    18    9   10 ar  
    19   10   11 ar  
    20   11   12 ar  
    21   11   29 1   
    22   12   13 1   
    23   13   14 1   
    24   13   15 1   
    25   13   37 1   
    26   14   30 1   
    27   14   31 1   
    28   14   32 1   
    29   15   16 ar  
    30   15   23 ar  
    31   16   17 ar  
    32   16   33 1   
    33   17   18 1   
    34   17   19 ar  
    35   19   20 1   
    36   19   21 ar  
    37   21   22 1   
    38   21   23 ar  
    39   23   34 1   
@<TRIPOS>SUBSTRUCTURE
     1 IXE         1 TEMP              0 ****  ****    0 ROOT
