@<TRIPOS>MOLECULE
IXE
   34    36     1     0     0
SMALL
bcc


@<TRIPOS>ATOM
      1 C3         -0.0490   -0.0540   -0.0700 ca        1 IXE     -0.026000
      2 C4          1.3560   -0.1730   -0.0200 ca        1 IXE     -0.391600
      3 C8          2.0850   -0.7980    1.0770 ca        1 IXE      0.745200
      4 N6          1.3970   -1.3070    2.1660 nv        1 IXE     -0.948500
      5 N5          3.4340   -0.8600    1.0870 nb        1 IXE     -0.830000
      6 C7          4.1060   -0.2600    0.0130 ca        1 IXE      0.932900
      7 N4          5.4930   -0.2190    0.1000 nv        1 IXE     -0.937500
      8 N3          3.5230    0.3100   -1.0910 nb        1 IXE     -0.768000
      9 C5          2.1510    0.3530   -1.1030 ca        1 IXE      0.722300
     10 N2          1.5300    0.9300   -2.2160 nb        1 IXE     -0.645000
     11 C6          0.2180    1.0070   -2.2270 ca        1 IXE      0.440200
     12 C2         -0.6510    0.5430   -1.1700 ca        1 IXE     -0.065700
     13 N1         -2.0650    0.6910   -1.2330 nh        1 IXE     -0.530400
     14 C1         -2.6050    1.8010   -0.4850 c3        1 IXE      0.187100
     15 C9         -2.7170    0.2960   -2.4150 ca        1 IXE      0.200600
     16 C10        -3.9600    0.8550   -2.7840 ca        1 IXE     -0.222000
     17 C11        -4.6520    0.3730   -3.9040 ca        1 IXE      0.154400
     18 F1         -5.8450    0.9170   -4.2340 f         1 IXE     -0.119900
     19 C12        -4.1180   -0.6700   -4.6960 ca        1 IXE      0.014900
     20 F2         -4.7850   -1.1330   -5.7760 f         1 IXE     -0.113900
     21 C13        -2.8620   -1.2170   -4.3290 ca        1 IXE      0.154400
     22 F3         -2.3280   -2.2120   -5.0730 f         1 IXE     -0.119900
     23 C14        -2.1720   -0.7390   -3.2100 ca        1 IXE     -0.222000
     24 H1         -0.6750   -0.4140    0.7620 ha        1 IXE      0.141000
     25 H2          0.4540   -1.5710    2.0220 hn        1 IXE      0.430300
     26 H3          1.9050   -1.8210    2.8480 hn        1 IXE      0.430300
     27 H4          6.0030    0.0240   -0.7160 hn        1 IXE      0.440800
     28 H5          5.9380   -0.7920    0.7750 hn        1 IXE      0.440800
     29 H6         -0.2240    1.4660   -3.1350 h4        1 IXE      0.034100
     30 H7         -1.9680    1.9740    0.4220 h1        1 IXE      0.047367
     31 H8         -2.6390    2.7490   -1.0890 h1        1 IXE      0.047367
     32 H9         -3.6450    1.5410   -0.1530 h1        1 IXE      0.047367
     33 H10        -4.4190    1.6740   -2.2110 ha        1 IXE      0.163500
     34 H11        -1.2000   -1.1920   -2.9580 ha        1 IXE      0.163500
@<TRIPOS>BOND
     1    1    2 ar  
     2    1   12 ar  
     3    1   24 1   
     4    2    3 ar  
     5    2    9 ar  
     6    3    4 1   
     7    3    5 ar  
     8    4   25 1   
     9    4   26 1   
    10    5    6 ar  
    11    6    7 1   
    12    6    8 ar  
    13    7   27 1   
    14    7   28 1   
    15    8    9 ar  
    16    9   10 ar  
    17   10   11 ar  
    18   11   12 ar  
    19   11   29 1   
    20   12   13 1   
    21   13   14 1   
    22   13   15 1   
    23   14   30 1   
    24   14   31 1   
    25   14   32 1   
    26   15   16 ar  
    27   15   23 ar  
    28   16   17 ar  
    29   16   33 1   
    30   17   18 1   
    31   17   19 ar  
    32   19   20 1   
    33   19   21 ar  
    34   21   22 1   
    35   21   23 ar  
    36   23   34 1   
@<TRIPOS>SUBSTRUCTURE
     1 IXE         1 TEMP              0 ****  ****    0 ROOT
