@<TRIPOS>MOLECULE
IXE
   34    36     1     0     0
SMALL
bcc


@<TRIPOS>ATOM
      1 C3         -0.0900   -0.0700   -0.3690 ca        1 IXE     -0.022000
      2 C4          1.3040   -0.2000   -0.1980 ca        1 IXE     -0.394600
      3 C8          1.9380   -1.2560    0.5840 ca        1 IXE      0.752200
      4 N6          1.1720   -2.2510    1.1590 nh        1 IXE     -0.954500
      5 N5          3.2800   -1.3250    0.7250 nb        1 IXE     -0.832000
      6 C7          4.0400   -0.3450    0.0740 ca        1 IXE      0.934900
      7 N4          5.4130   -0.3870    0.2900 nh        1 IXE     -0.937500
      8 N3          3.5530    0.6720   -0.7100 nb        1 IXE     -0.770000
      9 C5          2.1880    0.7480   -0.8340 ca        1 IXE      0.725300
     10 N2          1.6660    1.7860   -1.6110 nb        1 IXE     -0.646000
     11 C6          0.3610    1.8660   -1.7470 ca        1 IXE      0.440200
     12 C2         -0.5950    0.9630   -1.1490 ca        1 IXE     -0.069700
     13 N1         -1.9970    1.1570   -1.3020 nh        1 IXE     -0.526400
     14 C1         -2.4650    2.4980   -1.0420 c3        1 IXE      0.183100
     15 C9         -2.6690    0.4020   -2.2820 ca        1 IXE      0.202600
     16 C10        -3.9680    0.7680   -2.7020 ca        1 IXE     -0.223500
     17 C11        -4.6800   -0.0370   -3.6000 ca        1 IXE      0.154900
     18 F1         -5.9240    0.3290   -3.9830 f         1 IXE     -0.120400
     19 C12        -4.1140   -1.2280   -4.1170 ca        1 IXE      0.013900
     20 F2         -4.8010   -2.0040   -4.9830 f         1 IXE     -0.113900
     21 C13        -2.8050   -1.5820   -3.7040 ca        1 IXE      0.154900
     22 F3         -2.2380   -2.7100   -4.1880 f         1 IXE     -0.120400
     23 C14        -2.0940   -0.7780   -2.8060 ca        1 IXE     -0.223500
     24 H1         -0.7880   -0.7820    0.0990 ha        1 IXE      0.142000
     25 H2          0.2060   -2.0780    1.2910 hn        1 IXE      0.435300
     26 H3          1.6060   -2.9040    1.7680 hn        1 IXE      0.435300
     27 H4          5.8020   -1.2140    0.6720 hn        1 IXE      0.441300
     28 H5          5.9900    0.1770   -0.2870 hn        1 IXE      0.441300
     29 H6         -0.0000    2.7080   -2.3720 h4        1 IXE      0.029100
     30 H7         -3.4720    2.4350   -0.5490 h1        1 IXE      0.048367
     31 H8         -2.5550    3.1100   -1.9810 h1        1 IXE      0.048367
     32 H9         -1.7550    3.0130   -0.3420 h1        1 IXE      0.048367
     33 H10        -4.4580    1.6830   -2.3360 ha        1 IXE      0.162500
     34 H11        -1.0770   -1.0880   -2.5210 ha        1 IXE      0.162500
@<TRIPOS>BOND
     1    1    2 ar  
     2    1   12 ar  
     3    1   24 1   
     4    2    3 ar  
     5    2    9 ar  
     6    3    4 1   
     7    3    5 ar  
     8    4   25 1   
     9    4   26 1   
    10    5    6 ar  
    11    6    7 1   
    12    6    8 ar  
    13    7   27 1   
    14    7   28 1   
    15    8    9 ar  
    16    9   10 ar  
    17   10   11 ar  
    18   11   12 ar  
    19   11   29 1   
    20   12   13 1   
    21   13   14 1   
    22   13   15 1   
    23   14   30 1   
    24   14   31 1   
    25   14   32 1   
    26   15   16 ar  
    27   15   23 ar  
    28   16   17 ar  
    29   16   33 1   
    30   17   18 1   
    31   17   19 ar  
    32   19   20 1   
    33   19   21 ar  
    34   21   22 1   
    35   21   23 ar  
    36   23   34 1   
@<TRIPOS>SUBSTRUCTURE
     1 IXE         1 TEMP              0 ****  ****    0 ROOT
