@<TRIPOS>MOLECULE
IXE
   34    36     1     0     0
SMALL
bcc


@<TRIPOS>ATOM
      1 C3          1.6320   -1.1930   -0.2290 ca        1 IXE     -0.026000
      2 C4          2.8120   -0.4200   -0.2270 ca        1 IXE     -0.391600
      3 C8          4.0610   -0.8300   -0.8590 ca        1 IXE      0.745200
      4 N6          4.1430   -2.0540   -1.5010 nh        1 IXE     -0.948500
      5 N5          5.1690   -0.0610   -0.8030 nb        1 IXE     -0.830000
      6 C7          5.0800    1.1320   -0.0740 ca        1 IXE      0.932900
      7 N4          6.2610    1.8480    0.0830 nh        1 IXE     -0.937500
      8 N3          3.9490    1.6380    0.5170 nb        1 IXE     -0.768000
      9 C5          2.8200    0.8600    0.4400 ca        1 IXE      0.722300
     10 N2          1.6530    1.3510    1.0350 nb        1 IXE     -0.645000
     11 C6          0.5730    0.6020    0.9980 ca        1 IXE      0.440200
     12 C2          0.4880   -0.7040    0.3870 ca        1 IXE     -0.065700
     13 N1         -0.7080   -1.4760    0.4140 nh        1 IXE     -0.530400
     14 C1         -0.7550   -2.5090    1.4210 c3        1 IXE      0.186100
     15 C9         -1.9090   -0.8430    0.0440 ca        1 IXE      0.200600
     16 C10        -3.1550   -1.3110    0.5150 ca        1 IXE     -0.222000
     17 C11        -4.3490   -0.7440    0.0500 ca        1 IXE      0.154400
     18 F1         -5.5320   -1.2130    0.5080 f         1 IXE     -0.119900
     19 C12        -4.3350    0.3170   -0.8870 ca        1 IXE      0.014900
     20 F2         -5.4860    0.8640   -1.3330 f         1 IXE     -0.113900
     21 C13        -3.0790    0.7920   -1.3450 ca        1 IXE      0.154400
     22 F3         -3.0390    1.8080   -2.2360 f         1 IXE     -0.119900
     23 C14        -1.8880    0.2240   -0.8840 ca        1 IXE     -0.222000
     24 H1          1.6120   -2.1890   -0.6990 ha        1 IXE      0.141000
     25 H2          3.2980   -2.4480   -1.8370 hn        1 IXE      0.430300
     26 H3          4.9670   -2.2650   -2.0140 hn        1 IXE      0.430300
     27 H4          7.0320    1.6140   -0.4940 hn        1 IXE      0.440800
     28 H5          6.1990    2.7780    0.4250 hn        1 IXE      0.440800
     29 H6         -0.3260    1.0410    1.4770 h4        1 IXE      0.034100
     30 H7         -1.1630   -2.1360    2.4000 h1        1 IXE      0.047367
     31 H8         -1.4040   -3.3460    1.0490 h1        1 IXE      0.047367
     32 H9          0.2820   -2.9020    1.5880 h1        1 IXE      0.047367
     33 H10        -3.2270   -2.1270    1.2490 ha        1 IXE      0.163500
     34 H11        -0.9340    0.6220   -1.2650 ha        1 IXE      0.163500
@<TRIPOS>BOND
     1    1    2 ar  
     2    1   12 ar  
     3    1   24 1   
     4    2    3 ar  
     5    2    9 ar  
     6    3    4 1   
     7    3    5 ar  
     8    4   25 1   
     9    4   26 1   
    10    5    6 ar  
    11    6    7 1   
    12    6    8 ar  
    13    7   27 1   
    14    7   28 1   
    15    8    9 ar  
    16    9   10 ar  
    17   10   11 ar  
    18   11   12 ar  
    19   11   29 1   
    20   12   13 1   
    21   13   14 1   
    22   13   15 1   
    23   14   30 1   
    24   14   31 1   
    25   14   32 1   
    26   15   16 ar  
    27   15   23 ar  
    28   16   17 ar  
    29   16   33 1   
    30   17   18 1   
    31   17   19 ar  
    32   19   20 1   
    33   19   21 ar  
    34   21   22 1   
    35   21   23 ar  
    36   23   34 1   
@<TRIPOS>SUBSTRUCTURE
     1 IXE         1 TEMP              0 ****  ****    0 ROOT
