@<TRIPOS>MOLECULE
IXF
   46    48     1     0     0
SMALL
bcc


@<TRIPOS>ATOM
      1 CAA        -0.0660   -0.3340    0.3490 c3        1 IXF     -0.097600
      2 CAV         1.4530   -0.3450    0.3530 c3        1 IXF     -0.051400
      3 CAB         1.9830   -0.5180    1.7640 c3        1 IXF     -0.097600
      4 CAQ         1.9740   -1.4210   -0.5480 ca        1 IXF      0.041700
      5 CAG         1.6940   -2.7750   -0.2930 ca        1 IXF     -0.101000
      6 CAI         2.1590   -3.7760   -1.1360 ca        1 IXF     -0.101000
      7 CAF         2.7450   -1.0920   -1.6750 ca        1 IXF     -0.101000
      8 CAH         3.2210   -2.0750   -2.5350 ca        1 IXF     -0.101000
      9 CAR         2.9250   -3.4260   -2.2680 ca        1 IXF     -0.123400
     10 NAW         3.3410   -4.4990   -3.1960 n4        1 IXF     -0.423200
     11 CAC         3.3310   -4.0500   -4.6250 c3        1 IXF      0.091100
     12 CAS         4.6560   -5.0580   -2.8370 ca        1 IXF     -0.050700
     13 CAK         4.9190   -6.4170   -2.8740 ca        1 IXF     -0.075000
     14 C5          6.2150   -6.8890   -2.5170 ca        1 IXF     -0.275600
     15 C6          6.6520   -8.2620   -2.5040 ca        1 IXF      0.599200
     16 NAE         5.7220   -9.3520   -2.8830 n4        1 IXF     -0.841300
     17 N1          7.8900   -8.6390   -2.1610 nb        1 IXF     -0.657000
     18 C2          8.7690   -7.6150   -1.8030 ca        1 IXF      0.770900
     19 NAD        10.1490   -8.0400   -1.4230 n4        1 IXF     -0.818300
     20 N3          8.5020   -6.2990   -1.7670 nb        1 IXF     -0.538000
     21 C4          7.2150   -5.9130   -2.1240 ca        1 IXF      0.712300
     22 NAL         6.9260   -4.5540   -2.0860 nb        1 IXF     -0.542000
     23 CAJ         5.7180   -4.1570   -2.4210 ca        1 IXF      0.513200
     24 H1         -0.4740   -1.2920    0.7510 hc        1 IXF      0.056867
     25 H2         -0.4590   -0.1780   -0.6840 hc        1 IXF      0.056867
     26 H3         -0.4310    0.5020    0.9960 hc        1 IXF      0.056867
     27 H4          1.8100    0.6540   -0.0350 hc        1 IXF      0.083700
     28 H5          3.0990   -0.5020    1.7740 hc        1 IXF      0.056867
     29 H6          1.6300   -1.4790    2.2100 hc        1 IXF      0.056867
     30 H7          1.6120    0.3220    2.4040 hc        1 IXF      0.056867
     31 H8          1.0820   -3.0460    0.5880 ha        1 IXF      0.190500
     32 H9          1.9020   -4.8240   -0.9130 ha        1 IXF      0.149500
     33 H10         2.9690   -0.0310   -1.8940 ha        1 IXF      0.190500
     34 H11         3.8000   -1.7680   -3.4210 ha        1 IXF      0.149500
     35 H12         3.4020   -4.9490   -5.2920 hx        1 IXF      0.121033
     36 H13         2.3630   -3.5030   -4.8160 hx        1 IXF      0.121033
     37 H14         4.1930   -3.3590   -4.8220 hx        1 IXF      0.121033
     38 H15         4.1370   -7.1360   -3.1750 ha        1 IXF      0.164000
     39 H16         4.9120   -9.3470   -2.2440 hn        1 IXF      0.503800
     40 H17         5.4060   -9.2100   -3.8540 hn        1 IXF      0.503800
     41 H18        10.5930   -8.5310   -2.2180 hn        1 IXF      0.513800
     42 H19        10.1050   -8.6770   -0.6100 hn        1 IXF      0.513800
     43 H20         5.5380   -3.0530   -2.3540 h4        1 IXF      0.117100
     44 HAW1        2.6370   -5.2520   -3.1010 hn        1 IXF      0.464800
     45 HAE3        6.1810  -10.2830   -2.8210 hn        1 IXF      0.503800
     46 HAD3       10.7230   -7.2100   -1.1740 hn        1 IXF      0.513800
@<TRIPOS>BOND
     1    1    2 1   
     2    1   24 1   
     3    1   25 1   
     4    1   26 1   
     5    2    3 1   
     6    2    4 1   
     7    2   27 1   
     8    3   28 1   
     9    3   29 1   
    10    3   30 1   
    11    4    5 ar  
    12    4    7 ar  
    13    5    6 ar  
    14    5   31 1   
    15    6    9 ar  
    16    6   32 1   
    17    7    8 ar  
    18    7   33 1   
    19    8    9 ar  
    20    8   34 1   
    21    9   10 1   
    22   10   11 1   
    23   10   12 1   
    24   10   44 1   
    25   11   35 1   
    26   11   36 1   
    27   11   37 1   
    28   12   13 ar  
    29   12   23 ar  
    30   13   14 ar  
    31   13   38 1   
    32   14   15 ar  
    33   14   21 ar  
    34   15   16 1   
    35   15   17 ar  
    36   16   39 1   
    37   16   40 1   
    38   16   45 1   
    39   17   18 ar  
    40   18   19 1   
    41   18   20 ar  
    42   19   41 1   
    43   19   42 1   
    44   19   46 1   
    45   20   21 ar  
    46   21   22 ar  
    47   22   23 ar  
    48   23   43 1   
@<TRIPOS>SUBSTRUCTURE
     1 IXF         1 TEMP              0 ****  ****    0 ROOT
