@<TRIPOS>MOLECULE
IXF
   43    45     1     0     0
SMALL
bcc


@<TRIPOS>ATOM
      1 CAA        -6.8540   -0.1810   -0.4160 c3        1 IXF     -0.088600
      2 CAV        -5.7860   -0.8260    0.4480 c3        1 IXF     -0.024400
      3 CAB        -5.7490   -2.3250    0.2170 c3        1 IXF     -0.088600
      4 CAQ        -4.4460   -0.2110    0.1930 ca        1 IXF     -0.069300
      5 CAG        -3.8510   -0.2780   -1.0720 ca        1 IXF     -0.121000
      6 CAI        -2.6050    0.2920   -1.3100 ca        1 IXF     -0.131500
      7 CAF        -3.7640    0.4440    1.2240 ca        1 IXF     -0.121000
      8 CAH        -2.5160    1.0160    1.0020 ca        1 IXF     -0.131500
      9 CAR        -1.9150    0.9480   -0.2700 ca        1 IXF      0.092600
     10 NAW        -0.6540    1.5700   -0.5510 nh        1 IXF     -0.516400
     11 CAC        -0.5530    2.9390   -0.1000 c3        1 IXF      0.176100
     12 CAS         0.4940    0.7610   -0.3950 ca        1 IXF     -0.005700
     13 CAK         1.7460    1.2650   -0.0590 ca        1 IXF     -0.115000
     14 C5          2.8720    0.4110   -0.0370 ca        1 IXF     -0.347600
     15 C6          4.2250    0.8490    0.2800 ca        1 IXF      0.721200
     16 NAE         4.4840    2.1970    0.5100 nh        1 IXF     -0.940500
     17 N1          5.2630   -0.0110    0.2940 nb        1 IXF     -0.818000
     18 C2          4.9890   -1.3490   -0.0260 ca        1 IXF      0.900900
     19 NAD         6.0640   -2.2420    0.0850 nh        1 IXF     -0.923500
     20 N3          3.7710   -1.8620   -0.3690 nb        1 IXF     -0.753000
     21 C4          2.7100   -0.9820   -0.3580 ca        1 IXF      0.690300
     22 NAL         1.4470   -1.4850   -0.6780 nb        1 IXF     -0.635000
     23 CAJ         0.4280   -0.6580   -0.6880 ca        1 IXF      0.434200
     24 H1         -6.6340   -0.3420   -1.5000 hc        1 IXF      0.037867
     25 H2         -7.8510   -0.6280   -0.1860 hc        1 IXF      0.037867
     26 H3         -6.9010    0.9170   -0.2240 hc        1 IXF      0.037867
     27 H4         -6.0620   -0.6480    1.5280 hc        1 IXF      0.051700
     28 H5         -5.4950   -2.5540   -0.8460 hc        1 IXF      0.037867
     29 H6         -4.9840   -2.8010    0.8750 hc        1 IXF      0.037867
     30 H7         -6.7470   -2.7700    0.4480 hc        1 IXF      0.037867
     31 H8         -4.3770   -0.7890   -1.8940 ha        1 IXF      0.136500
     32 H9         -2.1610    0.2320   -2.3170 ha        1 IXF      0.141500
     33 H10        -4.2160    0.5070    2.2260 ha        1 IXF      0.136500
     34 H11        -2.0000    1.5260    1.8310 ha        1 IXF      0.141500
     35 H12        -0.2510    3.0260    0.9790 h1        1 IXF      0.041700
     36 H13         0.2080    3.4650   -0.7350 h1        1 IXF      0.041700
     37 H14        -1.5470    3.4420   -0.2360 h1        1 IXF      0.041700
     38 H15         1.8670    2.3330    0.1730 ha        1 IXF      0.131000
     39 H16         3.7330    2.7270    0.8810 hn        1 IXF      0.419800
     40 H17         5.3880    2.4380    0.8490 hn        1 IXF      0.419800
     41 H18         6.9740   -1.8450    0.0370 hn        1 IXF      0.425300
     42 H19         5.9490   -3.1230   -0.3620 hn        1 IXF      0.425300
     43 H20        -0.5490   -1.1160   -0.9470 h4        1 IXF      0.036100
@<TRIPOS>BOND
     1    1    2 1   
     2    1   24 1   
     3    1   25 1   
     4    1   26 1   
     5    2    3 1   
     6    2    4 1   
     7    2   27 1   
     8    3   28 1   
     9    3   29 1   
    10    3   30 1   
    11    4    5 ar  
    12    4    7 ar  
    13    5    6 ar  
    14    5   31 1   
    15    6    9 ar  
    16    6   32 1   
    17    7    8 ar  
    18    7   33 1   
    19    8    9 ar  
    20    8   34 1   
    21    9   10 1   
    22   10   11 1   
    23   10   12 1   
    24   11   35 1   
    25   11   36 1   
    26   11   37 1   
    27   12   13 ar  
    28   12   23 ar  
    29   13   14 ar  
    30   13   38 1   
    31   14   15 ar  
    32   14   21 ar  
    33   15   16 1   
    34   15   17 ar  
    35   16   39 1   
    36   16   40 1   
    37   17   18 ar  
    38   18   19 1   
    39   18   20 ar  
    40   19   41 1   
    41   19   42 1   
    42   20   21 ar  
    43   21   22 ar  
    44   22   23 ar  
    45   23   43 1   
@<TRIPOS>SUBSTRUCTURE
     1 IXF         1 TEMP              0 ****  ****    0 ROOT
