@<TRIPOS>MOLECULE
IXF
   43    38     1     0     0
SMALL
bcc


@<TRIPOS>ATOM
      1 CAA        -1.9040   -4.9300    2.1870 c3        1 IXF     -0.206500
      2 CAV        -1.3160   -3.9290    3.1550 c3        1 IXF     -0.071000
      3 CAB        -2.3910   -3.4570    4.1100 c3        1 IXF     -0.206500
      4 CAQ        -0.7700   -2.7450    2.3860 c2        1 IXF     -0.063000
      5 CAG        -1.6380   -1.8870    1.7310 c2        1 IXF     -0.116000
      6 CAI        -1.1480   -0.7530    1.1020 c1        1 IXF     -0.146000
      7 CAF         0.5890   -2.4700    2.4130 c1        1 IXF     -0.124000
      8 CAH         1.0780   -1.3360    1.7840 c1        1 IXF     -0.119000
      9 CAR         0.2100   -0.4770    1.1290 c1        1 IXF      0.012000
     10 NAW         0.6950    0.7440    0.5920 n3        1 IXF     -0.195000
     11 CAC         0.9790    1.8380    1.4570 c3        1 IXF     -0.100000
     12 CAS         0.9220    0.8650   -0.8040 c2        1 IXF     -0.022000
     13 CAK         0.1610    1.7320   -1.5320 c2        1 IXF     -0.115000
     14 C5          0.7160    2.3980   -2.6220 c1        1 IXF     -0.216000
     15 C6         -0.0500    3.2900   -3.3580 c2        1 IXF      0.199000
     16 NAE        -1.3920    3.5530   -2.9780 n3        1 IXF     -0.337000
     17 N1          0.4930    3.9400   -4.4040 n1        1 IXF     -0.293000
     18 C2          1.8030    3.7220   -4.7430 c1        1 IXF      0.140000
     19 NAD         2.3780    4.4220   -5.8360 n2        1 IXF     -0.322000
     20 N3          2.5600    2.8440   -4.0200 n1        1 IXF     -0.168500
     21 C4          2.0140    2.1820   -2.9590 c1        1 IXF      0.140000
     22 NAL         2.7870    1.2990   -2.2170 n1        1 IXF     -0.168500
     23 CAJ         2.2450    0.6470   -1.1500 c1        1 IXF     -0.034000
     24 H1         -2.2000   -5.7230    2.6790 hc        1 IXF      0.077000
     25 H2         -2.6690   -4.5270    1.7260 hc        1 IXF      0.077000
     26 H3         -1.2240   -5.1880    1.5290 hc        1 IXF      0.077000
     27 H4         -0.5940   -4.3490    3.6600 hc        1 IXF      0.092000
     28 H5         -2.8930   -4.2300    4.4440 hc        1 IXF      0.077000
     29 H6         -3.0010   -2.8480    3.6410 hc        1 IXF      0.077000
     30 H7         -1.9760   -2.9870    4.8630 hc        1 IXF      0.077000
     31 H8         -2.5940   -2.0810    1.7120 ha        1 IXF      0.136000
     32 H9         -1.7590   -0.1480    0.6400 ha        1 IXF      0.136000
     33 H10         1.2000   -3.0740    2.8750 ha        1 IXF      0.137000
     34 H11         2.0350   -1.1420    1.8030 ha        1 IXF      0.147000
     35 H12         1.1290    1.5050    2.3690 h1        1 IXF      0.082000
     36 H13         0.2200    2.4610    1.4580 h1        1 IXF      0.082000
     37 H14         1.7830    2.3040    1.1430 h1        1 IXF      0.082000
     38 H15        -0.7620    1.9100   -1.2710 ha        1 IXF      0.133000
     39 H16        -1.8970    4.1380   -3.4630 hn        1 IXF      0.214500
     40 H17        -1.7460    3.1460   -2.2410 hn        1 IXF      0.214500
     41 H18         1.9050    5.0830   -6.2560 hn        1 IXF      0.221000
     42 H19         3.2280    4.2240   -6.1100 hn        1 IXF      0.221000
     43 H20         2.7930    0.0370   -0.6230 ha        1 IXF      0.174000
@<TRIPOS>BOND
     1    1    2 1   
     2    1   24 1   
     3    1   25 1   
     4    1   26 1   
     5    2    3 1   
     6    2    4 1   
     7    2   27 1   
     8    3   28 1   
     9    3   29 1   
    10    3   30 1   
    11    4    5 1   
    12    4    7 1   
    13    5    6 1   
    14    5   31 1   
    15    6   32 1   
    16    7   33 1   
    17    8    9 1   
    18    8   34 1   
    19    9   10 1   
    20   10   11 1   
    21   10   12 1   
    22   11   35 1   
    23   11   36 1   
    24   11   37 1   
    25   12   13 1   
    26   12   23 1   
    27   13   14 1   
    28   13   38 1   
    29   14   15 1   
    30   15   16 1   
    31   15   17 1   
    32   16   39 1   
    33   16   40 1   
    34   18   20 1   
    35   19   41 1   
    36   19   42 1   
    37   21   22 1   
    38   23   43 1   
@<TRIPOS>SUBSTRUCTURE
     1 IXF         1 TEMP              0 ****  ****    0 ROOT
