@<TRIPOS>MOLECULE
IXF
   43    45     1     0     0
SMALL
bcc


@<TRIPOS>ATOM
      1 CAA         0.0530    0.0850    0.1130 c3        1 IXF     -0.088600
      2 CAV         1.5470    0.0550   -0.1450 c3        1 IXF     -0.024400
      3 CAB         2.3130    0.3410    1.1330 c3        1 IXF     -0.088600
      4 CAQ         1.9640   -1.2540   -0.7380 ca        1 IXF     -0.069300
      5 CAG         1.7840   -2.4520   -0.0380 ca        1 IXF     -0.121000
      6 CAI         2.1720   -3.6690   -0.5890 ca        1 IXF     -0.131500
      7 CAF         2.5450   -1.2970   -2.0100 ca        1 IXF     -0.121000
      8 CAH         2.9420   -2.5060   -2.5720 ca        1 IXF     -0.131500
      9 CAR         2.7620   -3.7130   -1.8680 ca        1 IXF      0.092600
     10 NAW         3.1090   -4.9840   -2.4340 nh        1 IXF     -0.516400
     11 CAC         2.6180   -5.1900   -3.7770 c3        1 IXF      0.176100
     12 CAS         4.4070   -5.4650   -2.1490 ca        1 IXF     -0.005700
     13 CAK         5.1140   -6.3100   -2.9980 ca        1 IXF     -0.115000
     14 C5          6.3570   -6.8460   -2.5910 ca        1 IXF     -0.347600
     15 C6          7.1600   -7.7550   -3.3990 ca        1 IXF      0.721200
     16 NAE         6.6770   -8.2090   -4.6230 nh        1 IXF     -0.940500
     17 N1          8.3440   -8.2310   -2.9650 nb        1 IXF     -0.818000
     18 C2          8.7670   -7.8260   -1.6910 ca        1 IXF      0.900900
     19 NAD        10.0430   -8.2570   -1.2990 nh        1 IXF     -0.923500
     20 N3          8.0850   -7.0060   -0.8380 nb        1 IXF     -0.753000
     21 C4          6.8860   -6.5050   -1.2980 ca        1 IXF      0.690300
     22 NAL         6.1780   -5.6430   -0.4570 nb        1 IXF     -0.635000
     23 CAJ         5.0270   -5.1680   -0.8720 ca        1 IXF      0.433200
     24 H1         -0.2440    1.0810    0.5210 hc        1 IXF      0.037867
     25 H2         -0.5100   -0.0950   -0.8340 hc        1 IXF      0.037867
     26 H3         -0.2350   -0.7020    0.8510 hc        1 IXF      0.037867
     27 H4          1.7870    0.8760   -0.8830 hc        1 IXF      0.051700
     28 H5          2.0970   -0.4360    1.9050 hc        1 IXF      0.037867
     29 H6          2.0160    1.3380    1.5400 hc        1 IXF      0.037867
     30 H7          3.4120    0.3490    0.9360 hc        1 IXF      0.037867
     31 H8          1.3260   -2.4330    0.9630 ha        1 IXF      0.136500
     32 H9          2.0120   -4.5990   -0.0200 ha        1 IXF      0.141500
     33 H10         2.6960   -0.3640   -2.5760 ha        1 IXF      0.136500
     34 H11         3.3970   -2.5130   -3.5750 ha        1 IXF      0.141500
     35 H12         1.6080   -4.7130   -3.8740 h1        1 IXF      0.041700
     36 H13         2.5140   -6.2940   -3.9500 h1        1 IXF      0.041700
     37 H14         3.2960   -4.7600   -4.5650 h1        1 IXF      0.041700
     38 H15         4.7000   -6.5780   -3.9810 ha        1 IXF      0.131000
     39 H16         6.0570   -7.5990   -5.1000 hn        1 IXF      0.419800
     40 H17         7.3040   -8.7210   -5.2010 hn        1 IXF      0.419800
     41 H18        10.2490   -8.1840   -0.3290 hn        1 IXF      0.425300
     42 H19        10.3970   -9.0620   -1.7610 hn        1 IXF      0.425300
     43 H20         4.5140   -4.4870   -0.1620 h4        1 IXF      0.036100
@<TRIPOS>BOND
     1    1    2 1   
     2    1   24 1   
     3    1   25 1   
     4    1   26 1   
     5    2    3 1   
     6    2    4 1   
     7    2   27 1   
     8    3   28 1   
     9    3   29 1   
    10    3   30 1   
    11    4    5 ar  
    12    4    7 ar  
    13    5    6 ar  
    14    5   31 1   
    15    6    9 ar  
    16    6   32 1   
    17    7    8 ar  
    18    7   33 1   
    19    8    9 ar  
    20    8   34 1   
    21    9   10 1   
    22   10   11 1   
    23   10   12 1   
    24   11   35 1   
    25   11   36 1   
    26   11   37 1   
    27   12   13 ar  
    28   12   23 ar  
    29   13   14 ar  
    30   13   38 1   
    31   14   15 ar  
    32   14   21 ar  
    33   15   16 1   
    34   15   17 ar  
    35   16   39 1   
    36   16   40 1   
    37   17   18 ar  
    38   18   19 1   
    39   18   20 ar  
    40   19   41 1   
    41   19   42 1   
    42   20   21 ar  
    43   21   22 ar  
    44   22   23 ar  
    45   23   43 1   
@<TRIPOS>SUBSTRUCTURE
     1 IXF         1 TEMP              0 ****  ****    0 ROOT
