@<TRIPOS>MOLECULE
IXF
   43    45     1     0     0
SMALL
bcc


@<TRIPOS>ATOM
      1 CAA         0.0540    0.0850    0.1160 c3        1 IXF     -0.088600
      2 CAV         1.5500    0.0540   -0.1400 c3        1 IXF     -0.024400
      3 CAB         2.3140    0.3370    1.1390 c3        1 IXF     -0.088600
      4 CAQ         1.9660   -1.2540   -0.7350 ca        1 IXF     -0.069300
      5 CAG         1.7840   -2.4530   -0.0370 ca        1 IXF     -0.121000
      6 CAI         2.1710   -3.6700   -0.5880 ca        1 IXF     -0.131500
      7 CAF         2.5470   -1.2960   -2.0070 ca        1 IXF     -0.121000
      8 CAH         2.9430   -2.5050   -2.5700 ca        1 IXF     -0.131500
      9 CAR         2.7620   -3.7130   -1.8680 ca        1 IXF      0.092600
     10 NAW         3.1090   -4.9830   -2.4360 nh        1 IXF     -0.516400
     11 CAC         2.6170   -5.1870   -3.7780 c3        1 IXF      0.176100
     12 CAS         4.4070   -5.4650   -2.1510 ca        1 IXF     -0.005700
     13 CAK         5.1140   -6.3080   -3.0020 ca        1 IXF     -0.115000
     14 C5          6.3570   -6.8440   -2.5960 ca        1 IXF     -0.347600
     15 C6          7.1600   -7.7520   -3.4060 ca        1 IXF      0.721200
     16 NAE         6.6770   -8.2030   -4.6310 nv        1 IXF     -0.940500
     17 N1          8.3440   -8.2280   -2.9730 nb        1 IXF     -0.818000
     18 C2          8.7680   -7.8250   -1.6990 ca        1 IXF      0.900900
     19 NAD        10.0430   -8.2570   -1.3070 nv        1 IXF     -0.923500
     20 N3          8.0850   -7.0080   -0.8440 nb        1 IXF     -0.753000
     21 C4          6.8860   -6.5060   -1.3020 ca        1 IXF      0.690300
     22 NAL         6.1780   -5.6450   -0.4590 nb        1 IXF     -0.635000
     23 CAJ         5.0270   -5.1700   -0.8740 ca        1 IXF      0.433200
     24 H1         -0.5070   -0.0930   -0.8330 hc        1 IXF      0.037867
     25 H2         -0.2360   -0.7030    0.8520 hc        1 IXF      0.037867
     26 H3         -0.2410    1.0800    0.5260 hc        1 IXF      0.037867
     27 H4          1.7910    0.8750   -0.8770 hc        1 IXF      0.051700
     28 H5          2.0950   -0.4410    1.9090 hc        1 IXF      0.037867
     29 H6          3.4130    0.3440    0.9440 hc        1 IXF      0.037867
     30 H7          2.0170    1.3330    1.5480 hc        1 IXF      0.037867
     31 H8          1.3260   -2.4360    0.9650 ha        1 IXF      0.136500
     32 H9          2.0110   -4.6010   -0.0210 ha        1 IXF      0.141500
     33 H10         2.6990   -0.3630   -2.5710 ha        1 IXF      0.136500
     34 H11         3.3990   -2.5110   -3.5720 ha        1 IXF      0.141500
     35 H12         2.5140   -6.2920   -3.9530 h1        1 IXF      0.041700
     36 H13         3.2940   -4.7560   -4.5660 h1        1 IXF      0.041700
     37 H14         1.6060   -4.7110   -3.8740 h1        1 IXF      0.041700
     38 H15         4.7000   -6.5740   -3.9860 ha        1 IXF      0.131000
     39 H16         6.0570   -7.5930   -5.1060 hn        1 IXF      0.419800
     40 H17         7.3040   -8.7140   -5.2100 hn        1 IXF      0.419800
     41 H18        10.2500   -8.1860   -0.3370 hn        1 IXF      0.425300
     42 H19        10.3980   -9.0610   -1.7710 hn        1 IXF      0.425300
     43 H20         4.5140   -4.4910   -0.1620 h4        1 IXF      0.036100
@<TRIPOS>BOND
     1    1    2 1   
     2    1   24 1   
     3    1   25 1   
     4    1   26 1   
     5    2    3 1   
     6    2    4 1   
     7    2   27 1   
     8    3   28 1   
     9    3   29 1   
    10    3   30 1   
    11    4    5 ar  
    12    4    7 ar  
    13    5    6 ar  
    14    5   31 1   
    15    6    9 ar  
    16    6   32 1   
    17    7    8 ar  
    18    7   33 1   
    19    8    9 ar  
    20    8   34 1   
    21    9   10 1   
    22   10   11 1   
    23   10   12 1   
    24   11   35 1   
    25   11   36 1   
    26   11   37 1   
    27   12   13 ar  
    28   12   23 ar  
    29   13   14 ar  
    30   13   38 1   
    31   14   15 ar  
    32   14   21 ar  
    33   15   16 1   
    34   15   17 ar  
    35   16   39 1   
    36   16   40 1   
    37   17   18 ar  
    38   18   19 1   
    39   18   20 ar  
    40   19   41 1   
    41   19   42 1   
    42   20   21 ar  
    43   21   22 ar  
    44   22   23 ar  
    45   23   43 1   
@<TRIPOS>SUBSTRUCTURE
     1 IXF         1 TEMP              0 ****  ****    0 ROOT
