@<TRIPOS>MOLECULE
IXG
   34    36     1     0     0
SMALL
bcc


@<TRIPOS>ATOM
      1 CAQ         5.3300   -1.1420   -0.2320 ca        1 IXG     -0.129000
      2 CAG         4.7930   -0.3900   -1.2760 ca        1 IXG     -0.122000
      3 CAI         3.6280    0.3480   -1.0870 ca        1 IXG     -0.135000
      4 CAF         4.6970   -1.1510    1.0090 ca        1 IXG     -0.122000
      5 CAH         3.5330   -0.4150    1.2170 ca        1 IXG     -0.135000
      6 CAR         2.9800    0.3450    0.1660 ca        1 IXG      0.098600
      7 NAW         1.8150    1.1400    0.4160 nh        1 IXG     -0.517400
      8 CAC         1.8970    2.4950   -0.0790 c3        1 IXG      0.176100
      9 CAS         0.5640    0.4930    0.2870 ca        1 IXG     -0.005700
     10 CAK        -0.6220    1.1830    0.0560 ca        1 IXG     -0.114000
     11 C5         -1.8540    0.4890    0.0480 ca        1 IXG     -0.347600
     12 C6         -3.1490    1.1270   -0.1450 ca        1 IXG      0.721200
     13 NAE        -3.2210    2.5020   -0.3530 nh        1 IXG     -0.939500
     14 N1         -4.2930    0.4140   -0.1730 nb        1 IXG     -0.819000
     15 C2         -4.1790   -0.9790   -0.0560 ca        1 IXG      0.901900
     16 NAD        -5.3580   -1.7130   -0.2430 nh        1 IXG     -0.924500
     17 N3         -3.0290   -1.6750    0.1840 nb        1 IXG     -0.754000
     18 C4         -1.8650   -0.9380    0.2310 ca        1 IXG      0.689300
     19 NAL        -0.6700   -1.6230    0.4630 nb        1 IXG     -0.635000
     20 CAJ         0.4490   -0.9380    0.4880 ca        1 IXG      0.430200
     21 H1          6.2490   -1.7250   -0.3880 ha        1 IXG      0.136000
     22 H2          5.2890   -0.3800   -2.2590 ha        1 IXG      0.136500
     23 H3          3.2160    0.9360   -1.9210 ha        1 IXG      0.142000
     24 H4          5.1180   -1.7420    1.8370 ha        1 IXG      0.136500
     25 H5          3.0480   -0.4270    2.2060 ha        1 IXG      0.142000
     26 H6          1.5380    2.5980   -1.1390 h1        1 IXG      0.043033
     27 H7          1.2690    3.1500    0.5820 h1        1 IXG      0.043033
     28 H8          2.9620    2.8450   -0.0230 h1        1 IXG      0.043033
     29 H9         -0.6070    2.2660   -0.1310 ha        1 IXG      0.133000
     30 H10        -2.5060    3.0420    0.0730 hn        1 IXG      0.419300
     31 H11        -4.1250    2.9170   -0.3600 hn        1 IXG      0.419300
     32 H12        -6.2120   -1.2180   -0.1320 hn        1 IXG      0.426300
     33 H13        -5.3480   -2.6520    0.0830 hn        1 IXG      0.426300
     34 H14         1.3630   -1.5390    0.6770 h4        1 IXG      0.036100
@<TRIPOS>BOND
     1    1    2 ar  
     2    1    4 ar  
     3    1   21 1   
     4    2    3 ar  
     5    2   22 1   
     6    3    6 ar  
     7    3   23 1   
     8    4    5 ar  
     9    4   24 1   
    10    5    6 ar  
    11    5   25 1   
    12    6    7 1   
    13    7    8 1   
    14    7    9 1   
    15    8   26 1   
    16    8   27 1   
    17    8   28 1   
    18    9   10 ar  
    19    9   20 ar  
    20   10   11 ar  
    21   10   29 1   
    22   11   12 ar  
    23   11   18 ar  
    24   12   13 1   
    25   12   14 ar  
    26   13   30 1   
    27   13   31 1   
    28   14   15 ar  
    29   15   16 1   
    30   15   17 ar  
    31   16   32 1   
    32   16   33 1   
    33   17   18 ar  
    34   18   19 ar  
    35   19   20 ar  
    36   20   34 1   
@<TRIPOS>SUBSTRUCTURE
     1 IXG         1 TEMP              0 ****  ****    0 ROOT
