@<TRIPOS>MOLECULE
IXG
   34    36     1     0     0
SMALL
bcc


@<TRIPOS>ATOM
      1 CAQ         0.3010   -0.0260   -0.1720 ca        1 IXG     -0.128000
      2 CAG         1.6280   -0.3580    0.0970 ca        1 IXG     -0.123000
      3 CAI         2.1030   -0.3570    1.4050 ca        1 IXG     -0.133500
      4 CAF        -0.5550    0.3050    0.8770 ca        1 IXG     -0.123000
      5 CAH        -0.0960    0.3080    2.1930 ca        1 IXG     -0.133500
      6 CAR         1.2460   -0.0230    2.4730 ca        1 IXG      0.097600
      7 NAW         1.6820   -0.0630    3.8390 nh        1 IXG     -0.517400
      8 CAC         2.3860   -1.2710    4.2020 c3        1 IXG      0.176100
      9 CAS         2.1740    1.1490    4.3780 ca        1 IXG     -0.006700
     10 CAK         3.1190    1.2040    5.3960 ca        1 IXG     -0.114000
     11 C5          3.4740    2.4480    5.9660 ca        1 IXG     -0.347600
     12 C6          4.4350    2.6060    7.0510 ca        1 IXG      0.721200
     13 NAE         5.0090    1.4840    7.6410 nh        1 IXG     -0.940500
     14 N1          4.7440    3.8180    7.5530 nb        1 IXG     -0.818000
     15 C2          4.0870    4.9250    6.9980 ca        1 IXG      0.900900
     16 NAD         4.4900    6.1820    7.4700 nh        1 IXG     -0.923500
     17 N3          3.1490    4.8920    6.0060 nb        1 IXG     -0.754000
     18 C4          2.8560    3.6520    5.4810 ca        1 IXG      0.690300
     19 NAL         1.9200    3.5910    4.4460 nb        1 IXG     -0.635000
     20 CAJ         1.6170    2.4160    3.9450 ca        1 IXG      0.433200
     21 H1         -0.0690   -0.0250   -1.2080 ha        1 IXG      0.136000
     22 H2          2.3070   -0.6200   -0.7280 ha        1 IXG      0.136000
     23 H3          3.1540   -0.6210    1.6020 ha        1 IXG      0.141500
     24 H4         -1.6040    0.5670    0.6700 ha        1 IXG      0.136000
     25 H5         -0.7860    0.5640    3.0120 ha        1 IXG      0.141500
     26 H6          3.4820   -1.2340    3.9540 h1        1 IXG      0.042367
     27 H7          1.9250   -2.1390    3.6620 h1        1 IXG      0.042367
     28 H8          2.2680   -1.4290    5.3070 h1        1 IXG      0.042367
     29 H9          3.5800    0.2790    5.7740 ha        1 IXG      0.131000
     30 H10         5.1010    0.6850    7.0600 hn        1 IXG      0.420300
     31 H11         5.7520    1.6340    8.2850 hn        1 IXG      0.420300
     32 H12         3.8810    6.9420    7.2690 hn        1 IXG      0.425300
     33 H13         4.9290    6.1990    8.3620 hn        1 IXG      0.425300
     34 H14         0.8700    2.4320    3.1250 h4        1 IXG      0.036100
@<TRIPOS>BOND
     1    1    2 ar  
     2    1    4 ar  
     3    1   21 1   
     4    2    3 ar  
     5    2   22 1   
     6    3    6 ar  
     7    3   23 1   
     8    4    5 ar  
     9    4   24 1   
    10    5    6 ar  
    11    5   25 1   
    12    6    7 1   
    13    7    8 1   
    14    7    9 1   
    15    8   26 1   
    16    8   27 1   
    17    8   28 1   
    18    9   10 ar  
    19    9   20 ar  
    20   10   11 ar  
    21   10   29 1   
    22   11   12 ar  
    23   11   18 ar  
    24   12   13 1   
    25   12   14 ar  
    26   13   30 1   
    27   13   31 1   
    28   14   15 ar  
    29   15   16 1   
    30   15   17 ar  
    31   16   32 1   
    32   16   33 1   
    33   17   18 ar  
    34   18   19 ar  
    35   19   20 ar  
    36   20   34 1   
@<TRIPOS>SUBSTRUCTURE
     1 IXG         1 TEMP              0 ****  ****    0 ROOT
