@<TRIPOS>MOLECULE
IXG
   34    36     1     0     0
SMALL
bcc


@<TRIPOS>ATOM
      1 CAQ         0.3000   -0.0260   -0.1700 ca        1 IXG     -0.128000
      2 CAG         1.6260   -0.3590    0.1020 ca        1 IXG     -0.123000
      3 CAI         2.0990   -0.3580    1.4110 ca        1 IXG     -0.133500
      4 CAF        -0.5570    0.3060    0.8780 ca        1 IXG     -0.123000
      5 CAH        -0.1010    0.3090    2.1940 ca        1 IXG     -0.133500
      6 CAR         1.2400   -0.0220    2.4770 ca        1 IXG      0.097600
      7 NAW         1.6740   -0.0620    3.8430 nh        1 IXG     -0.517400
      8 CAC         2.3730   -1.2720    4.2090 c3        1 IXG      0.176100
      9 CAS         2.1700    1.1490    4.3800 ca        1 IXG     -0.006700
     10 CAK         3.1180    1.2020    5.3960 ca        1 IXG     -0.114000
     11 C5          3.4780    2.4460    5.9640 ca        1 IXG     -0.347600
     12 C6          4.4420    2.6030    7.0460 ca        1 IXG      0.721200
     13 NAE         5.0150    1.4800    7.6350 nv        1 IXG     -0.940500
     14 N1          4.7540    3.8150    7.5460 nb        1 IXG     -0.818000
     15 C2          4.0980    4.9240    6.9920 ca        1 IXG      0.900900
     16 NAD         4.5050    6.1800    7.4620 nv        1 IXG     -0.923500
     17 N3          3.1580    4.8920    6.0020 nb        1 IXG     -0.754000
     18 C4          2.8600    3.6510    5.4790 ca        1 IXG      0.690300
     19 NAL         1.9210    3.5910    4.4470 nb        1 IXG     -0.635000
     20 CAJ         1.6150    2.4170    3.9480 ca        1 IXG      0.434200
     21 H1         -0.0680   -0.0260   -1.2060 ha        1 IXG      0.136000
     22 H2          2.3070   -0.6220   -0.7220 ha        1 IXG      0.136000
     23 H3          3.1490   -0.6230    1.6090 ha        1 IXG      0.141500
     24 H4         -1.6050    0.5680    0.6680 ha        1 IXG      0.136000
     25 H5         -0.7930    0.5660    3.0110 ha        1 IXG      0.141500
     26 H6          2.2560   -1.4270    5.3150 h1        1 IXG      0.042367
     27 H7          1.9070   -2.1400    3.6730 h1        1 IXG      0.042367
     28 H8          3.4690   -1.2410    3.9600 h1        1 IXG      0.042367
     29 H9          3.5780    0.2770    5.7730 ha        1 IXG      0.131000
     30 H10         5.1040    0.6810    7.0550 hn        1 IXG      0.420300
     31 H11         5.7600    1.6300    8.2770 hn        1 IXG      0.420300
     32 H12         4.9470    6.1970    8.3520 hn        1 IXG      0.425300
     33 H13         3.8970    6.9410    7.2620 hn        1 IXG      0.425300
     34 H14         0.8650    2.4330    3.1300 h4        1 IXG      0.036100
@<TRIPOS>BOND
     1    1    2 ar  
     2    1    4 ar  
     3    1   21 1   
     4    2    3 ar  
     5    2   22 1   
     6    3    6 ar  
     7    3   23 1   
     8    4    5 ar  
     9    4   24 1   
    10    5    6 ar  
    11    5   25 1   
    12    6    7 1   
    13    7    8 1   
    14    7    9 1   
    15    8   26 1   
    16    8   27 1   
    17    8   28 1   
    18    9   10 ar  
    19    9   20 ar  
    20   10   11 ar  
    21   10   29 1   
    22   11   12 ar  
    23   11   18 ar  
    24   12   13 1   
    25   12   14 ar  
    26   13   30 1   
    27   13   31 1   
    28   14   15 ar  
    29   15   16 1   
    30   15   17 ar  
    31   16   32 1   
    32   16   33 1   
    33   17   18 ar  
    34   18   19 ar  
    35   19   20 ar  
    36   20   34 1   
@<TRIPOS>SUBSTRUCTURE
     1 IXG         1 TEMP              0 ****  ****    0 ROOT
