@<TRIPOS>MOLECULE
IXG
   34    27     1     0     0
SMALL
bcc


@<TRIPOS>ATOM
      1 CAQ        -2.0000   -4.7290   -0.3030 c1        1 IXG     -0.132250
      2 CAG        -2.3370   -3.9820    0.8190 c1        1 IXG     -0.132250
      3 CAI        -1.6820   -2.7820    1.0780 c1        1 IXG     -0.132250
      4 CAF        -1.0070   -4.2770   -1.1700 c1        1 IXG     -0.132250
      5 CAH        -0.3530   -3.0790   -0.9130 c1        1 IXG     -0.116500
      6 CAR        -0.6900   -2.3300    0.2120 c1        1 IXG      0.001500
      7 NAW        -0.0380   -1.0810    0.4610 n3        1 IXG     -0.208000
      8 CAC         1.3490   -0.9170    0.1340 c3        1 IXG     -0.090000
      9 CAS        -0.7800    0.0180    1.0100 c1        1 IXG      0.001500
     10 CAK        -0.0190    1.0820    1.4090 c1        1 IXG     -0.116500
     11 C5          0.2580    2.1130    0.5130 c1        1 IXG     -0.246000
     12 C6          1.1860    3.0950    0.8610 c2        1 IXG      0.214000
     13 NAE         1.5950    3.2400    2.2260 n3        1 IXG     -0.343000
     14 N1          1.5980    3.9890   -0.0620 n1        1 IXG     -0.300000
     15 C2          1.1050    3.9320   -1.3460 c1        1 IXG      0.200000
     16 NAD         1.5950    4.8370   -2.3400 n2        1 IXG     -0.329000
     17 N3          0.1930    2.9670   -1.6890 n1        1 IXG     -0.237000
     18 C4         -0.2280    2.0590   -0.7570 c1        1 IXG      0.119000
     19 NAL        -1.0020    0.9750   -1.1600 n1        1 IXG     -0.119000
     20 CAJ        -1.2750   -0.0340   -0.2840 c1        1 IXG     -0.031000
     21 H1         -2.4610   -5.5730   -0.4850 ha        1 IXG      0.134750
     22 H2         -3.0330   -4.2990    1.4270 ha        1 IXG      0.134750
     23 H3         -1.9190   -2.2560    1.8680 ha        1 IXG      0.134750
     24 H4         -0.7700   -4.8030   -1.9600 ha        1 IXG      0.134750
     25 H5          0.3430   -2.7620   -1.5200 ha        1 IXG      0.136000
     26 H6          1.7660   -0.2990    0.7740 h1        1 IXG      0.081667
     27 H7          1.4300   -0.5510   -0.7750 h1        1 IXG      0.081667
     28 H8          1.8000   -1.7880    0.1780 h1        1 IXG      0.081667
     29 H9          0.2810    1.1490    2.3440 ha        1 IXG      0.136000
     30 H10         2.3850    3.6630    2.4250 hn        1 IXG      0.221500
     31 H11         1.0390    2.9660    2.9020 hn        1 IXG      0.221500
     32 H12         1.4860    4.6420   -3.2290 hn        1 IXG      0.228500
     33 H13         2.0360    5.6000   -2.0880 hn        1 IXG      0.228500
     34 H14        -1.8500   -0.7830   -0.5610 ha        1 IXG      0.174000
@<TRIPOS>BOND
     1    1    4 1   
     2    1   21 1   
     3    2    3 1   
     4    2   22 1   
     5    3   23 1   
     6    4   24 1   
     7    5    6 1   
     8    5   25 1   
     9    6    7 1   
    10    7    8 1   
    11    7    9 1   
    12    8   26 1   
    13    8   27 1   
    14    8   28 1   
    15    9   10 1   
    16   10   29 1   
    17   11   12 1   
    18   11   18 1   
    19   12   13 1   
    20   12   14 1   
    21   13   30 1   
    22   13   31 1   
    23   15   17 1   
    24   16   32 1   
    25   16   33 1   
    26   19   20 1   
    27   20   34 1   
@<TRIPOS>SUBSTRUCTURE
     1 IXG         1 TEMP              0 ****  ****    0 ROOT
