@<TRIPOS>MOLECULE
IXG
   37    39     1     0     0
SMALL
bcc


@<TRIPOS>ATOM
      1 CAQ         0.6330    0.1880   -0.2330 ca        1 IXG     -0.038000
      2 CAG         1.9990    0.0660    0.0370 ca        1 IXG     -0.087000
      3 CAI         2.4520   -0.0740    1.3470 ca        1 IXG     -0.109500
      4 CAF        -0.2890    0.1710    0.8170 ca        1 IXG     -0.087000
      5 CAH         0.1380    0.0320    2.1360 ca        1 IXG     -0.109500
      6 CAR         1.5150   -0.0930    2.3990 ca        1 IXG     -0.098400
      7 NAW         2.0120   -0.3190    3.7770 n4        1 IXG     -0.428200
      8 CAC         1.0630   -1.1420    4.5940 c3        1 IXG      0.090100
      9 CAS         2.3260    0.9470    4.4600 ca        1 IXG     -0.052700
     10 CAK         3.4780    1.1190    5.2090 ca        1 IXG     -0.072000
     11 C5          3.7160    2.3700    5.8490 ca        1 IXG     -0.276600
     12 C6          4.8560    2.7130    6.6620 ca        1 IXG      0.601200
     13 NAE         5.9330    1.7240    6.9050 n4        1 IXG     -0.842300
     14 N1          5.0170    3.9100    7.2390 nb        1 IXG     -0.656000
     15 C2          4.0050    4.8450    7.0130 ca        1 IXG      0.772900
     16 NAD         4.1890    6.1780    7.6590 n4        1 IXG     -0.818300
     17 N3          2.8930    4.6670    6.2810 nb        1 IXG     -0.538000
     18 C4          2.7300    3.4220    5.6840 ca        1 IXG      0.713300
     19 NAL         1.5850    3.2280    4.9220 nb        1 IXG     -0.540000
     20 CAJ         1.4000    2.0610    4.3460 ca        1 IXG      0.511200
     21 H1          0.2810    0.2880   -1.2770 ha        1 IXG      0.200000
     22 H2          2.7290    0.0690   -0.7940 ha        1 IXG      0.194500
     23 H3          3.5330   -0.1870    1.5280 ha        1 IXG      0.153500
     24 H4         -1.3710    0.2580    0.6040 ha        1 IXG      0.194500
     25 H5         -0.6180   -0.0040    2.9370 ha        1 IXG      0.153500
     26 H6          0.7390   -2.0270    3.9750 hx        1 IXG      0.122700
     27 H7          0.1630   -0.5340    4.8760 hx        1 IXG      0.122700
     28 H8          1.5900   -1.4950    5.5200 hx        1 IXG      0.122700
     29 H9          4.2120    0.3010    5.3150 ha        1 IXG      0.164000
     30 H10         5.5390    0.8980    7.3800 hn        1 IXG      0.504133
     31 H11         6.3520    1.4470    6.0040 hn        1 IXG      0.504133
     32 H12         4.2460    6.0620    8.6860 hn        1 IXG      0.514467
     33 H13         3.3880    6.8000    7.4330 hn        1 IXG      0.514467
     34 H14         0.4680    1.9700    3.7320 h4        1 IXG      0.116100
     35 HAW1        2.8900   -0.8600    3.6820 hn        1 IXG      0.465800
     36 HAE3        6.6840    2.1190    7.5060 hn        1 IXG      0.504133
     37 HAD3        5.0620    6.6140    7.3150 hn        1 IXG      0.514467
@<TRIPOS>BOND
     1    1    2 ar  
     2    1    4 ar  
     3    1   21 1   
     4    2    3 ar  
     5    2   22 1   
     6    3    6 ar  
     7    3   23 1   
     8    4    5 ar  
     9    4   24 1   
    10    5    6 ar  
    11    5   25 1   
    12    6    7 1   
    13    7    8 1   
    14    7    9 1   
    15    7   35 1   
    16    8   26 1   
    17    8   27 1   
    18    8   28 1   
    19    9   10 ar  
    20    9   20 ar  
    21   10   11 ar  
    22   10   29 1   
    23   11   12 ar  
    24   11   18 ar  
    25   12   13 1   
    26   12   14 ar  
    27   13   30 1   
    28   13   31 1   
    29   13   36 1   
    30   14   15 ar  
    31   15   16 1   
    32   15   17 ar  
    33   16   32 1   
    34   16   33 1   
    35   16   37 1   
    36   17   18 ar  
    37   18   19 ar  
    38   19   20 ar  
    39   20   34 1   
@<TRIPOS>SUBSTRUCTURE
     1 IXG         1 TEMP              0 ****  ****    0 ROOT
