@<TRIPOS>MOLECULE
IXH
   70    75     1     0     0
SMALL
bcc


@<TRIPOS>ATOM
      1 C1          0.0030   -0.3110   -0.5180 c3        1 IXH     -0.096100
      2 C2          1.5150   -0.1330   -0.4100 c3        1 IXH      0.171500
      3 C3          1.8910   -0.1370    1.0940 c3        1 IXH      0.197800
      4 C4          4.1360   -0.9780    0.4620 c3        1 IXH      0.197800
      5 C5          3.6840   -0.9490   -1.0210 c3        1 IXH      0.171500
      6 C6          4.4890   -2.0000   -1.7810 c3        1 IXH     -0.096100
      7 C7          3.7010   -0.1760    2.7120 ca        1 IXH      0.193600
      8 C8          2.8170    0.2640    3.7320 ca        1 IXH     -0.189000
      9 C9          3.2300    0.3840    5.0510 ca        1 IXH     -0.074500
     10 C10         4.5450    0.0490    5.4220 ca        1 IXH      0.034600
     11 C11         5.4290   -0.4170    4.4280 ca        1 IXH     -0.074500
     12 C12         5.0180   -0.5290    3.1110 ca        1 IXH     -0.189000
     13 C13         4.4410   -0.3800    7.8500 ca        1 IXH      0.946900
     14 C14         2.7240   -1.6170    8.8110 ca        1 IXH      0.549200
     15 C15         3.3050   -1.4770   10.1070 ca        1 IXH     -0.501200
     16 C16         2.6810   -2.0600   11.2730 c         1 IXH      0.643900
     17 C17         3.3890   -1.8290   12.5320 cc        1 IXH     -0.445400
     18 C18         4.5780   -1.0880   12.5400 cd        1 IXH      0.261000
     19 C19         6.3630    0.2020   11.5670 ca        1 IXH      0.056600
     20 C20         6.3600    1.3920   12.3150 ca        1 IXH     -0.115000
     21 C21         7.5380    2.1310   12.4620 ca        1 IXH     -0.110000
     22 C22         8.7010    1.6790   11.8570 ca        1 IXH     -0.045300
     23 C23        10.0590    2.2960   11.8730 c3        1 IXH     -0.047100
     24 C24        10.9410    1.3590   11.0350 c3        1 IXH     -0.081400
     25 C25        10.0560    0.2050   10.5430 c3        1 IXH     -0.041100
     26 C26         8.6980    0.4850   11.0970 ca        1 IXH     -0.074300
     27 C27         7.5430   -0.2610   10.9410 ca        1 IXH     -0.079000
     28 C28         4.5230   -0.7310   10.1640 ca        1 IXH      0.726200
     29 C29         2.9290   -2.3230   13.8020 c         1 IXH      0.592300
     30 N1          3.3180   -0.1860    1.3640 nh        1 IXH     -0.638000
     31 N2          3.2370   -1.1030    7.7070 nb        1 IXH     -0.721000
     32 N3          5.1450   -0.5550   11.4380 na        1 IXH     -0.438500
     33 N4          5.1050   -0.1920    9.0680 nb        1 IXH     -0.790000
     34 N5          5.0120    0.2100    6.7510 nu        1 IXH     -0.672300
     35 N6          2.2470   -1.1630   -1.1350 n7        1 IXH     -0.816200
     36 N7          1.6680   -3.1560   13.7940 nz        1 IXH     -0.740400
     37 O1          1.6140   -2.7130   11.2190 o         1 IXH     -0.649100
     38 O2          3.4170   -2.1670   14.9210 o         1 IXH     -0.487100
     39 H1         -0.3260   -0.2150   -1.5810 hc        1 IXH      0.046367
     40 H1A        -0.3140   -1.3120   -0.1380 hc        1 IXH      0.046367
     41 H1B        -0.5040    0.4800    0.0840 hc        1 IXH      0.046367
     42 H2          1.7680    0.8980   -0.8140 h1        1 IXH      0.028700
     43 H3          1.4920    0.8270    1.5220 h1        1 IXH      0.047450
     44 H3A         1.3630   -0.9980    1.5970 h1        1 IXH      0.047450
     45 H4          4.1780   -2.0520    0.8060 h1        1 IXH      0.047450
     46 H4A         5.1810   -0.5550    0.4810 h1        1 IXH      0.047450
     47 H5          3.9710    0.0700   -1.4360 h1        1 IXH      0.028700
     48 H6          5.5780   -1.8080   -1.6280 hc        1 IXH      0.046367
     49 H6A         4.2680   -1.9460   -2.8740 hc        1 IXH      0.046367
     50 H6B         4.2500   -3.0290   -1.4210 hc        1 IXH      0.046367
     51 H8          1.7740    0.5280    3.5020 ha        1 IXH      0.145000
     52 H9          2.5080    0.7400    5.8030 ha        1 IXH      0.139500
     53 H11         6.4630   -0.6980    4.6870 ha        1 IXH      0.139500
     54 H12         5.7500   -0.9040    2.3790 ha        1 IXH      0.145000
     55 H14         1.7780   -2.1910    8.7040 h4        1 IXH      0.064100
     56 H18         5.1140   -0.9080   13.5030 h4        1 IXH      0.202000
     57 H20         5.4360    1.7600   12.7870 ha        1 IXH      0.143000
     58 H21         7.5310    3.0620   13.0480 ha        1 IXH      0.157000
     59 H23        10.4430    2.3820   12.9210 hc        1 IXH      0.070700
     60 H23A       10.0320    3.3250   11.4340 hc        1 IXH      0.070700
     61 H24        11.3800    1.9100   10.1680 hc        1 IXH      0.058700
     62 H24A       11.7870    0.9660   11.6520 hc        1 IXH      0.058700
     63 H25        10.0280    0.1670    9.4250 hc        1 IXH      0.065700
     64 H25A       10.4390   -0.7810   10.9090 hc        1 IXH      0.065700
     65 H27         7.5480   -1.1810   10.3380 ha        1 IXH      0.155000
     66 HN5         5.8990    0.6600    6.8590 hn        1 IXH      0.469800
     67 HN6         1.9670   -1.1880   -2.0970 hn        1 IXH      0.373800
     68 HN7         1.4090   -3.4250   14.7460 hn        1 IXH      0.472467
     69 HN7A        1.8200   -3.9880   13.2110 hn        1 IXH      0.472467
     70 H73         0.9120   -2.6190   13.3450 hn        1 IXH      0.472467
@<TRIPOS>BOND
     1    1    2 1   
     2    1   39 1   
     3    1   40 1   
     4    1   41 1   
     5    2    3 1   
     6    2   35 1   
     7    2   42 1   
     8    3   30 1   
     9    3   43 1   
    10    3   44 1   
    11    4    5 1   
    12    4   30 1   
    13    4   45 1   
    14    4   46 1   
    15    5    6 1   
    16    5   35 1   
    17    5   47 1   
    18    6   48 1   
    19    6   49 1   
    20    6   50 1   
    21    7    8 ar  
    22    7   12 ar  
    23    7   30 1   
    24    8    9 ar  
    25    8   51 1   
    26    9   10 ar  
    27    9   52 1   
    28   10   11 ar  
    29   10   34 1   
    30   11   12 ar  
    31   11   53 1   
    32   12   54 1   
    33   13   31 ar  
    34   13   33 ar  
    35   13   34 1   
    36   14   15 ar  
    37   14   31 ar  
    38   14   55 1   
    39   15   16 1   
    40   15   28 ar  
    41   16   17 1   
    42   16   37 2   
    43   17   18 2   
    44   17   29 1   
    45   18   32 1   
    46   18   56 1   
    47   19   20 ar  
    48   19   27 ar  
    49   19   32 1   
    50   20   21 ar  
    51   20   57 1   
    52   21   22 ar  
    53   21   58 1   
    54   22   23 1   
    55   22   26 ar  
    56   23   24 1   
    57   23   59 1   
    58   23   60 1   
    59   24   25 1   
    60   24   61 1   
    61   24   62 1   
    62   25   26 1   
    63   25   63 1   
    64   25   64 1   
    65   26   27 ar  
    66   27   65 1   
    67   28   32 1   
    68   28   33 ar  
    69   29   36 1   
    70   29   38 2   
    71   34   66 1   
    72   35   67 1   
    73   36   68 1   
    74   36   69 1   
    75   36   70 1   
@<TRIPOS>SUBSTRUCTURE
     1 IXH         1 TEMP              0 ****  ****    0 ROOT
