@<TRIPOS>MOLECULE
IXH
   70    75     1     0     0
SMALL
bcc


@<TRIPOS>ATOM
      1 C1          0.0070   -0.3150   -0.5190 c3        1 IXH     -0.096100
      2 C2          1.5190   -0.1350   -0.4100 c3        1 IXH      0.171500
      3 C3          1.8960   -0.1390    1.0940 c3        1 IXH      0.197800
      4 C4          4.1410   -0.9790    0.4610 c3        1 IXH      0.197800
      5 C5          3.6890   -0.9490   -1.0220 c3        1 IXH      0.171500
      6 C6          4.4950   -1.9990   -1.7820 c3        1 IXH     -0.096100
      7 C7          3.7050   -0.1780    2.7120 ca        1 IXH      0.193600
      8 C8          2.8210    0.2620    3.7320 ca        1 IXH     -0.189000
      9 C9          3.2340    0.3810    5.0500 ca        1 IXH     -0.074500
     10 C10         4.5480    0.0460    5.4220 ca        1 IXH      0.034600
     11 C11         5.4330   -0.4200    4.4280 ca        1 IXH     -0.074500
     12 C12         5.0220   -0.5310    3.1110 ca        1 IXH     -0.189000
     13 C13         4.4430   -0.3840    7.8490 ca        1 IXH      0.946900
     14 C14         2.7250   -1.6200    8.8100 ca        1 IXH      0.549200
     15 C15         3.3070   -1.4820   10.1060 ca        1 IXH     -0.501200
     16 C16         2.6820   -2.0650   11.2710 c         1 IXH      0.643900
     17 C17         3.3900   -1.8350   12.5310 cc        1 IXH     -0.445400
     18 C18         4.5800   -1.0960   12.5400 cd        1 IXH      0.261000
     19 C19         6.3670    0.1920   11.5670 ca        1 IXH      0.056600
     20 C20         6.3650    1.3820   12.3170 ca        1 IXH     -0.115000
     21 C21         7.5440    2.1190   12.4640 ca        1 IXH     -0.110000
     22 C22         8.7060    1.6670   11.8580 ca        1 IXH     -0.045300
     23 C23        10.0650    2.2820   11.8750 c3        1 IXH     -0.047100
     24 C24        10.9460    1.3450   11.0350 c3        1 IXH     -0.081400
     25 C25        10.0590    0.1930   10.5420 c3        1 IXH     -0.041100
     26 C26         8.7020    0.4740   11.0970 ca        1 IXH     -0.074300
     27 C27         7.5460   -0.2710   10.9410 ca        1 IXH     -0.079000
     28 C28         4.5250   -0.7380   10.1630 ca        1 IXH      0.726200
     29 C29         2.9290   -2.3290   13.8010 c         1 IXH      0.592300
     30 N1          3.3220   -0.1880    1.3630 nh        1 IXH     -0.638000
     31 N2          3.2390   -1.1060    7.7070 nb        1 IXH     -0.721000
     32 N3          5.1480   -0.5630   11.4370 na        1 IXH     -0.438500
     33 N4          5.1080   -0.1980    9.0680 nb        1 IXH     -0.790000
     34 N5          5.0160    0.2060    6.7510 nh        1 IXH     -0.672300
     35 N6          2.2520   -1.1640   -1.1360 n3        1 IXH     -0.816200
     36 N7          1.6680   -3.1610   13.7920 n4        1 IXH     -0.740400
     37 O1          1.6150   -2.7160   11.2170 o         1 IXH     -0.649100
     38 O2          3.4180   -2.1750   14.9190 o         1 IXH     -0.487100
     39 H1         -0.5000    0.4760    0.0840 hc        1 IXH      0.046367
     40 H1A        -0.3090   -1.3160   -0.1390 hc        1 IXH      0.046367
     41 H1B        -0.3220   -0.2180   -1.5820 hc        1 IXH      0.046367
     42 H2          1.7720    0.8970   -0.8140 h1        1 IXH      0.028700
     43 H3          1.4960    0.8240    1.5220 h1        1 IXH      0.047450
     44 H3A         1.3680   -1.0010    1.5960 h1        1 IXH      0.047450
     45 H4          4.1840   -2.0530    0.8040 h1        1 IXH      0.047450
     46 H4A         5.1860   -0.5550    0.4810 h1        1 IXH      0.047450
     47 H5          3.9750    0.0700   -1.4360 h1        1 IXH      0.028700
     48 H6          5.5830   -1.8060   -1.6290 hc        1 IXH      0.046367
     49 H6A         4.2570   -3.0290   -1.4230 hc        1 IXH      0.046367
     50 H6B         4.2730   -1.9440   -2.8750 hc        1 IXH      0.046367
     51 H8          1.7780    0.5260    3.5010 ha        1 IXH      0.145000
     52 H9          2.5120    0.7370    5.8020 ha        1 IXH      0.139500
     53 H11         6.4670   -0.7010    4.6870 ha        1 IXH      0.139500
     54 H12         5.7530   -0.9060    2.3780 ha        1 IXH      0.145000
     55 H14         1.7790   -2.1940    8.7030 h4        1 IXH      0.064100
     56 H18         5.1160   -0.9170   13.5020 h4        1 IXH      0.202000
     57 H20         5.4410    1.7500   12.7890 ha        1 IXH      0.143000
     58 H21         7.5380    3.0490   13.0520 ha        1 IXH      0.157000
     59 H23        10.4500    2.3660   12.9230 hc        1 IXH      0.070700
     60 H23A       10.0390    3.3120   11.4370 hc        1 IXH      0.070700
     61 H24        11.3840    1.8970   10.1680 hc        1 IXH      0.058700
     62 H24A       11.7910    0.9510   11.6500 hc        1 IXH      0.058700
     63 H25        10.4420   -0.7940   10.9060 hc        1 IXH      0.065700
     64 H25A       10.0310    0.1560    9.4230 hc        1 IXH      0.065700
     65 H27         7.5500   -1.1900   10.3350 ha        1 IXH      0.155000
     66 HN5         5.9020    0.6550    6.8590 hn        1 IXH      0.469800
     67 HN6         1.9720   -1.1890   -2.0980 hn        1 IXH      0.373800
     68 HN7         0.9130   -2.6230   13.3440 hn        1 IXH      0.472467
     69 HN7A        1.4080   -3.4310   14.7440 hn        1 IXH      0.472467
     70 H73         1.8190   -3.9930   13.2080 hn        1 IXH      0.472467
@<TRIPOS>BOND
     1    1    2 1   
     2    1   39 1   
     3    1   40 1   
     4    1   41 1   
     5    2    3 1   
     6    2   35 1   
     7    2   42 1   
     8    3   30 1   
     9    3   43 1   
    10    3   44 1   
    11    4    5 1   
    12    4   30 1   
    13    4   45 1   
    14    4   46 1   
    15    5    6 1   
    16    5   35 1   
    17    5   47 1   
    18    6   48 1   
    19    6   49 1   
    20    6   50 1   
    21    7    8 ar  
    22    7   12 ar  
    23    7   30 1   
    24    8    9 ar  
    25    8   51 1   
    26    9   10 ar  
    27    9   52 1   
    28   10   11 ar  
    29   10   34 1   
    30   11   12 ar  
    31   11   53 1   
    32   12   54 1   
    33   13   31 ar  
    34   13   33 ar  
    35   13   34 1   
    36   14   15 ar  
    37   14   31 ar  
    38   14   55 1   
    39   15   16 1   
    40   15   28 ar  
    41   16   17 1   
    42   16   37 2   
    43   17   18 2   
    44   17   29 1   
    45   18   32 1   
    46   18   56 1   
    47   19   20 ar  
    48   19   27 ar  
    49   19   32 1   
    50   20   21 ar  
    51   20   57 1   
    52   21   22 ar  
    53   21   58 1   
    54   22   23 1   
    55   22   26 ar  
    56   23   24 1   
    57   23   59 1   
    58   23   60 1   
    59   24   25 1   
    60   24   61 1   
    61   24   62 1   
    62   25   26 1   
    63   25   63 1   
    64   25   64 1   
    65   26   27 ar  
    66   27   65 1   
    67   28   32 1   
    68   28   33 ar  
    69   29   36 1   
    70   29   38 2   
    71   34   66 1   
    72   35   67 1   
    73   36   68 1   
    74   36   69 1   
    75   36   70 1   
@<TRIPOS>SUBSTRUCTURE
     1 IXH         1 TEMP              0 ****  ****    0 ROOT
