@<TRIPOS>MOLECULE
IXH
   71    76     1     0     0
SMALL
bcc


@<TRIPOS>ATOM
      1 C1          1.1610   -1.5640   -0.5390 c3        1 IXH     -0.101100
      2 C2          2.4310   -0.8500   -0.0860 c3        1 IXH      0.174500
      3 C3          2.2750   -0.5060    1.4190 c3        1 IXH      0.198800
      4 C4          4.7870   -0.5470    1.5810 c3        1 IXH      0.198800
      5 C5          4.8150   -0.8870    0.0670 c3        1 IXH      0.174500
      6 C6          6.1100   -1.6390   -0.2220 c3        1 IXH     -0.101100
      7 C7          3.4220    0.3230    3.3960 ca        1 IXH      0.267600
      8 C8          2.1630    0.6140    4.0210 ca        1 IXH     -0.213500
      9 C9          2.0910    1.1640    5.2800 ca        1 IXH     -0.026000
     10 C10         3.2720    1.4520    5.9970 ca        1 IXH     -0.205400
     11 C11         4.5250    1.1180    5.4410 ca        1 IXH     -0.026000
     12 C12         4.5990    0.5680    4.1820 ca        1 IXH     -0.213500
     13 C13         2.9670    1.1190    8.4060 ca        1 IXH      0.781900
     14 C14         1.4850   -0.2390    9.5230 ca        1 IXH      0.546200
     15 C15         2.5340   -0.6980   10.3630 ca        1 IXH     -0.394200
     16 C16         2.2740   -1.6860   11.4140 c         1 IXH      0.625900
     17 C17         3.4390   -2.0570   12.2040 cc        1 IXH     -0.425400
     18 C18         4.6860   -1.4860   11.9370 cd        1 IXH      0.271000
     19 C19         6.2360   -0.0410   10.7720 ca        1 IXH      0.021600
     20 C20         6.5600    1.2220   11.2960 ca        1 IXH     -0.095000
     21 C21         7.8560    1.7270   11.1450 ca        1 IXH     -0.113000
     22 C22         8.8060    0.9730   10.4740 ca        1 IXH     -0.027300
     23 C23        10.2360    1.3000   10.2070 c3        1 IXH     -0.053100
     24 C24        10.7910    0.0980    9.4290 c3        1 IXH     -0.083400
     25 C25         9.6510   -0.9180    9.2690 c3        1 IXH     -0.045100
     26 C26         8.4700   -0.2960    9.9390 ca        1 IXH     -0.067300
     27 C27         7.1950   -0.8140   10.0750 ca        1 IXH     -0.103000
     28 C28         3.8340   -0.1540   10.1390 ca        1 IXH      0.705200
     29 C29         3.3910   -3.0220   13.2870 c         1 IXH      0.587300
     30 N1          3.4980   -0.1360    2.1100 nh        1 IXH     -0.609000
     31 N2          1.6720    0.6600    8.5510 nb        1 IXH     -0.671000
     32 N3          4.9080   -0.5710   10.9580 na        1 IXH     -0.438500
     33 N4          4.0580    0.7710    9.1410 nb        1 IXH     -0.683000
     34 N5          3.1980    2.1070    7.2960 n4        1 IXH     -0.577100
     35 N6          3.6310   -1.6420   -0.3120 n3        1 IXH     -0.822200
     36 N7          2.0490   -3.6080   13.6410 n4        1 IXH     -0.738400
     37 O1          1.1380   -2.1590   11.6010 o         1 IXH     -0.586100
     38 O2          4.3240   -3.4320   13.9700 o         1 IXH     -0.439100
     39 H1          1.1820   -1.7270   -1.6430 hc        1 IXH      0.054867
     40 H1A         1.0510   -2.5550   -0.0360 hc        1 IXH      0.054867
     41 H1B         0.2750   -0.9320   -0.2900 hc        1 IXH      0.054867
     42 H2          2.4890    0.1380   -0.6450 h1        1 IXH      0.035700
     43 H3          1.8170   -1.3930    1.9460 h1        1 IXH      0.059950
     44 H3A         1.5560    0.3620    1.4750 h1        1 IXH      0.059950
     45 H4          5.5220    0.2960    1.7330 h1        1 IXH      0.059950
     46 H4A         5.1440   -1.4490    2.1600 h1        1 IXH      0.059950
     47 H5          4.8590    0.1020   -0.4910 h1        1 IXH      0.035700
     48 H6          6.9760   -1.0340    0.1400 hc        1 IXH      0.054867
     49 H6A         6.1250   -2.6330    0.2870 hc        1 IXH      0.054867
     50 H6B         6.2250   -1.8020   -1.3210 hc        1 IXH      0.054867
     51 H8          1.2180    0.3980    3.4970 ha        1 IXH      0.166500
     52 H9          1.1000    1.3780    5.7170 ha        1 IXH      0.151000
     53 H11         5.4580    1.2980    6.0020 ha        1 IXH      0.151000
     54 H12         5.5960    0.3180    3.7850 ha        1 IXH      0.166500
     55 H14         0.4480   -0.6260    9.6570 h4        1 IXH      0.098100
     56 H18         5.5820   -1.7720   12.5430 h4        1 IXH      0.226000
     57 H20         5.8110    1.8240   11.8350 ha        1 IXH      0.148000
     58 H21         8.1110    2.7130   11.5660 ha        1 IXH      0.168000
     59 H23        10.3240    2.2440    9.6110 hc        1 IXH      0.080700
     60 H23A       10.7930    1.4520   11.1670 hc        1 IXH      0.080700
     61 H24        11.1680    0.4210    8.4280 hc        1 IXH      0.067700
     62 H24A       11.6470   -0.3620    9.9810 hc        1 IXH      0.067700
     63 H25         9.4370   -1.1180    8.1880 hc        1 IXH      0.071200
     64 H25A        9.9120   -1.8950    9.7510 hc        1 IXH      0.071200
     65 H27         6.9460   -1.7990    9.6550 ha        1 IXH      0.151000
     66 HN5         4.0790    2.6130    7.4710 hn        1 IXH      0.480300
     67 HN6         3.6870   -1.9620   -1.2600 hn        1 IXH      0.393800
     68 HN7         2.1550   -4.3120   14.3820 hn        1 IXH      0.480467
     69 HN7A        1.6230   -4.0310   12.8040 hn        1 IXH      0.480467
     70 H52         2.4100    2.7730    7.2920 hn        1 IXH      0.480300
     71 H73         1.4190   -2.8590   13.9550 hn        1 IXH      0.480467
@<TRIPOS>BOND
     1    1    2 1   
     2    1   39 1   
     3    1   40 1   
     4    1   41 1   
     5    2    3 1   
     6    2   35 1   
     7    2   42 1   
     8    3   30 1   
     9    3   43 1   
    10    3   44 1   
    11    4    5 1   
    12    4   30 1   
    13    4   45 1   
    14    4   46 1   
    15    5    6 1   
    16    5   35 1   
    17    5   47 1   
    18    6   48 1   
    19    6   49 1   
    20    6   50 1   
    21    7    8 ar  
    22    7   12 ar  
    23    7   30 1   
    24    8    9 ar  
    25    8   51 1   
    26    9   10 ar  
    27    9   52 1   
    28   10   11 ar  
    29   10   34 1   
    30   11   12 ar  
    31   11   53 1   
    32   12   54 1   
    33   13   31 ar  
    34   13   33 ar  
    35   13   34 1   
    36   14   15 ar  
    37   14   31 ar  
    38   14   55 1   
    39   15   16 1   
    40   15   28 ar  
    41   16   17 1   
    42   16   37 2   
    43   17   18 2   
    44   17   29 1   
    45   18   32 1   
    46   18   56 1   
    47   19   20 ar  
    48   19   27 ar  
    49   19   32 1   
    50   20   21 ar  
    51   20   57 1   
    52   21   22 ar  
    53   21   58 1   
    54   22   23 1   
    55   22   26 ar  
    56   23   24 1   
    57   23   59 1   
    58   23   60 1   
    59   24   25 1   
    60   24   61 1   
    61   24   62 1   
    62   25   26 1   
    63   25   63 1   
    64   25   64 1   
    65   26   27 ar  
    66   27   65 1   
    67   28   32 1   
    68   28   33 ar  
    69   29   36 1   
    70   29   38 2   
    71   34   66 1   
    72   34   70 1   
    73   35   67 1   
    74   36   68 1   
    75   36   69 1   
    76   36   71 1   
@<TRIPOS>SUBSTRUCTURE
     1 IXH         1 TEMP              0 ****  ****    0 ROOT
