@<TRIPOS>MOLECULE
IXH
   69    74     1     0     0
SMALL
bcc


@<TRIPOS>ATOM
      1 C1         -9.1010   -1.1770    1.9140 c3        1 IXH     -0.096100
      2 C2         -8.4440   -0.1110    1.0410 c3        1 IXH      0.165000
      3 C3         -6.9080   -0.3530    1.0770 c3        1 IXH      0.150300
      4 C4         -6.7210    0.5950   -1.1540 c3        1 IXH      0.150300
      5 C5         -8.2580    0.8270   -1.1770 c3        1 IXH      0.165000
      6 C6         -8.7170    0.7410   -2.6300 c3        1 IXH     -0.096100
      7 C7         -4.7750    0.5290    0.2950 ca        1 IXH      0.139600
      8 C8         -4.0790   -0.4160    1.0800 ca        1 IXH     -0.162000
      9 C9         -2.6990   -0.3570    1.2300 ca        1 IXH     -0.103000
     10 C10        -1.9500    0.6410    0.5820 ca        1 IXH      0.090600
     11 C11        -2.6360    1.5880   -0.2090 ca        1 IXH     -0.103000
     12 C12        -4.0140    1.5380   -0.3430 ca        1 IXH     -0.162000
     13 C13         0.3440   -0.2530    0.4040 ca        1 IXH      0.921900
     14 C14         0.7780   -2.4850   -0.0410 ca        1 IXH      0.533200
     15 C15         2.1710   -2.2310   -0.1240 ca        1 IXH     -0.481200
     16 C16         3.1160   -3.3150   -0.3890 c         1 IXH      0.623900
     17 C17         4.5160   -2.8990   -0.4250 cc        1 IXH     -0.336400
     18 C18         4.8550   -1.5820   -0.2340 cd        1 IXH      0.185000
     19 C19         4.4370    0.7630    0.1950 ca        1 IXH      0.111600
     20 C20         5.3670    1.0110    1.2210 ca        1 IXH     -0.126000
     21 C21         5.8750    2.2980    1.4210 ca        1 IXH     -0.111000
     22 C22         5.4470    3.3300    0.6030 ca        1 IXH     -0.072300
     23 C23         5.8430    4.7680    0.6290 c3        1 IXH     -0.039100
     24 C24         5.0510    5.4290   -0.5080 c3        1 IXH     -0.079400
     25 C25         4.2000    4.3380   -1.1750 c3        1 IXH     -0.036100
     26 C26         4.5090    3.0840   -0.4260 ca        1 IXH     -0.082300
     27 C27         4.0000    1.8160   -0.6430 ca        1 IXH     -0.087000
     28 C28         2.5770   -0.8740    0.0680 ca        1 IXH      0.730200
     29 C29         5.6510   -3.8340   -0.6490 c         1 IXH      0.689300
     30 N1         -6.1880    0.5520    0.1990 nh        1 IXH     -0.634000
     31 N2         -0.1370   -1.5560    0.2110 nb        1 IXH     -0.748000
     32 N3          3.9490   -0.5660   -0.0090 na        1 IXH     -0.500500
     33 N4          1.6730    0.1220    0.3170 nb        1 IXH     -0.801000
     34 N5         -0.5510    0.7590    0.7670 nh        1 IXH     -0.703300
     35 N6         -9.0090   -0.0610   -0.3000 n3        1 IXH     -0.797200
     36 N7          5.4160   -5.1240   -1.0330 n         1 IXH     -0.654000
     37 O1          2.7190   -4.4830   -0.5600 o         1 IXH     -0.597100
     38 O2          6.8340   -3.4340   -0.5080 o         1 IXH     -0.659100
     39 H1         -8.6750   -1.1190    2.9440 hc        1 IXH      0.043033
     40 H1A       -10.2030   -1.0080    1.9720 hc        1 IXH      0.043033
     41 H1B        -8.9170   -2.2010    1.5090 hc        1 IXH      0.043033
     42 H2         -8.6450    0.9020    1.5030 h1        1 IXH      0.073200
     43 H3         -6.5540   -0.1740    2.1300 h1        1 IXH      0.041450
     44 H3A        -6.7090   -1.4330    0.8160 h1        1 IXH      0.041450
     45 H4         -6.4900   -0.3580   -1.7130 h1        1 IXH      0.041450
     46 H4A        -6.2360    1.4450   -1.7080 h1        1 IXH      0.041450
     47 H5         -8.4550    1.8760   -0.8020 h1        1 IXH      0.073200
     48 H6         -8.5270   -0.2740   -3.0550 hc        1 IXH      0.043033
     49 H6A        -9.8090    0.9610   -2.7070 hc        1 IXH      0.043033
     50 H6B        -8.1570    1.4920   -3.2360 hc        1 IXH      0.043033
     51 H8         -4.6180   -1.2260    1.5960 ha        1 IXH      0.138500
     52 H9         -2.1990   -1.1120    1.8590 ha        1 IXH      0.143000
     53 H11        -2.0820    2.3890   -0.7250 ha        1 IXH      0.143000
     54 H12        -4.5120    2.3100   -0.9510 ha        1 IXH      0.138500
     55 H14         0.4100   -3.5210   -0.1960 h4        1 IXH      0.057100
     56 H18         5.9240   -1.2690   -0.2570 h4        1 IXH      0.200000
     57 H20         5.7080    0.1930    1.8760 ha        1 IXH      0.146000
     58 H21         6.6040    2.4790    2.2250 ha        1 IXH      0.143000
     59 H23         5.5910    5.2310    1.6170 hc        1 IXH      0.058700
     60 H23A        6.9450    4.8790    0.4710 hc        1 IXH      0.058700
     61 H24         4.3980    6.2410   -0.1070 hc        1 IXH      0.048200
     62 H24A        5.7480    5.8870   -1.2520 hc        1 IXH      0.048200
     63 H25         3.1100    4.5820   -1.1080 hc        1 IXH      0.057200
     64 H25A        4.4610    4.2290   -2.2580 hc        1 IXH      0.057200
     65 H27         3.2680    1.6360   -1.4440 ha        1 IXH      0.151000
     66 HN5        -0.1970    1.6930    0.7220 hn        1 IXH      0.447800
     67 HN6        -9.0500   -0.9850   -0.6940 hn        1 IXH      0.350800
     68 HN7         4.4950   -5.4870   -1.0870 hn        1 IXH      0.325500
     69 HN7A        6.1860   -5.7370   -1.1350 hn        1 IXH      0.325500
@<TRIPOS>BOND
     1    1    2 1   
     2    1   39 1   
     3    1   40 1   
     4    1   41 1   
     5    2    3 1   
     6    2   35 1   
     7    2   42 1   
     8    3   30 1   
     9    3   43 1   
    10    3   44 1   
    11    4    5 1   
    12    4   30 1   
    13    4   45 1   
    14    4   46 1   
    15    5    6 1   
    16    5   35 1   
    17    5   47 1   
    18    6   48 1   
    19    6   49 1   
    20    6   50 1   
    21    7    8 ar  
    22    7   12 ar  
    23    7   30 1   
    24    8    9 ar  
    25    8   51 1   
    26    9   10 ar  
    27    9   52 1   
    28   10   11 ar  
    29   10   34 1   
    30   11   12 ar  
    31   11   53 1   
    32   12   54 1   
    33   13   31 ar  
    34   13   33 ar  
    35   13   34 1   
    36   14   15 ar  
    37   14   31 ar  
    38   14   55 1   
    39   15   16 1   
    40   15   28 ar  
    41   16   17 1   
    42   16   37 2   
    43   17   18 2   
    44   17   29 1   
    45   18   32 1   
    46   18   56 1   
    47   19   20 ar  
    48   19   27 ar  
    49   19   32 1   
    50   20   21 ar  
    51   20   57 1   
    52   21   22 ar  
    53   21   58 1   
    54   22   23 1   
    55   22   26 ar  
    56   23   24 1   
    57   23   59 1   
    58   23   60 1   
    59   24   25 1   
    60   24   61 1   
    61   24   62 1   
    62   25   26 1   
    63   25   63 1   
    64   25   64 1   
    65   26   27 ar  
    66   27   65 1   
    67   28   32 1   
    68   28   33 ar  
    69   29   36 1   
    70   29   38 2   
    71   34   66 1   
    72   35   67 1   
    73   36   68 1   
    74   36   69 1   
@<TRIPOS>SUBSTRUCTURE
     1 IXH         1 TEMP              0 ****  ****    0 ROOT
