@<TRIPOS>MOLECULE
IXM
   32    28     1     0     0
SMALL
bcc


@<TRIPOS>ATOM
      1 C1         -2.1240    0.6020   -1.1840 c1        1 IXM     -0.115000
      2 C2         -0.6370    0.5950   -1.1990 c1        1 IXM     -0.037000
      3 C3         -2.5440    0.5570    0.1550 c2        1 IXM      0.039000
      4 N4         -1.3250    0.5210    1.0250 n3        1 IXM     -0.233000
      5 C5         -3.9050    0.5420    0.4570 c1        1 IXM     -0.156000
      6 C7         -4.8480    0.5700   -0.5690 c1        1 IXM     -0.127500
      7 C9         -4.4290    0.6150   -1.9060 c1        1 IXM     -0.127500
      8 C11        -3.0690    0.6310   -2.2100 c1        1 IXM     -0.054000
      9 C13        -0.1780    0.5450    0.1790 c2        1 IXM      0.152000
     10 C14         1.1060    0.5750    0.5870 c1        1 IXM     -0.159000
     11 C15         1.9300    1.7640    0.7330 c1        1 IXM      0.363000
     12 N16         3.2290    1.3500    1.1480 n3        1 IXM     -0.340000
     13 C17         3.2250   -0.1440    1.2680 c2        1 IXM      0.075000
     14 C18         1.9430   -0.6050    0.9290 c2        1 IXM     -0.087000
     15 C19         4.2180   -1.0520    1.6330 c1        1 IXM     -0.174000
     16 C20         3.9380   -2.4170    1.6620 c1        1 IXM     -0.127500
     17 C21         2.6590   -2.8780    1.3230 c1        1 IXM     -0.127500
     18 C22         1.6650   -1.9720    0.9580 c1        1 IXM     -0.086000
     19 O23         1.5870    2.9030    0.4910 o         1 IXM     -0.315000
     20 N24         0.1190    0.6970   -2.2560 n1        1 IXM      0.031000
     21 O39        -0.4460    0.7340   -3.5010 o         1 IXM     -0.240000
     22 HN4        -1.3180    0.4890    1.9360 hn        1 IXM      0.232000
     23 HC5        -4.1980    0.5110    1.3880 ha        1 IXM      0.142000
     24 HC7        -5.8010    0.5590   -0.3570 ha        1 IXM      0.135000
     25 HC9        -5.0890    0.6350   -2.6240 ha        1 IXM      0.135000
     26 H11        -2.7770    0.6620   -3.1410 ha        1 IXM      0.155000
     27 H16         3.9380    1.8980    1.3120 hn        1 IXM      0.254000
     28 H19         5.1090   -0.7320    1.8690 ha        1 IXM      0.140000
     29 H20         4.6340   -3.0530    1.9170 ha        1 IXM      0.135000
     30 H21         2.4630   -3.8350    1.3430 ha        1 IXM      0.135000
     31 H22         0.7740   -2.2940    0.7220 ha        1 IXM      0.135000
     32 H39         0.1510    1.0280   -4.0900 ho        1 IXM      0.253000
@<TRIPOS>BOND
     1    1    3 1   
     2    1    8 1   
     3    2    9 1   
     4    2   20 1   
     5    3    4 1   
     6    3    5 1   
     7    4    9 1   
     8    4   22 1   
     9    5   23 1   
    10    6    7 1   
    11    6   24 1   
    12    7   25 1   
    13    8   26 1   
    14    9   10 1   
    15   10   14 1   
    16   11   12 1   
    17   11   19 1   
    18   12   13 1   
    19   12   27 1   
    20   13   14 1   
    21   13   15 1   
    22   14   18 1   
    23   15   28 1   
    24   16   17 1   
    25   16   29 1   
    26   17   30 1   
    27   18   31 1   
    28   21   32 1   
@<TRIPOS>SUBSTRUCTURE
     1 IXM         1 TEMP              0 ****  ****    0 ROOT
