@<TRIPOS>MOLECULE
IXM
   32    35     1     0     0
SMALL
bcc


@<TRIPOS>ATOM
      1 C1         -2.5760    0.5080    0.0120 ca        1 IXM     -0.223900
      2 C2         -1.1540    0.9070    0.0570 cc        1 IXM      0.449200
      3 C3         -2.6180   -0.9160   -0.1560 ca        1 IXM      0.029800
      4 N4         -1.3110   -1.4150   -0.2760 na        1 IXM     -0.236400
      5 C5         -3.8350   -1.5910   -0.2180 ca        1 IXM     -0.167000
      6 C7         -5.0050   -0.8300   -0.1170 ca        1 IXM     -0.080000
      7 C9         -4.9670    0.5540    0.0410 ca        1 IXM     -0.173000
      8 C11        -3.7450    1.2380    0.1080 ca        1 IXM     -0.045000
      9 C13        -0.3720   -0.3800   -0.1130 cc        1 IXM      0.061300
     10 C14         0.9720   -0.5970   -0.0950 cd        1 IXM     -0.185400
     11 C15         1.5330   -1.9930    0.0410 c         1 IXM      0.709700
     12 N16         2.9250   -1.8870    0.2060 n         1 IXM     -0.468100
     13 C17         3.3100   -0.5430    0.0690 ca        1 IXM      0.048600
     14 C18         2.1380    0.2850   -0.1330 ca        1 IXM     -0.063800
     15 C19         4.5930   -0.0070    0.0880 ca        1 IXM     -0.169000
     16 C20         4.7310    1.3710   -0.1190 ca        1 IXM     -0.098000
     17 C21         3.6210    2.1700   -0.3610 ca        1 IXM     -0.166000
     18 C22         2.3240    1.6330   -0.3800 ca        1 IXM     -0.073000
     19 O23         0.9310   -3.0810    0.0580 o         1 IXM     -0.647500
     20 N24        -0.6000    2.0690    0.2670 n2        1 IXM     -0.406200
     21 O39        -1.4050    3.0870    0.4460 oh        1 IXM     -0.339500
     22 HN4        -1.0710   -2.3760   -0.1810 hn        1 IXM      0.333700
     23 HC5        -3.8820   -2.6810   -0.3440 ha        1 IXM      0.146000
     24 HC7        -5.9780   -1.3450   -0.1650 ha        1 IXM      0.136000
     25 HC9        -5.9060    1.1210    0.1160 ha        1 IXM      0.137000
     26 H11        -3.7150    2.3310    0.2360 ha        1 IXM      0.152000
     27 H16         3.5510   -2.6480    0.2460 hn        1 IXM      0.341500
     28 H19         5.4750   -0.6380    0.2550 ha        1 IXM      0.138000
     29 H20         5.7370    1.8160   -0.0990 ha        1 IXM      0.132000
     30 H21         3.7530    3.2460   -0.5460 ha        1 IXM      0.131000
     31 H22         1.4870    2.3030   -0.6170 ha        1 IXM      0.149000
     32 H39        -0.8060    3.8460    0.6050 ho        1 IXM      0.446000
@<TRIPOS>BOND
     1    1    2 1   
     2    1    3 ar  
     3    1    8 ar  
     4    2    9 1   
     5    2   20 2   
     6    3    4 1   
     7    3    5 ar  
     8    4    9 1   
     9    4   22 1   
    10    5    6 ar  
    11    5   23 1   
    12    6    7 ar  
    13    6   24 1   
    14    7    8 ar  
    15    7   25 1   
    16    8   26 1   
    17    9   10 2   
    18   10   11 1   
    19   10   14 1   
    20   11   12 1   
    21   11   19 2   
    22   12   13 1   
    23   12   27 1   
    24   13   14 ar  
    25   13   15 ar  
    26   14   18 ar  
    27   15   16 ar  
    28   15   28 1   
    29   16   17 ar  
    30   16   29 1   
    31   17   18 ar  
    32   17   30 1   
    33   18   31 1   
    34   20   21 1   
    35   21   32 1   
@<TRIPOS>SUBSTRUCTURE
     1 IXM         1 TEMP              0 ****  ****    0 ROOT
