@<TRIPOS>MOLECULE
IXM
   32    35     1     0     0
SMALL
bcc


@<TRIPOS>ATOM
      1 C1         -0.1050    0.0060   -0.0700 ca        1 IXM     -0.223900
      2 C2          1.3670   -0.0330   -0.1870 cc        1 IXM      0.449200
      3 C3         -0.4260   -0.0420    1.3280 ca        1 IXM      0.029800
      4 N4          0.7540   -0.1650    2.0780 na        1 IXM     -0.236400
      5 C5         -1.7510   -0.0040    1.7570 ca        1 IXM     -0.167000
      6 C7         -2.7480    0.0740    0.7770 ca        1 IXM     -0.080000
      7 C9         -2.4390    0.1150   -0.5810 ca        1 IXM     -0.173000
      8 C11        -1.1070    0.0810   -1.0180 ca        1 IXM     -0.045000
      9 C13         1.8800   -0.1230    1.2360 cc        1 IXM      0.061300
     10 C14         3.1570   -0.1350    1.7080 cd        1 IXM     -0.185400
     11 C15         3.4470    0.0980    3.1720 c         1 IXM      0.709700
     12 N16         4.8410    0.2040    3.3270 n         1 IXM     -0.468100
     13 C17         5.4680   -0.0590    2.0970 ca        1 IXM      0.048600
     14 C18         4.4660   -0.2880    1.0740 ca        1 IXM     -0.063800
     15 C19         6.8280   -0.1300    1.8200 ca        1 IXM     -0.169000
     16 C20         7.2160   -0.4570    0.5150 ca        1 IXM     -0.098000
     17 C21         6.2680   -0.7260   -0.4640 ca        1 IXM     -0.166000
     18 C22         4.8930   -0.6540   -0.1890 ca        1 IXM     -0.073000
     19 O23         2.6510    0.2270    4.1180 o         1 IXM     -0.647500
     20 N24         2.1430    0.0600   -1.2320 n2        1 IXM     -0.406200
     21 O39         1.5570    0.1810   -2.3970 oh        1 IXM     -0.339500
     22 HN4         0.8110    0.0010    3.0580 hn        1 IXM      0.333700
     23 HC5        -2.0110   -0.0360    2.8230 ha        1 IXM      0.146000
     24 HC7        -3.8020    0.1040    1.0950 ha        1 IXM      0.136000
     25 HC9        -3.2480    0.1760   -1.3240 ha        1 IXM      0.137000
     26 H11        -0.8630    0.1170   -2.0910 ha        1 IXM      0.152000
     27 H16         5.3110    0.2850    4.1890 hn        1 IXM      0.341500
     28 H19         7.5810    0.0570    2.5960 ha        1 IXM      0.138000
     29 H20         8.2880   -0.5110    0.2730 ha        1 IXM      0.132000
     30 H21         6.5930   -1.0050   -1.4770 ha        1 IXM      0.131000
     31 H22         4.1880   -0.9170   -0.9890 ha        1 IXM      0.149000
     32 H39         2.2970    0.2550   -3.0360 ho        1 IXM      0.446000
@<TRIPOS>BOND
     1    1    2 1   
     2    1    3 ar  
     3    1    8 ar  
     4    2    9 1   
     5    2   20 2   
     6    3    4 1   
     7    3    5 ar  
     8    4    9 1   
     9    4   22 1   
    10    5    6 ar  
    11    5   23 1   
    12    6    7 ar  
    13    6   24 1   
    14    7    8 ar  
    15    7   25 1   
    16    8   26 1   
    17    9   10 2   
    18   10   11 1   
    19   10   14 1   
    20   11   12 1   
    21   11   19 2   
    22   12   13 1   
    23   12   27 1   
    24   13   14 ar  
    25   13   15 ar  
    26   14   18 ar  
    27   15   16 ar  
    28   15   28 1   
    29   16   17 ar  
    30   16   29 1   
    31   17   18 ar  
    32   17   30 1   
    33   18   31 1   
    34   20   21 1   
    35   21   32 1   
@<TRIPOS>SUBSTRUCTURE
     1 IXM         1 TEMP              0 ****  ****    0 ROOT
