@<TRIPOS>MOLECULE
IXM
   32    35     1     0     0
SMALL
bcc


@<TRIPOS>ATOM
      1 C1         -0.1050    0.0070   -0.0720 ca        1 IXM     -0.223900
      2 C2          1.3680   -0.0340   -0.1880 cc        1 IXM      0.449200
      3 C3         -0.4260   -0.0390    1.3260 ca        1 IXM      0.029800
      4 N4          0.7520   -0.1630    2.0770 na        1 IXM     -0.236400
      5 C5         -1.7520    0.0010    1.7530 ca        1 IXM     -0.167000
      6 C7         -2.7480    0.0790    0.7720 ca        1 IXM     -0.080000
      7 C9         -2.4380    0.1180   -0.5850 ca        1 IXM     -0.173000
      8 C11        -1.1060    0.0830   -1.0210 ca        1 IXM     -0.045000
      9 C13         1.8800   -0.1220    1.2360 cc        1 IXM      0.061300
     10 C14         3.1560   -0.1350    1.7090 cd        1 IXM     -0.185400
     11 C15         3.4460    0.0990    3.1730 c         1 IXM      0.709700
     12 N16         4.8390    0.2030    3.3290 ns        1 IXM     -0.468100
     13 C17         5.4660   -0.0610    2.1000 ca        1 IXM      0.048600
     14 C18         4.4660   -0.2900    1.0760 ca        1 IXM     -0.063800
     15 C19         6.8270   -0.1330    1.8230 ca        1 IXM     -0.169000
     16 C20         7.2160   -0.4610    0.5190 ca        1 IXM     -0.098000
     17 C21         6.2680   -0.7290   -0.4610 ca        1 IXM     -0.166000
     18 C22         4.8940   -0.6560   -0.1870 ca        1 IXM     -0.073000
     19 O23         2.6490    0.2290    4.1180 o         1 IXM     -0.647500
     20 N24         2.1450    0.0580   -1.2320 n2        1 IXM     -0.406200
     21 O39         1.5590    0.1780   -2.3980 oh        1 IXM     -0.339500
     22 HN4         0.8090    0.0040    3.0570 hn        1 IXM      0.333700
     23 HC5        -2.0130   -0.0310    2.8190 ha        1 IXM      0.146000
     24 HC7        -3.8020    0.1100    1.0900 ha        1 IXM      0.136000
     25 HC9        -3.2460    0.1790   -1.3280 ha        1 IXM      0.137000
     26 H11        -0.8600    0.1170   -2.0930 ha        1 IXM      0.152000
     27 H16         5.3090    0.2840    4.1920 hn        1 IXM      0.341500
     28 H19         7.5800    0.0550    2.6010 ha        1 IXM      0.138000
     29 H20         8.2880   -0.5150    0.2780 ha        1 IXM      0.132000
     30 H21         6.5940   -1.0090   -1.4730 ha        1 IXM      0.131000
     31 H22         4.1890   -0.9190   -0.9870 ha        1 IXM      0.149000
     32 H39         2.3010    0.2510   -3.0360 ho        1 IXM      0.446000
@<TRIPOS>BOND
     1    1    2 1   
     2    1    3 ar  
     3    1    8 ar  
     4    2    9 1   
     5    2   20 2   
     6    3    4 1   
     7    3    5 ar  
     8    4    9 1   
     9    4   22 1   
    10    5    6 ar  
    11    5   23 1   
    12    6    7 ar  
    13    6   24 1   
    14    7    8 ar  
    15    7   25 1   
    16    8   26 1   
    17    9   10 2   
    18   10   11 1   
    19   10   14 1   
    20   11   12 1   
    21   11   19 2   
    22   12   13 1   
    23   12   27 1   
    24   13   14 ar  
    25   13   15 ar  
    26   14   18 ar  
    27   15   16 ar  
    28   15   28 1   
    29   16   17 ar  
    30   16   29 1   
    31   17   18 ar  
    32   17   30 1   
    33   18   31 1   
    34   20   21 1   
    35   21   32 1   
@<TRIPOS>SUBSTRUCTURE
     1 IXM         1 TEMP              0 ****  ****    0 ROOT
