@<TRIPOS>MOLECULE
IXM
   32    35     1     0     0
SMALL
bcc


@<TRIPOS>ATOM
      1 C1         -0.1050    0.0070   -0.0710 ca        1 IXM     -0.223900
      2 C2          1.3680   -0.0320   -0.1870 cc        1 IXM      0.449200
      3 C3         -0.4260   -0.0430    1.3270 ca        1 IXM      0.029800
      4 N4          0.7530   -0.1670    2.0780 na        1 IXM     -0.236400
      5 C5         -1.7520   -0.0050    1.7550 ca        1 IXM     -0.167000
      6 C7         -2.7480    0.0740    0.7740 ca        1 IXM     -0.080000
      7 C9         -2.4380    0.1170   -0.5830 ca        1 IXM     -0.173000
      8 C11        -1.1070    0.0830   -1.0190 ca        1 IXM     -0.045000
      9 C13         1.8800   -0.1240    1.2360 cc        1 IXM      0.061300
     10 C14         3.1570   -0.1360    1.7080 cd        1 IXM     -0.185400
     11 C15         3.4460    0.0950    3.1730 c         1 IXM      0.709700
     12 N16         4.8400    0.2000    3.3290 n         1 IXM     -0.468100
     13 C17         5.4670   -0.0610    2.0990 ca        1 IXM      0.048600
     14 C18         4.4660   -0.2880    1.0750 ca        1 IXM     -0.063800
     15 C19         6.8280   -0.1310    1.8220 ca        1 IXM     -0.169000
     16 C20         7.2160   -0.4560    0.5170 ca        1 IXM     -0.098000
     17 C21         6.2680   -0.7230   -0.4630 ca        1 IXM     -0.166000
     18 C22         4.8940   -0.6520   -0.1890 ca        1 IXM     -0.073000
     19 O23         2.6500    0.2220    4.1180 o         1 IXM     -0.647500
     20 N24         2.1440    0.0610   -1.2320 n2        1 IXM     -0.406200
     21 O39         1.5580    0.1840   -2.3970 oh        1 IXM     -0.339500
     22 HN4         0.8090   -0.0030    3.0570 hn        1 IXM      0.333700
     23 HC5        -2.0120   -0.0390    2.8210 ha        1 IXM      0.146000
     24 HC7        -3.8020    0.1040    1.0920 ha        1 IXM      0.136000
     25 HC9        -3.2470    0.1780   -1.3260 ha        1 IXM      0.137000
     26 H11        -0.8610    0.1200   -2.0920 ha        1 IXM      0.152000
     27 H16         5.3090    0.2800    4.1910 hn        1 IXM      0.341500
     28 H19         7.5800    0.0560    2.5990 ha        1 IXM      0.138000
     29 H20         8.2880   -0.5090    0.2750 ha        1 IXM      0.132000
     30 H21         6.5950   -1.0000   -1.4760 ha        1 IXM      0.131000
     31 H22         4.1890   -0.9130   -0.9890 ha        1 IXM      0.149000
     32 H39         2.2990    0.2580   -3.0350 ho        1 IXM      0.446000
@<TRIPOS>BOND
     1    1    2 1   
     2    1    3 ar  
     3    1    8 ar  
     4    2    9 1   
     5    2   20 2   
     6    3    4 1   
     7    3    5 ar  
     8    4    9 1   
     9    4   22 1   
    10    5    6 ar  
    11    5   23 1   
    12    6    7 ar  
    13    6   24 1   
    14    7    8 ar  
    15    7   25 1   
    16    8   26 1   
    17    9   10 2   
    18   10   11 1   
    19   10   14 1   
    20   11   12 1   
    21   11   19 2   
    22   12   13 1   
    23   12   27 1   
    24   13   14 ar  
    25   13   15 ar  
    26   14   18 ar  
    27   15   16 ar  
    28   15   28 1   
    29   16   17 ar  
    30   16   29 1   
    31   17   18 ar  
    32   17   30 1   
    33   18   31 1   
    34   20   21 1   
    35   21   32 1   
@<TRIPOS>SUBSTRUCTURE
     1 IXM         1 TEMP              0 ****  ****    0 ROOT
