@<TRIPOS>MOLECULE
IXN
   93    97     1     0     0
SMALL
bcc


@<TRIPOS>ATOM
      1 S          -1.5650   -1.3210   -1.6030 s6        1 IXN      1.634400
      2 N1         -6.9080    2.6090   -7.8140 nb        1 IXN     -0.817000
      3 C2         -6.2280    3.5710   -7.0900 ca        1 IXN      0.840500
      4 N3         -5.4260    3.3870   -5.9800 nb        1 IXN     -0.748000
      5 C4         -5.3450    2.0830   -5.6080 ca        1 IXN      0.479800
      6 C5         -6.0120    0.9740   -6.2660 ca        1 IXN     -0.249200
      7 C6         -6.8110    1.2990   -7.4150 ca        1 IXN      0.803200
      8 N6         -7.4640    0.3190   -8.1020 nh        1 IXN     -0.942500
      9 N7         -5.7200   -0.2270   -5.6020 nc        1 IXN     -0.504100
     10 C8         -4.9170    0.1150   -4.5880 cd        1 IXN      0.383700
     11 N9         -4.6380    1.5080   -4.5350 na        1 IXN     -0.316000
     12 O9         -0.5470   -1.8200   -5.0310 o         1 IXN     -0.420100
     13 C1'        -3.8100    2.2630   -3.6320 c3        1 IXN      0.246800
     14 O1P        -1.1090   -0.5050   -0.6070 o         1 IXN     -0.565800
     15 C1S         1.3180   -1.5240   -3.5320 ca        1 IXN     -0.248600
     16 C2'        -4.6060    3.1660   -2.6320 c3        1 IXN      0.088100
     17 O2'        -3.8940    4.3720   -2.4770 oh        1 IXN     -0.597800
     18 C21        -0.0510   -1.3500   -4.0150 c         1 IXN      0.596700
     19 O2P        -1.3520   -2.6590   -1.7400 o         1 IXN     -0.565800
     20 C2S         2.0780   -0.5260   -2.8890 ca        1 IXN      0.181100
     21 O2S         1.4700    0.6800   -2.6390 oh        1 IXN     -0.546100
     22 C3'        -4.5580    2.4040   -1.2880 c3        1 IXN      0.142100
     23 O3'        -4.3070    3.2080   -0.1700 oh        1 IXN     -0.565800
     24 N33        -6.3840    4.9130   -7.5550 na        1 IXN     -0.021400
     25 N34        -5.8580    6.0280   -6.9450 nc        1 IXN     -0.124800
     26 N35        -6.1750    7.0530   -7.5970 nd        1 IXN     -0.333000
     27 C36        -6.9650    6.7010   -8.7380 cd        1 IXN      0.277600
     28 C37        -7.1040    5.3090   -8.7100 cc        1 IXN     -0.173600
     29 C38        -7.4910    7.6690   -9.7180 c3        1 IXN     -0.098700
     30 C39        -8.4610    8.6500   -9.0880 c3        1 IXN     -0.077400
     31 C3S         3.4120   -0.7670   -2.5260 ca        1 IXN     -0.207000
     32 C4'        -3.4480    1.3430   -1.4750 c3        1 IXN      0.038100
     33 O4'        -2.9990    1.3770   -2.8360 os        1 IXN     -0.484600
     34 C40        -9.0100    9.6030  -10.1300 c3        1 IXN     -0.080400
     35 C41        -9.9810   10.5860   -9.5120 c3        1 IXN     -0.078400
     36 C42       -10.5310   11.5400  -10.5510 c3        1 IXN     -0.079400
     37 C43       -11.5040   12.5220   -9.9340 c3        1 IXN     -0.078400
     38 C44       -12.0530   13.4760  -10.9720 c3        1 IXN     -0.079400
     39 C45       -13.0270   14.4580  -10.3550 c3        1 IXN     -0.078400
     40 C46       -13.5760   15.4130  -11.3930 c3        1 IXN     -0.079400
     41 C4S         3.9890   -2.0020   -2.8010 ca        1 IXN     -0.016000
     42 C5'        -3.9370   -0.0640   -1.1410 c3        1 IXN      0.172400
     43 O5'        -3.1590   -1.0570   -1.8020 os        1 IXN     -0.563500
     44 C5S         3.2470   -3.0010   -3.4440 ca        1 IXN     -0.155000
     45 C6S         1.9310   -2.7640   -3.8150 ca        1 IXN     -0.015000
     46 NHS        -0.9960   -0.5430   -3.1660 n4        1 IXN     -0.640700
     47 C29       -14.5500   16.3930  -10.7770 c3        1 IXN     -0.079400
     48 C30       -15.1000   17.3490  -11.8150 c3        1 IXN     -0.080400
     49 C31       -16.0710   18.3270  -11.2060 c3        1 IXN     -0.093100
     50 HN6        -8.0300    0.5330   -8.8880 hn        1 IXN      0.460800
     51 HN6A       -7.3950   -0.6180   -7.7860 hn        1 IXN      0.460800
     52 H1'        -3.0780    2.8860   -4.2310 h2        1 IXN      0.123700
     53 H2'        -5.6620    3.3450   -2.9640 h1        1 IXN      0.105700
     54 HO2'       -4.2960    5.0290   -3.0640 ho        1 IXN      0.453000
     55 HO2S        2.1210    1.2940   -2.2610 ho        1 IXN      0.472000
     56 H3'        -5.5510    1.9160   -1.0780 h1        1 IXN      0.101700
     57 HO3'       -3.6750    3.9020   -0.4120 ho        1 IXN      0.440000
     58 H37        -7.6160    4.6060   -9.3660 h4        1 IXN      0.214000
     59 H38        -8.0040    7.1030  -10.5420 hc        1 IXN      0.059700
     60 H38A       -6.6340    8.2340  -10.1780 hc        1 IXN      0.059700
     61 H39        -9.3050    8.0920   -8.6060 hc        1 IXN      0.051200
     62 H39A       -7.9410    9.2310   -8.2820 hc        1 IXN      0.051200
     63 H3S         3.9970    0.0240   -2.0300 ha        1 IXN      0.166000
     64 H4'        -2.5460    1.6050   -0.8490 h1        1 IXN      0.106700
     65 H40        -9.5270    9.0220  -10.9390 hc        1 IXN      0.040700
     66 H40A       -8.1650   10.1620  -10.6120 hc        1 IXN      0.040700
     67 H41       -10.8260   10.0270   -9.0290 hc        1 IXN      0.041200
     68 H41A       -9.4640   11.1670   -8.7030 hc        1 IXN      0.041200
     69 H42       -11.0460   10.9590  -11.3600 hc        1 IXN      0.040200
     70 H42A       -9.6860   12.1000  -11.0320 hc        1 IXN      0.040200
     71 H43       -12.3490   11.9620   -9.4520 hc        1 IXN      0.040200
     72 H43A      -10.9880   13.1030   -9.1240 hc        1 IXN      0.040200
     73 H44       -11.2080   14.0370  -11.4520 hc        1 IXN      0.040200
     74 H44A      -12.5670   12.8950  -11.7820 hc        1 IXN      0.040200
     75 H45       -13.8720   13.8980   -9.8750 hc        1 IXN      0.039700
     76 H45A      -12.5130   15.0380   -9.5440 hc        1 IXN      0.039700
     77 H46       -14.0890   14.8320  -12.2050 hc        1 IXN      0.039700
     78 H46A      -12.7300   15.9730  -11.8730 hc        1 IXN      0.039700
     79 H4S         5.0370   -2.1940   -2.5150 ha        1 IXN      0.169000
     80 H5'        -4.9750   -0.2600   -1.5350 h1        1 IXN      0.103200
     81 H5'A       -3.8970   -0.2360   -0.0330 h1        1 IXN      0.103200
     82 H5S         3.7120   -3.9760   -3.6640 ha        1 IXN      0.173000
     83 H6S         1.3490   -3.5430   -4.3390 ha        1 IXN      0.173000
     84 HNHS       -1.8240   -0.3180   -3.7420 hn        1 IXN      0.491800
     85 H371      -15.3960   15.8330  -10.2980 hc        1 IXN      0.039700
     86 H381      -14.0370   16.9740   -9.9660 hc        1 IXN      0.039700
     87 H391      -15.6110   16.7660  -12.6260 hc        1 IXN      0.038700
     88 H401      -14.2520   17.9080  -12.2940 hc        1 IXN      0.038700
     89 H411      -16.4630   19.0220  -11.9870 hc        1 IXN      0.033033
     90 H421      -16.9350   17.7900  -10.7450 hc        1 IXN      0.033033
     91 H431      -15.5730   18.9350  -10.4120 hc        1 IXN      0.033033
     92 HHS2       -0.5510    0.3620   -2.9600 hn        1 IXN      0.491800
     93 H8         -4.4970   -0.5700   -3.8410 h5        1 IXN      0.070800
@<TRIPOS>BOND
     1    1   14 2   
     2    1   19 2   
     3    1   43 1   
     4    1   46 1   
     5    2    3 ar  
     6    2    7 ar  
     7    3    4 ar  
     8    3   24 1   
     9    4    5 ar  
    10    5    6 ar  
    11    5   11 1   
    12    6    7 ar  
    13    6    9 1   
    14    7    8 1   
    15    8   50 1   
    16    8   51 1   
    17    9   10 2   
    18   10   11 1   
    19   10   93 1   
    20   11   13 1   
    21   12   18 2   
    22   13   16 1   
    23   13   33 1   
    24   13   52 1   
    25   15   18 1   
    26   15   20 ar  
    27   15   45 ar  
    28   16   17 1   
    29   16   22 1   
    30   16   53 1   
    31   17   54 1   
    32   18   46 1   
    33   20   21 1   
    34   20   31 ar  
    35   21   55 1   
    36   22   23 1   
    37   22   32 1   
    38   22   56 1   
    39   23   57 1   
    40   24   25 1   
    41   24   28 1   
    42   25   26 2   
    43   26   27 1   
    44   27   28 2   
    45   27   29 1   
    46   28   58 1   
    47   29   30 1   
    48   29   59 1   
    49   29   60 1   
    50   30   34 1   
    51   30   61 1   
    52   30   62 1   
    53   31   41 ar  
    54   31   63 1   
    55   32   33 1   
    56   32   42 1   
    57   32   64 1   
    58   34   35 1   
    59   34   65 1   
    60   34   66 1   
    61   35   36 1   
    62   35   67 1   
    63   35   68 1   
    64   36   37 1   
    65   36   69 1   
    66   36   70 1   
    67   37   38 1   
    68   37   71 1   
    69   37   72 1   
    70   38   39 1   
    71   38   73 1   
    72   38   74 1   
    73   39   40 1   
    74   39   75 1   
    75   39   76 1   
    76   40   47 1   
    77   40   77 1   
    78   40   78 1   
    79   41   44 ar  
    80   41   79 1   
    81   42   43 1   
    82   42   80 1   
    83   42   81 1   
    84   44   45 ar  
    85   44   82 1   
    86   45   83 1   
    87   46   84 1   
    88   46   92 1   
    89   47   48 1   
    90   47   85 1   
    91   47   86 1   
    92   48   49 1   
    93   48   87 1   
    94   48   88 1   
    95   49   89 1   
    96   49   90 1   
    97   49   91 1   
@<TRIPOS>SUBSTRUCTURE
     1 IXN         1 TEMP              0 ****  ****    0 ROOT
