@<TRIPOS>MOLECULE
IXN
   92    96     1     0     0
SMALL
bcc


@<TRIPOS>ATOM
      1 S           7.4750    0.6740   -0.4410 s6        1 IXN      1.705100
      2 N1         -1.2260   -2.3320   -1.9260 nb        1 IXN     -0.824000
      3 C2         -1.2800   -0.9480   -1.8940 ca        1 IXN      0.809500
      4 N3         -0.2380   -0.0580   -1.7860 nb        1 IXN     -0.731000
      5 C4          0.9740   -0.6780   -1.6950 ca        1 IXN      0.455800
      6 C5          1.1770   -2.1160   -1.7060 ca        1 IXN     -0.230200
      7 C6          0.0030   -2.9310   -1.8270 ca        1 IXN      0.786200
      8 N6          0.1100   -4.2950   -1.8270 nh        1 IXN     -0.957500
      9 N7          2.5440   -2.4110   -1.5930 nc        1 IXN     -0.545100
     10 C8          3.1560   -1.2190   -1.5180 cd        1 IXN      0.434700
     11 N9          2.2560   -0.1240   -1.5650 na        1 IXN     -0.293000
     12 O9          8.1050   -2.0870    0.5620 o         1 IXN     -0.577100
     13 C1'         2.5460    1.2930   -1.6270 c3        1 IXN      0.222800
     14 O1P         7.8500    0.0580   -1.6130 o         1 IXN     -0.631300
     15 C1S         9.3920   -1.4070    2.4630 ca        1 IXN     -0.249600
     16 C2'         1.8880    2.1180   -0.4700 c3        1 IXN      0.084100
     17 O2'         1.2980    3.2750   -1.0180 oh        1 IXN     -0.593800
     18 C21         8.5630   -1.1640    1.2630 c         1 IXN      0.715700
     19 O2P         7.3830    2.0600   -0.3440 o         1 IXN     -0.631300
     20 C2S        10.2280   -2.5390    2.5320 ca        1 IXN      0.208100
     21 O2S        10.3640   -3.4800    1.5530 oh        1 IXN     -0.493100
     22 C3'         3.0680    2.5520    0.4320 c3        1 IXN      0.133100
     23 O3'         3.1500    3.9380    0.6360 oh        1 IXN     -0.573800
     24 N33        -2.6010   -0.3910   -1.9890 na        1 IXN     -0.005400
     25 N34        -2.9170    0.9290   -1.8100 nc        1 IXN     -0.125800
     26 N35        -4.1570    1.0920   -1.9620 nd        1 IXN     -0.347000
     27 C36        -4.7890   -0.1510   -2.2650 cd        1 IXN      0.257600
     28 C37        -3.7750   -1.1190   -2.2810 cc        1 IXN     -0.175600
     29 C38        -6.2320   -0.3180   -2.5150 c3        1 IXN     -0.091700
     30 C39        -7.0690    0.0590   -1.3080 c3        1 IXN     -0.077400
     31 C3S        11.0360   -2.7580    3.6730 ca        1 IXN     -0.171000
     32 C4'         4.3310    1.9990   -0.2630 c3        1 IXN      0.049100
     33 O4'         3.9550    1.5190   -1.5600 os        1 IXN     -0.387600
     34 C40        -8.5410   -0.1590   -1.5860 c3        1 IXN     -0.079400
     35 C41        -9.3850    0.2160   -0.3870 c3        1 IXN     -0.078400
     36 C42       -10.8570   -0.0010   -0.6610 c3        1 IXN     -0.079400
     37 C43       -11.7010    0.3750    0.5380 c3        1 IXN     -0.079400
     38 C44       -13.1740    0.1570    0.2640 c3        1 IXN     -0.079400
     39 C45       -14.0170    0.5330    1.4630 c3        1 IXN     -0.079400
     40 C46       -15.4900    0.3160    1.1890 c3        1 IXN     -0.079400
     41 C4S        10.9810   -1.8720    4.7340 ca        1 IXN     -0.062000
     42 C5'         4.9570    0.8700    0.5600 c3        1 IXN      0.174400
     43 O5'         5.9030    0.1480   -0.1880 os        1 IXN     -0.554500
     44 C5S        10.1260   -0.7630    4.6880 ca        1 IXN     -0.174000
     45 C6S         9.3430   -0.5360    3.5660 ca        1 IXN     -0.065000
     46 NHS         8.2950    0.1570    0.8800 n         1 IXN     -0.695300
     47 C29       -16.3340    0.6910    2.3880 c3        1 IXN     -0.079400
     48 C30       -17.8070    0.4740    2.1150 c3        1 IXN     -0.080400
     49 C31       -18.6510    0.8470    3.3070 c3        1 IXN     -0.092100
     50 HN6        -0.6860   -4.8690   -1.9560 hn        1 IXN      0.453300
     51 HN6A        1.0130   -4.7000   -1.8140 hn        1 IXN      0.453300
     52 H1'         2.2240    1.6880   -2.6380 h2        1 IXN      0.112700
     53 H2'         1.1380    1.5220    0.1120 h1        1 IXN      0.085700
     54 HO2'        0.4090    3.0290   -1.3100 ho        1 IXN      0.441000
     55 HO2S        9.6990   -3.3420    0.8560 ho        1 IXN      0.459000
     56 H3'         2.9500    2.1220    1.4650 h1        1 IXN      0.087700
     57 HO3'        3.0130    4.3800   -0.2150 ho        1 IXN      0.430000
     58 H37        -3.7850   -2.1930   -2.4630 h4        1 IXN      0.210000
     59 H38        -6.5340    0.3190   -3.3920 hc        1 IXN      0.053700
     60 H38A       -6.4280   -1.3890   -2.7930 hc        1 IXN      0.053700
     61 H39        -6.7560   -0.5560   -0.4240 hc        1 IXN      0.051700
     62 H39A       -6.8890    1.1350   -1.0460 hc        1 IXN      0.051700
     63 H3S        11.6920   -3.6410    3.6910 ha        1 IXN      0.162000
     64 H4'         5.0890    2.8090   -0.4620 h1        1 IXN      0.123700
     65 H40        -8.8520    0.4550   -2.4720 hc        1 IXN      0.038700
     66 H40A       -8.7210   -1.2350   -1.8500 hc        1 IXN      0.038700
     67 H41        -9.0730   -0.3970    0.5000 hc        1 IXN      0.041200
     68 H41A       -9.2060    1.2920   -0.1230 hc        1 IXN      0.041200
     69 H42       -11.1690    0.6130   -1.5470 hc        1 IXN      0.039200
     70 H42A      -11.0360   -1.0770   -0.9250 hc        1 IXN      0.039200
     71 H43       -11.3890   -0.2390    1.4240 hc        1 IXN      0.040200
     72 H43A      -11.5220    1.4500    0.8010 hc        1 IXN      0.040200
     73 H44       -13.4860    0.7710   -0.6220 hc        1 IXN      0.039200
     74 H44A      -13.3520   -0.9180    0.0000 hc        1 IXN      0.039200
     75 H45       -13.7050   -0.0800    2.3490 hc        1 IXN      0.039700
     76 H45A      -13.8380    1.6090    1.7270 hc        1 IXN      0.039700
     77 H46       -15.8020    0.9290    0.3030 hc        1 IXN      0.039200
     78 H46A      -15.6690   -0.7600    0.9250 hc        1 IXN      0.039200
     79 H4S        11.6060   -2.0430    5.6250 ha        1 IXN      0.144000
     80 H5'         5.4340    1.3050    1.4800 h1        1 IXN      0.058200
     81 H5'A        4.1820    0.1070    0.8500 h1        1 IXN      0.058200
     82 H5S        10.0750   -0.0750    5.5440 ha        1 IXN      0.144000
     83 H6S         8.6620    0.3290    3.5610 ha        1 IXN      0.131000
     84 HNHS        8.6780    0.8430    1.4980 hn        1 IXN      0.345500
     85 H371      -16.0220    0.0780    3.2740 hc        1 IXN      0.039700
     86 H381      -16.1550    1.7670    2.6520 hc        1 IXN      0.039700
     87 H391      -18.1160    1.0870    1.2280 hc        1 IXN      0.038200
     88 H401      -17.9830   -0.6020    1.8500 hc        1 IXN      0.038200
     89 H411      -19.7320    0.6800    3.0840 hc        1 IXN      0.032367
     90 H421      -18.3740    0.2290    4.1950 hc        1 IXN      0.032367
     91 H431      -18.5070    1.9220    3.5710 hc        1 IXN      0.032367
     92 H8          4.2420   -1.0450   -1.4200 h5        1 IXN      0.111800
@<TRIPOS>BOND
     1    1   14 2   
     2    1   19 2   
     3    1   43 1   
     4    1   46 1   
     5    2    3 ar  
     6    2    7 ar  
     7    3    4 ar  
     8    3   24 1   
     9    4    5 ar  
    10    5    6 ar  
    11    5   11 1   
    12    6    7 ar  
    13    6    9 1   
    14    7    8 1   
    15    8   50 1   
    16    8   51 1   
    17    9   10 2   
    18   10   11 1   
    19   10   92 1   
    20   11   13 1   
    21   12   18 2   
    22   13   16 1   
    23   13   33 1   
    24   13   52 1   
    25   15   18 1   
    26   15   20 ar  
    27   15   45 ar  
    28   16   17 1   
    29   16   22 1   
    30   16   53 1   
    31   17   54 1   
    32   18   46 1   
    33   20   21 1   
    34   20   31 ar  
    35   21   55 1   
    36   22   23 1   
    37   22   32 1   
    38   22   56 1   
    39   23   57 1   
    40   24   25 1   
    41   24   28 1   
    42   25   26 2   
    43   26   27 1   
    44   27   28 2   
    45   27   29 1   
    46   28   58 1   
    47   29   30 1   
    48   29   59 1   
    49   29   60 1   
    50   30   34 1   
    51   30   61 1   
    52   30   62 1   
    53   31   41 ar  
    54   31   63 1   
    55   32   33 1   
    56   32   42 1   
    57   32   64 1   
    58   34   35 1   
    59   34   65 1   
    60   34   66 1   
    61   35   36 1   
    62   35   67 1   
    63   35   68 1   
    64   36   37 1   
    65   36   69 1   
    66   36   70 1   
    67   37   38 1   
    68   37   71 1   
    69   37   72 1   
    70   38   39 1   
    71   38   73 1   
    72   38   74 1   
    73   39   40 1   
    74   39   75 1   
    75   39   76 1   
    76   40   47 1   
    77   40   77 1   
    78   40   78 1   
    79   41   44 ar  
    80   41   79 1   
    81   42   43 1   
    82   42   80 1   
    83   42   81 1   
    84   44   45 ar  
    85   44   82 1   
    86   45   83 1   
    87   46   84 1   
    88   47   48 1   
    89   47   85 1   
    90   47   86 1   
    91   48   49 1   
    92   48   87 1   
    93   48   88 1   
    94   49   89 1   
    95   49   90 1   
    96   49   91 1   
@<TRIPOS>SUBSTRUCTURE
     1 IXN         1 TEMP              0 ****  ****    0 ROOT
