@<TRIPOS>MOLECULE
IXN
   92    81     1     0     0
SMALL
bcc


@<TRIPOS>ATOM
      1 S           0.8650   -8.6390    3.9640 ss        1 IXN      2.823000
      2 N1         -1.2430   -2.6960   -4.4620 n1        1 IXN     -0.296000
      3 C2         -1.1620   -2.0090   -3.2830 c1        1 IXN      0.222000
      4 N3         -0.9240   -2.6780   -2.1150 n1        1 IXN     -0.177000
      5 C4         -0.7670   -4.0360   -2.1240 c1        1 IXN     -0.078500
      6 C5         -0.8480   -4.7160   -3.2870 c1        1 IXN     -0.078500
      7 C6         -1.0900   -4.0330   -4.4740 c1        1 IXN      0.262000
      8 N6         -1.3650   -4.7130   -5.6860 n3        1 IXN     -0.352000
      9 N7         -0.6570   -6.0400   -3.0160 n1        1 IXN     -0.149500
     10 C8         -0.4590   -6.1690   -1.6810 c1        1 IXN     -0.053000
     11 N9         -0.5260   -4.9360   -1.1260 n1        1 IXN     -0.149500
     12 O9         -0.1490  -10.4160    6.0960 o         1 IXN     -0.297000
     13 C1'        -0.2240   -4.6210    0.0860 c2        1 IXN      0.113000
     14 O1P        -0.6320   -8.4390    3.9600 o         1 IXN     -0.937500
     15 C1S         1.8930  -10.6410    7.2740 c1        1 IXN     -0.167000
     16 C2'        -1.3710   -5.0040    1.0400 c3        1 IXN      0.016000
     17 O2'        -1.6570   -3.8960    1.9650 oh        1 IXN     -0.292000
     18 C21         0.9750   -9.9890    6.2600 c2        1 IXN      0.403000
     19 O2P         0.9960   -9.8900    3.1330 o         1 IXN     -0.937500
     20 C2S         1.4050  -11.7210    7.9940 c1        1 IXN      0.134000
     21 O2S         0.1020  -12.2000    7.7490 oh        1 IXN     -0.236000
     22 C3'        -0.9220   -6.0560    1.7090 c3        1 IXN     -0.026000
     23 O3'        -1.4360   -6.0430    3.0540 oh        1 IXN     -0.326000
     24 N33        -1.3890   -0.6630   -3.3480 n2        1 IXN     -0.111500
     25 N34        -2.3240    0.0240   -2.6390 n2        1 IXN      0.060000
     26 N35        -2.1920    1.3480   -2.9390 n2        1 IXN     -0.111500
     27 C36        -1.1920    1.4750   -3.8170 c1        1 IXN     -0.127000
     28 C37        -0.6890    0.2180   -4.0730 c1        1 IXN     -0.127000
     29 C38        -0.6530    2.7970   -4.3860 c2        1 IXN     -0.076000
     30 C39        -1.3020    3.9740   -3.6480 c3        1 IXN     -0.157000
     31 C3S         2.2270  -12.3810    8.8960 c1        1 IXN     -0.217000
     32 C4'         0.6940   -5.9240    1.7290 c3        1 IXN     -0.053000
     33 O4'         1.0350   -5.4480    0.5730 os        1 IXN     -0.255000
     34 C40        -0.5620    5.2830   -4.0120 c3        1 IXN     -0.158000
     35 C41        -1.0890    6.4350   -3.1320 c3        1 IXN     -0.158000
     36 C42        -0.3290    7.7390   -3.4760 c3        1 IXN     -0.157000
     37 C43        -0.7510    8.8540   -2.4960 c3        1 IXN     -0.158000
     38 C44         0.0580   10.1330   -2.7920 c3        1 IXN     -0.157000
     39 C45        -0.4160   11.2690   -1.8610 c3        1 IXN     -0.158000
     40 C46         0.4240   12.5280   -2.1180 c3        1 IXN     -0.158000
     41 C4S         3.5370  -11.9610    9.0780 c1        1 IXN     -0.113500
     42 C5'         1.3220   -7.2770    1.9380 c3        1 IXN      0.015000
     43 O5'         1.5770   -7.4710    3.3160 o         1 IXN     -0.720000
     44 C5S         4.0250  -10.8820    8.3580 c1        1 IXN     -0.113500
     45 C6S         3.2030  -10.2210    7.4560 c1        1 IXN     -0.063000
     46 NHS         1.4320   -8.8770    5.4960 n2        1 IXN     -0.876000
     47 C29        -0.0530   13.6580   -1.1970 c3        1 IXN     -0.158000
     48 C30         0.6660   14.9530   -1.5650 c3        1 IXN     -0.159000
     49 C31         0.0810   16.1020   -0.7640 c3        1 IXN     -0.210000
     50 HN6        -1.5100   -4.2360   -6.4560 hn        1 IXN      0.244500
     51 HN6A       -1.3860   -5.6250   -5.7040 hn        1 IXN      0.244500
     52 H8         -0.2690   -7.0010   -1.2080 DU        1 IXN      0.207000
     53 H1'        -0.0420   -3.6650    0.1490 h4        1 IXN      0.181000
     54 H2'        -2.1740   -5.2410    0.5310 h1        1 IXN      0.139000
     55 HO2'       -2.5310   -3.7280    1.9660 ho        1 IXN      0.229000
     56 HO2S        0.1330  -13.0740    7.5840 ho        1 IXN      0.232000
     57 H3'        -1.1870   -6.8810    1.2560 h1        1 IXN      0.097000
     58 HO3'       -2.1790   -6.5310    3.0930 ho        1 IXN      0.250000
     59 H37         0.0500    0.0070   -4.6790 DU        1 IXN      0.207000
     60 H38         0.3150    2.8320   -4.2660 ha        1 IXN      0.092000
     61 H38A       -0.8660    2.8520   -5.3430 ha        1 IXN      0.092000
     62 H39        -2.2410    4.0460   -3.9120 hc        1 IXN      0.091500
     63 H39A       -1.2450    3.8250   -2.6840 hc        1 IXN      0.091500
     64 H3S         1.8840  -13.1410    9.4030 ha        1 IXN      0.146000
     65 H4'         0.9710   -5.3110    2.4380 h1        1 IXN      0.145000
     66 H40        -0.7190    5.4960   -4.9570 hc        1 IXN      0.077500
     67 H40A        0.3960    5.1690   -3.8590 hc        1 IXN      0.077500
     68 H41        -2.0470    6.5620   -3.3000 hc        1 IXN      0.081000
     69 H41A       -0.9500    6.2160   -2.1930 hc        1 IXN      0.081000
     70 H42        -0.5440    8.0120   -4.3930 hc        1 IXN      0.078000
     71 H42A        0.6360    7.5850   -3.3990 hc        1 IXN      0.078000
     72 H43        -0.5790    8.5640   -1.5790 hc        1 IXN      0.079500
     73 H43A       -1.7020    9.0390   -2.6050 hc        1 IXN      0.079500
     74 H44        -0.0780   10.3960   -3.7230 hc        1 IXN      0.078500
     75 H44A        1.0060    9.9600   -2.6380 hc        1 IXN      0.078500
     76 H45        -0.3100   10.9920   -0.9270 hc        1 IXN      0.079000
     77 H45A       -1.3590   11.4640   -2.0380 hc        1 IXN      0.079000
     78 H46         0.3210   12.8030   -3.0520 hc        1 IXN      0.078500
     79 H46A        1.3680   12.3340   -1.9370 hc        1 IXN      0.078500
     80 H4S         4.1130  -12.4240    9.7110 ha        1 IXN      0.145500
     81 H5'         0.7120   -7.9740    1.6170 h1        1 IXN      0.113500
     82 H5'A        2.1620   -7.3270    1.4410 h1        1 IXN      0.113500
     83 H5S         4.9450  -10.5860    8.4860 ha        1 IXN      0.145500
     84 H6S         3.5490   -9.4570    6.9470 ha        1 IXN      0.146000
     85 HNHS        2.0480   -8.3000    5.8510 hn        1 IXN      0.271000
     86 H371       -1.0140   13.7790   -1.3020 hc        1 IXN      0.079000
     87 H381        0.1470   13.4270   -0.2660 hc        1 IXN      0.079000
     88 H391        1.6170   14.8660   -1.3630 hc        1 IXN      0.077500
     89 H401        0.5500   15.1290   -2.5190 hc        1 IXN      0.077500
     90 H411        0.6600   16.8850   -0.8460 hc        1 IXN      0.071667
     91 H421        0.0160   15.8430    0.1780 hc        1 IXN      0.071667
     92 H431       -0.8110   16.3180   -1.1050 hc        1 IXN      0.071667
@<TRIPOS>BOND
     1    1   14 1   
     2    1   19 1   
     3    2    7 1   
     4    3    4 1   
     5    5    6 1   
     6    7    8 1   
     7    8   50 1   
     8    8   51 1   
     9    9   10 1   
    10   10   11 1   
    11   12   18 1   
    12   13   16 1   
    13   13   33 1   
    14   13   53 1   
    15   15   18 1   
    16   15   45 1   
    17   16   17 1   
    18   16   22 1   
    19   16   54 1   
    20   17   55 1   
    21   18   46 1   
    22   20   21 1   
    23   20   31 1   
    24   21   56 1   
    25   22   23 1   
    26   22   32 1   
    27   22   57 1   
    28   23   58 1   
    29   24   25 1   
    30   24   28 1   
    31   25   26 1   
    32   26   27 1   
    33   27   28 1   
    34   29   30 1   
    35   29   60 1   
    36   29   61 1   
    37   30   34 1   
    38   30   62 1   
    39   30   63 1   
    40   31   64 1   
    41   32   33 1   
    42   32   42 1   
    43   32   65 1   
    44   34   35 1   
    45   34   66 1   
    46   34   67 1   
    47   35   36 1   
    48   35   68 1   
    49   35   69 1   
    50   36   37 1   
    51   36   70 1   
    52   36   71 1   
    53   37   38 1   
    54   37   72 1   
    55   37   73 1   
    56   38   39 1   
    57   38   74 1   
    58   38   75 1   
    59   39   40 1   
    60   39   76 1   
    61   39   77 1   
    62   40   47 1   
    63   40   78 1   
    64   40   79 1   
    65   41   44 1   
    66   41   80 1   
    67   42   43 1   
    68   42   81 1   
    69   42   82 1   
    70   44   83 1   
    71   45   84 1   
    72   46   85 1   
    73   47   48 1   
    74   47   86 1   
    75   47   87 1   
    76   48   49 1   
    77   48   88 1   
    78   48   89 1   
    79   49   90 1   
    80   49   91 1   
    81   49   92 1   
@<TRIPOS>SUBSTRUCTURE
     1 IXN         1 TEMP              0 ****  ****    0 ROOT
