@<TRIPOS>MOLECULE
IXN
   93    97     1     0     0
SMALL
bcc


@<TRIPOS>ATOM
      1 S          -1.5260   -1.2670   -1.5680 s6        1 IXN      1.634400
      2 N1         -6.9670    2.5820   -7.7500 nb        1 IXN     -0.817000
      3 C2         -6.2630    3.5530   -7.0610 ca        1 IXN      0.840500
      4 N3         -5.4380    3.3840   -5.9650 nb        1 IXN     -0.748000
      5 C4         -5.3590    2.0870   -5.5690 ca        1 IXN      0.479800
      6 C5         -6.0490    0.9700   -6.1890 ca        1 IXN     -0.249200
      7 C6         -6.8720    1.2800   -7.3260 ca        1 IXN      0.803200
      8 N6         -7.5480    0.2910   -7.9780 nv        1 IXN     -0.942500
      9 N7         -5.7530   -0.2190   -5.5070 nc        1 IXN     -0.504100
     10 C8         -4.9240    0.1370   -4.5180 cd        1 IXN      0.383700
     11 N9         -4.6330    1.5280   -4.5010 na        1 IXN     -0.316000
     12 O9         -0.5770   -1.8500   -5.0020 o         1 IXN     -0.420100
     13 C1'        -3.7780    2.2930   -3.6320 c3        1 IXN      0.246800
     14 O1P        -1.0440   -0.4340   -0.5980 o         1 IXN     -0.565800
     15 C1S         1.3190   -1.5380   -3.5460 ca        1 IXN     -0.248600
     16 C2'        -4.5450    3.2260   -2.6360 c3        1 IXN      0.088100
     17 O2'        -3.8170    4.4280   -2.5220 oh        1 IXN     -0.597800
     18 C21        -0.0570   -1.3610   -4.0060 c         1 IXN      0.596700
     19 O2P        -1.3270   -2.6100   -1.6790 o         1 IXN     -0.565800
     20 C2S         2.1000   -0.5320   -2.9390 ca        1 IXN      0.181100
     21 O2S         1.5060    0.6840   -2.7040 oh        1 IXN     -0.546100
     22 C3'        -4.4760    2.4930   -1.2760 c3        1 IXN      0.142100
     23 O3'        -4.1950    3.3180   -0.1820 oh        1 IXN     -0.565800
     24 N33        -6.4180    4.8860   -7.5490 na        1 IXN     -0.021400
     25 N34        -5.8660    6.0080   -6.9760 nc        1 IXN     -0.124800
     26 N35        -6.1900    7.0230   -7.6420 nd        1 IXN     -0.333000
     27 C36        -7.0130    6.6550   -8.7540 cd        1 IXN      0.277600
     28 C37        -7.1630    5.2660   -8.6940 cc        1 IXN     -0.173600
     29 C38        -7.5540    7.6070   -9.7400 c3        1 IXN     -0.098700
     30 C39        -8.4920    8.6160   -9.1060 c3        1 IXN     -0.077400
     31 C3S         3.4380   -0.7770   -2.5960 ca        1 IXN     -0.207000
     32 C4'        -3.3810    1.4170   -1.4630 c3        1 IXN      0.038100
     33 O4'        -2.9590    1.4170   -2.8340 os        1 IXN     -0.484600
     34 C40        -9.0620    9.5500  -10.1530 c3        1 IXN     -0.080400
     35 C41        -9.9990   10.5620   -9.5290 c3        1 IXN     -0.078400
     36 C42       -10.5720   11.4960  -10.5740 c3        1 IXN     -0.079400
     37 C43       -11.5100   12.5070   -9.9510 c3        1 IXN     -0.078400
     38 C44       -12.0830   13.4410  -10.9950 c3        1 IXN     -0.079400
     39 C45       -13.0210   14.4520  -10.3720 c3        1 IXN     -0.078400
     40 C46       -13.5960   15.3850  -11.4170 c3        1 IXN     -0.079400
     41 C4S         3.9990   -2.0230   -2.8560 ca        1 IXN     -0.016000
     42 C5'        -3.8770    0.0230   -1.0890 c3        1 IXN      0.172400
     43 O5'        -3.1210   -0.9930   -1.7420 os        1 IXN     -0.563500
     44 C5S         3.2370   -3.0280   -3.4620 ca        1 IXN     -0.155000
     45 C6S         1.9160   -2.7880   -3.8130 ca        1 IXN     -0.015000
     46 NHS        -0.9800   -0.5280   -3.1570 ny        1 IXN     -0.640700
     47 C29       -14.5340   16.3960  -10.7940 c3        1 IXN     -0.079400
     48 C30       -15.1100   17.3300  -11.8380 c3        1 IXN     -0.080400
     49 C31       -16.0440   18.3390  -11.2220 c3        1 IXN     -0.093100
     50 HN6        -7.4790   -0.6390   -7.6450 hn        1 IXN      0.460800
     51 HN6A       -8.1290    0.4940   -8.7550 hn        1 IXN      0.460800
     52 H1'        -3.0530    2.8960   -4.2600 h2        1 IXN      0.123700
     53 H2'        -5.6050    3.4090   -2.9500 h1        1 IXN      0.105700
     54 HO2'       -4.2250    5.0770   -3.1140 ho        1 IXN      0.453000
     55 HO2S        2.1700    1.3010   -2.3520 ho        1 IXN      0.472000
     56 H3'        -5.4700    2.0200   -1.0360 h1        1 IXN      0.101700
     57 HO3'       -3.5610    4.0000   -0.4520 ho        1 IXN      0.440000
     58 H37        -7.6990    4.5540   -9.3220 h4        1 IXN      0.214000
     59 H38        -8.0990    7.0310  -10.5360 hc        1 IXN      0.059700
     60 H38A       -6.7040    8.1500  -10.2380 hc        1 IXN      0.059700
     61 H39        -9.3280    8.0800   -8.5850 hc        1 IXN      0.051200
     62 H39A       -7.9410    9.2100   -8.3300 hc        1 IXN      0.051200
     63 H3S         4.0390    0.0200   -2.1290 ha        1 IXN      0.166000
     64 H4'        -2.4640    1.6830   -0.8610 h1        1 IXN      0.106700
     65 H40        -8.2250   10.0860  -10.6750 hc        1 IXN      0.040700
     66 H40A       -9.6120    8.9570  -10.9300 hc        1 IXN      0.040700
     67 H41        -9.4490   11.1570   -8.7530 hc        1 IXN      0.041200
     68 H41A      -10.8350   10.0270   -9.0050 hc        1 IXN      0.041200
     69 H42       -11.1210   10.9010  -11.3500 hc        1 IXN      0.040200
     70 H42A       -9.7360   12.0310  -11.0980 hc        1 IXN      0.040200
     71 H43       -10.9600   13.1030   -9.1750 hc        1 IXN      0.040200
     72 H43A      -12.3450   11.9730   -9.4260 hc        1 IXN      0.040200
     73 H44       -12.6330   12.8450  -11.7710 hc        1 IXN      0.040200
     74 H44A      -11.2480   13.9760  -11.5200 hc        1 IXN      0.040200
     75 H45       -12.4710   15.0480   -9.5970 hc        1 IXN      0.039700
     76 H45A      -13.8560   13.9170   -9.8460 hc        1 IXN      0.039700
     77 H46       -12.7610   15.9200  -11.9430 hc        1 IXN      0.039700
     78 H46A      -14.1460   14.7890  -12.1920 hc        1 IXN      0.039700
     79 H4S         5.0510   -2.2170   -2.5850 ha        1 IXN      0.169000
     80 H5'        -4.9240   -0.1720   -1.4600 h1        1 IXN      0.103200
     81 H5'A       -3.8180   -0.1260    0.0220 h1        1 IXN      0.103200
     82 H5S         3.6890   -4.0120   -3.6690 ha        1 IXN      0.173000
     83 H6S         1.3180   -3.5730   -4.3080 ha        1 IXN      0.173000
     84 HNHS       -1.8160   -0.3080   -3.7230 hn        1 IXN      0.491800
     85 H371      -13.9830   16.9930  -10.0200 hc        1 IXN      0.039700
     86 H381      -15.3680   15.8620  -10.2670 hc        1 IXN      0.039700
     87 H391      -14.2740   17.8620  -12.3640 hc        1 IXN      0.038700
     88 H401      -15.6590   16.7310  -12.6120 hc        1 IXN      0.038700
     89 H411      -15.5080   18.9620  -10.4650 hc        1 IXN      0.033033
     90 H421      -16.8970   17.8280  -10.7130 hc        1 IXN      0.033033
     91 H431      -16.4570   19.0160  -12.0080 hc        1 IXN      0.033033
     92 HHS2       -0.5230    0.3770   -2.9790 hn        1 IXN      0.491800
     93 H8         -4.4930   -0.5370   -3.7680 h5        1 IXN      0.070800
@<TRIPOS>BOND
     1    1   14 2   
     2    1   19 2   
     3    1   43 1   
     4    1   46 1   
     5    2    3 ar  
     6    2    7 ar  
     7    3    4 ar  
     8    3   24 1   
     9    4    5 ar  
    10    5    6 ar  
    11    5   11 1   
    12    6    7 ar  
    13    6    9 1   
    14    7    8 1   
    15    8   50 1   
    16    8   51 1   
    17    9   10 2   
    18   10   11 1   
    19   10   93 1   
    20   11   13 1   
    21   12   18 2   
    22   13   16 1   
    23   13   33 1   
    24   13   52 1   
    25   15   18 1   
    26   15   20 ar  
    27   15   45 ar  
    28   16   17 1   
    29   16   22 1   
    30   16   53 1   
    31   17   54 1   
    32   18   46 1   
    33   20   21 1   
    34   20   31 ar  
    35   21   55 1   
    36   22   23 1   
    37   22   32 1   
    38   22   56 1   
    39   23   57 1   
    40   24   25 1   
    41   24   28 1   
    42   25   26 2   
    43   26   27 1   
    44   27   28 2   
    45   27   29 1   
    46   28   58 1   
    47   29   30 1   
    48   29   59 1   
    49   29   60 1   
    50   30   34 1   
    51   30   61 1   
    52   30   62 1   
    53   31   41 ar  
    54   31   63 1   
    55   32   33 1   
    56   32   42 1   
    57   32   64 1   
    58   34   35 1   
    59   34   65 1   
    60   34   66 1   
    61   35   36 1   
    62   35   67 1   
    63   35   68 1   
    64   36   37 1   
    65   36   69 1   
    66   36   70 1   
    67   37   38 1   
    68   37   71 1   
    69   37   72 1   
    70   38   39 1   
    71   38   73 1   
    72   38   74 1   
    73   39   40 1   
    74   39   75 1   
    75   39   76 1   
    76   40   47 1   
    77   40   77 1   
    78   40   78 1   
    79   41   44 ar  
    80   41   79 1   
    81   42   43 1   
    82   42   80 1   
    83   42   81 1   
    84   44   45 ar  
    85   44   82 1   
    86   45   83 1   
    87   46   84 1   
    88   46   92 1   
    89   47   48 1   
    90   47   85 1   
    91   47   86 1   
    92   48   49 1   
    93   48   87 1   
    94   48   88 1   
    95   49   89 1   
    96   49   90 1   
    97   49   91 1   
@<TRIPOS>SUBSTRUCTURE
     1 IXN         1 TEMP              0 ****  ****    0 ROOT
