@<TRIPOS>MOLECULE
IXN
   94    98     1     0     0
SMALL
bcc


@<TRIPOS>ATOM
      1 S          -2.1470    0.8590   -1.6270 s6        1 IXN      1.666400
      2 N1         -4.3500    4.3400  -10.7550 nb        1 IXN     -0.725000
      3 C2         -4.1670    4.9510   -9.5140 ca        1 IXN      0.838500
      4 N3         -3.4450    4.4280   -8.4460 nb        1 IXN     -0.660000
      5 C4         -2.9030    3.2180   -8.6830 ca        1 IXN      0.485800
      6 C5         -3.0390    2.4740   -9.9520 ca        1 IXN     -0.165200
      7 C6         -3.7850    3.1280  -10.9420 ca        1 IXN      0.573200
      8 N6         -3.9520    2.4620  -12.2500 n4        1 IXN     -0.820300
      9 N7         -2.3560    1.2520   -9.8700 nc        1 IXN     -0.568100
     10 C8         -1.8220    1.2350   -8.6380 cd        1 IXN      0.521700
     11 N9         -2.1280    2.3810   -7.8620 na        1 IXN     -0.281000
     12 O9         -1.7630   -1.9530   -2.1150 o         1 IXN     -0.505100
     13 C1'        -1.5550    2.7790   -6.5930 c3        1 IXN      0.222800
     14 O1P        -1.8560    1.9450   -0.8570 o         1 IXN     -0.565300
     15 C1S        -1.6090   -3.0250    0.0340 ca        1 IXN     -0.241600
     16 C2'        -2.6070    3.2700   -5.5230 c3        1 IXN      0.103100
     17 O2'        -2.1780    4.5080   -5.0130 oh        1 IXN     -0.592800
     18 C21        -1.7310   -1.9030   -0.8830 c         1 IXN      0.614700
     19 O2P        -3.3020    0.4630   -2.2300 o         1 IXN     -0.565300
     20 C2S        -1.4800   -2.9350    1.4390 ca        1 IXN      0.191100
     21 O2S        -1.4730   -1.6870    2.0120 oh        1 IXN     -0.552100
     22 C3'        -2.4680    2.2260   -4.4020 c3        1 IXN      0.095100
     23 O3'        -2.5870    2.6750   -3.0710 oh        1 IXN     -0.666800
     24 N33        -4.7730    6.2110   -9.3340 na        1 IXN     -0.042400
     25 N34        -4.7650    6.9260   -8.1430 nc        1 IXN     -0.106800
     26 N35        -5.3730    8.0030   -8.3040 nd        1 IXN     -0.297000
     27 C36        -5.8620    8.1250   -9.6550 cd        1 IXN      0.331600
     28 C37        -5.4750    6.9650  -10.3220 cc        1 IXN     -0.190600
     29 C38        -6.6110    9.2930  -10.1550 c3        1 IXN     -0.112700
     30 C39        -7.9210    9.4930   -9.4170 c3        1 IXN     -0.077400
     31 C3S        -1.3610   -4.0930    2.2240 ca        1 IXN     -0.211000
     32 C4'        -1.0420    1.6750   -4.6190 c3        1 IXN      0.054100
     33 O4'        -0.8550    1.6370   -6.0380 os        1 IXN     -0.398600
     34 C40        -8.6800   10.6720   -9.9910 c3        1 IXN     -0.081400
     35 C41        -9.9900   10.8820   -9.2630 c3        1 IXN     -0.078400
     36 C42       -10.7510   12.0580   -9.8350 c3        1 IXN     -0.079400
     37 C43       -12.0630   12.2680   -9.1090 c3        1 IXN     -0.078400
     38 C44       -12.8240   13.4450   -9.6810 c3        1 IXN     -0.079400
     39 C45       -14.1350   13.6550   -8.9550 c3        1 IXN     -0.078400
     40 C46       -14.8970   14.8320   -9.5280 c3        1 IXN     -0.079400
     41 C4S        -1.3720   -5.3440    1.6180 ca        1 IXN     -0.003000
     42 C5'        -0.8650    0.3080   -3.9690 c3        1 IXN      0.204400
     43 O5'        -0.8430    0.5360   -2.5630 os        1 IXN     -0.558500
     44 C5S        -1.5000   -5.4530    0.2270 ca        1 IXN     -0.158000
     45 C6S        -1.6150   -4.3140   -0.5520 ca        1 IXN     -0.016000
     46 NHS        -1.8390   -0.5150   -0.3440 n4        1 IXN     -0.611700
     47 C29       -16.2080   15.0430   -8.8020 c3        1 IXN     -0.079400
     48 C30       -16.9710   16.2200   -9.3730 c3        1 IXN     -0.080400
     49 C31       -18.2770   16.4330   -8.6540 c3        1 IXN     -0.093100
     50 HN6        -4.6630    2.9340  -12.8260 hn        1 IXN      0.484133
     51 HN6A       -3.0480    2.4770  -12.7410 hn        1 IXN      0.484133
     52 H1'        -0.7840    3.5900   -6.7740 h2        1 IXN      0.120700
     53 H2'        -3.6520    3.3150   -5.9210 h1        1 IXN      0.101700
     54 HO2'       -2.6420    5.2100   -5.4940 ho        1 IXN      0.458000
     55 HO2S       -1.3570   -1.7780    2.9740 ho        1 IXN      0.474000
     56 H3'        -3.2570    1.4270   -4.5120 h1        1 IXN      0.122700
     57 HO3'       -2.2700    3.5910   -2.9930 ho        1 IXN      0.490000
     58 H37        -5.6200    6.6210  -11.3440 h4        1 IXN      0.213000
     59 H38        -5.9740   10.2150  -10.0420 hc        1 IXN      0.072700
     60 H38A       -6.8090    9.1510  -11.2520 hc        1 IXN      0.072700
     61 H39        -7.7200    9.6700   -8.3270 hc        1 IXN      0.052200
     62 H39A       -8.5480    8.5670   -9.4970 hc        1 IXN      0.052200
     63 H3S        -1.2590   -4.0050    3.3180 ha        1 IXN      0.170000
     64 H4'        -0.2800    2.3910   -4.1900 h1        1 IXN      0.101700
     65 H40        -8.8790   10.4990  -11.0820 hc        1 IXN      0.045200
     66 H40A       -8.0530   11.5990   -9.9110 hc        1 IXN      0.045200
     67 H41       -10.6170    9.9540   -9.3410 hc        1 IXN      0.041200
     68 H41A       -9.7910   11.0570   -8.1730 hc        1 IXN      0.041200
     69 H42       -10.9500   11.8840  -10.9260 hc        1 IXN      0.042200
     70 H42A      -10.1250   12.9860   -9.7570 hc        1 IXN      0.042200
     71 H43       -12.6890   11.3410   -9.1870 hc        1 IXN      0.039700
     72 H43A      -11.8650   12.4430   -8.0180 hc        1 IXN      0.039700
     73 H44       -13.0220   13.2710  -10.7720 hc        1 IXN      0.041200
     74 H44A      -12.1980   14.3730   -9.6030 hc        1 IXN      0.041200
     75 H45       -13.9380   13.8300   -7.8650 hc        1 IXN      0.039200
     76 H45A      -14.7620   12.7280   -9.0340 hc        1 IXN      0.039200
     77 H46       -15.0940   14.6580  -10.6180 hc        1 IXN      0.040200
     78 H46A      -14.2700   15.7590   -9.4490 hc        1 IXN      0.040200
     79 H4S        -1.2790   -6.2550    2.2360 ha        1 IXN      0.175000
     80 H5'         0.1420   -0.1360   -4.1980 h1        1 IXN      0.105200
     81 H5'A       -1.6860   -0.4120   -4.2250 h1        1 IXN      0.105200
     82 H5S        -1.5070   -6.4490   -0.2470 ha        1 IXN      0.175000
     83 H6S        -1.7140   -4.3960   -1.6490 ha        1 IXN      0.170000
     84 HNHS       -2.5810   -0.5170    0.3610 hn        1 IXN      0.475300
     85 H371      -16.8350   14.1160   -8.8800 hc        1 IXN      0.039200
     86 H381      -16.0110   15.2170   -7.7110 hc        1 IXN      0.039200
     87 H391      -17.1650   16.0440  -10.4650 hc        1 IXN      0.039200
     88 H401      -16.3410   17.1450   -9.2960 hc        1 IXN      0.039200
     89 H411      -18.8220   17.3050   -9.0910 hc        1 IXN      0.034367
     90 H421      -18.9280   15.5300   -8.7420 hc        1 IXN      0.034367
     91 H431      -18.1020   16.6350   -7.5690 hc        1 IXN      0.034367
     92 H63        -4.2310    1.4850  -12.0850 hn        1 IXN      0.484133
     93 HHS2       -0.9760   -0.3200    0.1740 hn        1 IXN      0.475300
     94 H8         -1.1970    0.4250   -8.2190 h5        1 IXN      0.119800
@<TRIPOS>BOND
     1    1   14 2   
     2    1   19 2   
     3    1   43 1   
     4    1   46 1   
     5    2    3 ar  
     6    2    7 ar  
     7    3    4 ar  
     8    3   24 1   
     9    4    5 ar  
    10    5    6 ar  
    11    5   11 1   
    12    6    7 ar  
    13    6    9 1   
    14    7    8 1   
    15    8   50 1   
    16    8   51 1   
    17    8   92 1   
    18    9   10 2   
    19   10   11 1   
    20   10   94 1   
    21   11   13 1   
    22   12   18 2   
    23   13   16 1   
    24   13   33 1   
    25   13   52 1   
    26   15   18 1   
    27   15   20 ar  
    28   15   45 ar  
    29   16   17 1   
    30   16   22 1   
    31   16   53 1   
    32   17   54 1   
    33   18   46 1   
    34   20   21 1   
    35   20   31 ar  
    36   21   55 1   
    37   22   23 1   
    38   22   32 1   
    39   22   56 1   
    40   23   57 1   
    41   24   25 1   
    42   24   28 1   
    43   25   26 2   
    44   26   27 1   
    45   27   28 2   
    46   27   29 1   
    47   28   58 1   
    48   29   30 1   
    49   29   59 1   
    50   29   60 1   
    51   30   34 1   
    52   30   61 1   
    53   30   62 1   
    54   31   41 ar  
    55   31   63 1   
    56   32   33 1   
    57   32   42 1   
    58   32   64 1   
    59   34   35 1   
    60   34   65 1   
    61   34   66 1   
    62   35   36 1   
    63   35   67 1   
    64   35   68 1   
    65   36   37 1   
    66   36   69 1   
    67   36   70 1   
    68   37   38 1   
    69   37   71 1   
    70   37   72 1   
    71   38   39 1   
    72   38   73 1   
    73   38   74 1   
    74   39   40 1   
    75   39   75 1   
    76   39   76 1   
    77   40   47 1   
    78   40   77 1   
    79   40   78 1   
    80   41   44 ar  
    81   41   79 1   
    82   42   43 1   
    83   42   80 1   
    84   42   81 1   
    85   44   45 ar  
    86   44   82 1   
    87   45   83 1   
    88   46   84 1   
    89   46   93 1   
    90   47   48 1   
    91   47   85 1   
    92   47   86 1   
    93   48   49 1   
    94   48   87 1   
    95   48   88 1   
    96   49   89 1   
    97   49   90 1   
    98   49   91 1   
@<TRIPOS>SUBSTRUCTURE
     1 IXN         1 TEMP              0 ****  ****    0 ROOT
