@<TRIPOS>MOLECULE
IXO
   31    31     1     0     0
SMALL
bcc


@<TRIPOS>ATOM
      1 C01        -0.0600    0.0250    0.5200 c3        1 IXO      0.089433
      2 N02         1.3500    0.0050    0.0340 n4        1 IXO     -0.608800
      3 C03         2.2770    0.2620    1.1740 c3        1 IXO      0.089433
      4 C04         1.6520   -1.3290   -0.5640 c3        1 IXO      0.089433
      5 C05         1.5430    1.0670   -1.0350 c3        1 IXO      0.234900
      6 C06         1.2840    2.3960   -0.5710 c1        1 IXO     -0.251100
      7 C07         1.0900    3.5390   -0.2680 c1        1 IXO      0.030900
      8 C08         0.8390    4.9120    0.0830 c3        1 IXO      0.181500
      9 O09         1.7590    5.2550    1.1430 os        1 IXO     -0.391400
     10 C10         1.6760    6.5590    1.5660 c2        1 IXO      0.449600
     11 N11         0.8240    7.5030    1.1890 n2        1 IXO     -0.414200
     12 O12         1.0680    8.6200    1.8380 os        1 IXO     -0.132300
     13 C13         2.2070    8.4750    2.7820 c3        1 IXO      0.079400
     14 C14         2.6700    7.0210    2.6190 c3        1 IXO     -0.148700
     15 H101       -0.1920   -0.7560    1.3140 hx        1 IXO      0.103256
     16 H201       -0.7530   -0.1880   -0.3380 hx        1 IXO      0.103256
     17 H301       -0.2900    1.0400    0.9440 hx        1 IXO      0.103256
     18 H103        2.1180   -0.5160    1.9660 hx        1 IXO      0.103256
     19 H203        2.0690    1.2820    1.5970 hx        1 IXO      0.103256
     20 H303        3.3370    0.2190    0.8080 hx        1 IXO      0.103256
     21 H104        1.5140   -2.1230    0.2180 hx        1 IXO      0.103256
     22 H204        2.7130   -1.3440   -0.9300 hx        1 IXO      0.103256
     23 H304        0.9540   -1.5230   -1.4210 hx        1 IXO      0.103256
     24 H105        2.6140    0.9850   -1.3950 hx        1 IXO      0.114200
     25 H205        0.8470    0.8120   -1.8910 hx        1 IXO      0.114200
     26 H108       -0.2190    5.0420    0.4500 h1        1 IXO      0.102200
     27 H208        1.0190    5.5810   -0.8070 h1        1 IXO      0.102200
     28 H113        1.8000    8.7050    3.7940 h1        1 IXO      0.083700
     29 H213        2.9670    9.2260    2.4650 h1        1 IXO      0.083700
     30 H114        3.7190    6.9430    2.2460 hc        1 IXO      0.086200
     31 H214        2.5700    6.4290    3.5590 hc        1 IXO      0.086200
@<TRIPOS>BOND
     1    1    2 1   
     2    1   15 1   
     3    1   16 1   
     4    1   17 1   
     5    2    3 1   
     6    2    4 1   
     7    2    5 1   
     8    3   18 1   
     9    3   19 1   
    10    3   20 1   
    11    4   21 1   
    12    4   22 1   
    13    4   23 1   
    14    5    6 1   
    15    5   24 1   
    16    5   25 1   
    17    6    7 3   
    18    7    8 1   
    19    8    9 1   
    20    8   26 1   
    21    8   27 1   
    22    9   10 1   
    23   10   11 2   
    24   10   14 1   
    25   11   12 1   
    26   12   13 1   
    27   13   14 1   
    28   13   28 1   
    29   13   29 1   
    30   14   30 1   
    31   14   31 1   
@<TRIPOS>SUBSTRUCTURE
     1 IXO         1 TEMP              0 ****  ****    0 ROOT
