@<TRIPOS>MOLECULE
IXO
   31    31     1     0     0
SMALL
bcc


@<TRIPOS>ATOM
      1 C01         0.1960   -0.2570    0.7400 c3        1 IXO      0.089433
      2 N02         1.5140    0.1020    0.1400 n4        1 IXO     -0.608800
      3 C03         2.5140    0.3290    1.2240 c3        1 IXO      0.089433
      4 C04         1.9780   -1.0070   -0.7440 c3        1 IXO      0.089433
      5 C05         1.3730    1.3610   -0.6990 c3        1 IXO      0.234900
      6 C06         0.9340    2.4990    0.0490 c1        1 IXO     -0.251100
      7 C07         0.5740    3.5010    0.5980 c1        1 IXO      0.030900
      8 C08         0.1210    4.7050    1.2450 c3        1 IXO      0.181500
      9 O09         1.0840    5.0220    2.2740 os        1 IXO     -0.391400
     10 C10         0.8160    6.1790    2.9630 c2        1 IXO      0.449600
     11 N11        -0.2320    6.9850    2.8610 n2        1 IXO     -0.414200
     12 O12        -0.1190    7.9860    3.7050 os        1 IXO     -0.132300
     13 C13         1.1320    7.9010    4.5030 c3        1 IXO      0.079400
     14 C14         1.8300    6.6280    4.0050 c3        1 IXO     -0.148700
     15 H101        0.3110   -1.1820    1.3650 hx        1 IXO      0.103256
     16 H201       -0.5470   -0.4440   -0.0790 hx        1 IXO      0.103256
     17 H301       -0.1600    0.5930    1.3830 hx        1 IXO      0.103256
     18 H103        3.5100    0.5710    0.7670 hx        1 IXO      0.103256
     19 H203        2.6010   -0.5990    1.8490 hx        1 IXO      0.103256
     20 H303        2.1770    1.1880    1.8650 hx        1 IXO      0.103256
     21 H104        2.9690   -0.7370   -1.1960 hx        1 IXO      0.103256
     22 H204        1.2250   -1.1770   -1.5580 hx        1 IXO      0.103256
     23 H304        2.0880   -1.9430   -0.1330 hx        1 IXO      0.103256
     24 H105        2.3860    1.5680   -1.1600 hx        1 IXO      0.114200
     25 H205        0.6330    1.1320   -1.5260 hx        1 IXO      0.114200
     26 H108       -0.8910    4.5470    1.7160 h1        1 IXO      0.102200
     27 H208        0.0680    5.5510    0.5020 h1        1 IXO      0.102200
     28 H113        1.6990    8.8360    4.2880 h1        1 IXO      0.083700
     29 H213        0.8150    7.8490    5.5700 h1        1 IXO      0.083700
     30 H114        2.8220    6.8350    3.5400 hc        1 IXO      0.086200
     31 H214        1.9530    5.8620    4.8070 hc        1 IXO      0.086200
@<TRIPOS>BOND
     1    1    2 1   
     2    1   15 1   
     3    1   16 1   
     4    1   17 1   
     5    2    3 1   
     6    2    4 1   
     7    2    5 1   
     8    3   18 1   
     9    3   19 1   
    10    3   20 1   
    11    4   21 1   
    12    4   22 1   
    13    4   23 1   
    14    5    6 1   
    15    5   24 1   
    16    5   25 1   
    17    6    7 3   
    18    7    8 1   
    19    8    9 1   
    20    8   26 1   
    21    8   27 1   
    22    9   10 1   
    23   10   11 2   
    24   10   14 1   
    25   11   12 1   
    26   12   13 1   
    27   13   14 1   
    28   13   28 1   
    29   13   29 1   
    30   14   30 1   
    31   14   31 1   
@<TRIPOS>SUBSTRUCTURE
     1 IXO         1 TEMP              0 ****  ****    0 ROOT
