@<TRIPOS>MOLECULE
IXO
   31    29     1     0     0
SMALL
bcc


@<TRIPOS>ATOM
      1 C01         0.4220   -1.8700    2.7520 c3        1 IXO     -0.188667
      2 N02         0.0840   -0.5110    3.2190 n4        1 IXO      0.028000
      3 C03        -1.3350   -0.3300    3.1700 c3        1 IXO     -0.188667
      4 C04         0.5400   -0.3380    4.5770 c3        1 IXO     -0.188667
      5 C05         0.7270    0.4720    2.3660 c3        1 IXO      0.023000
      6 C06         0.1990    0.3340    0.9330 c1        1 IXO     -0.247000
      7 C07        -0.2060    0.2310   -0.1580 c1        1 IXO     -0.037000
      8 C08        -0.7340    0.0980   -1.5670 c2        1 IXO      0.066000
      9 O09         0.2250    0.6660   -2.5000 os        1 IXO     -0.158000
     10 C10        -0.2530    0.7630   -3.8220 c2        1 IXO     -0.006000
     11 N11        -0.8960    1.9680   -4.2650 n1        1 IXO     -0.103000
     12 O12        -0.4110    2.4450   -5.3100 o         1 IXO     -0.187000
     13 C13         0.4140    1.2560   -5.9240 c3        1 IXO     -0.066000
     14 C14         0.3520    0.0910   -4.7970 c3        1 IXO     -0.158000
     15 H101        0.1230   -2.5260    3.4120 hx        1 IXO      0.143667
     16 H201        1.4130   -1.9460    2.6310 hx        1 IXO      0.143667
     17 H301       -0.0230   -2.0410    1.9000 hx        1 IXO      0.143667
     18 H103       -1.7510   -0.8200    3.9070 hx        1 IXO      0.143667
     19 H203       -1.6720   -0.6640    2.3340 hx        1 IXO      0.143667
     20 H303       -1.5470    0.6240    3.2510 hx        1 IXO      0.143667
     21 H104       -0.0210   -0.8760    5.1830 hx        1 IXO      0.143667
     22 H204        0.4760    0.5890    4.8210 hx        1 IXO      0.143667
     23 H304        1.4670   -0.6280    4.6490 hx        1 IXO      0.143667
     24 H105        1.6790    0.3300    2.3730 hx        1 IXO      0.151000
     25 H205        0.5240    1.3930    2.7070 hx        1 IXO      0.151000
     26 H108       -0.8690   -0.8450   -1.7740 h4        1 IXO      0.148000
     27 H208       -1.5960    0.5800   -1.6450 h4        1 IXO      0.148000
     28 H113        1.3450    1.5310   -6.0830 h1        1 IXO      0.122500
     29 H213        0.0050    0.9500   -6.7490 h1        1 IXO      0.122500
     30 H114        0.0610   -0.7910   -5.1410 hc        1 IXO      0.137500
     31 H214        1.2570   -0.1330   -4.4480 hc        1 IXO      0.137500
@<TRIPOS>BOND
     1    1    2 1   
     2    1   15 1   
     3    1   16 1   
     4    1   17 1   
     5    2    3 1   
     6    2    4 1   
     7    2    5 1   
     8    3   18 1   
     9    3   19 1   
    10    3   20 1   
    11    4   21 1   
    12    4   22 1   
    13    4   23 1   
    14    5    6 1   
    15    5   24 1   
    16    5   25 1   
    17    6    7 1   
    18    8    9 1   
    19    8   26 1   
    20    8   27 1   
    21    9   10 1   
    22   10   11 1   
    23   10   14 1   
    24   12   13 1   
    25   13   14 1   
    26   13   28 1   
    27   13   29 1   
    28   14   30 1   
    29   14   31 1   
@<TRIPOS>SUBSTRUCTURE
     1 IXO         1 TEMP              0 ****  ****    0 ROOT
