@<TRIPOS>MOLECULE
IXO
   31    31     1     0     0
SMALL
bcc


@<TRIPOS>ATOM
      1 C01        -3.8410   -1.4910    0.1990 c3        1 IXO      0.089433
      2 N02        -3.9300   -0.0320   -0.0960 n4        1 IXO     -0.608800
      3 C03        -3.3460    0.2450   -1.4410 c3        1 IXO      0.089433
      4 C04        -5.3600    0.3950   -0.0760 c3        1 IXO      0.089433
      5 C05        -3.1770    0.7560    0.9630 c3        1 IXO      0.234900
      6 C06        -1.7850    0.4310    1.0320 c1        1 IXO     -0.251100
      7 C07        -0.6120    0.2230    1.1560 c1        1 IXO      0.030900
      8 C08         0.7950   -0.0360    1.3260 c3        1 IXO      0.181500
      9 O09         1.4370    0.2630    0.0670 os        1 IXO     -0.391400
     10 C10         2.8010    0.1070    0.0760 c2        1 IXO      0.449600
     11 N11         3.5800   -0.3480    1.0480 n2        1 IXO     -0.414200
     12 O12         4.8350   -0.3530    0.6590 os        1 IXO     -0.132300
     13 C13         4.9860    0.1440   -0.7340 c3        1 IXO      0.079400
     14 C14         3.5600    0.4840   -1.1870 c3        1 IXO     -0.148700
     15 H101       -4.3930   -2.0650   -0.5930 hx        1 IXO      0.103256
     16 H201       -2.7610   -1.8010    0.2080 hx        1 IXO      0.103256
     17 H301       -4.2980   -1.6970    1.2030 hx        1 IXO      0.103256
     18 H103       -3.8970   -0.3510   -2.2160 hx        1 IXO      0.103256
     19 H203       -3.4400    1.3400   -1.6690 hx        1 IXO      0.103256
     20 H303       -2.2600   -0.0440   -1.4390 hx        1 IXO      0.103256
     21 H104       -5.8000    0.1850    0.9350 hx        1 IXO      0.103256
     22 H204       -5.4280    1.4930   -0.2970 hx        1 IXO      0.103256
     23 H304       -5.9270   -0.1800   -0.8570 hx        1 IXO      0.103256
     24 H105       -3.3060    1.8530    0.7150 hx        1 IXO      0.114200
     25 H205       -3.6750    0.5420    1.9570 hx        1 IXO      0.114200
     26 H108        1.2180    0.6270    2.1350 h1        1 IXO      0.102200
     27 H208        0.9710   -1.1180    1.5880 h1        1 IXO      0.102200
     28 H113        5.6600    1.0290   -0.6740 h1        1 IXO      0.083700
     29 H213        5.4520   -0.6890   -1.3100 h1        1 IXO      0.083700
     30 H114        3.2270   -0.1270   -2.0580 hc        1 IXO      0.086200
     31 H214        3.4310    1.5660   -1.4270 hc        1 IXO      0.086200
@<TRIPOS>BOND
     1    1    2 1   
     2    1   15 1   
     3    1   16 1   
     4    1   17 1   
     5    2    3 1   
     6    2    4 1   
     7    2    5 1   
     8    3   18 1   
     9    3   19 1   
    10    3   20 1   
    11    4   21 1   
    12    4   22 1   
    13    4   23 1   
    14    5    6 1   
    15    5   24 1   
    16    5   25 1   
    17    6    7 3   
    18    7    8 1   
    19    8    9 1   
    20    8   26 1   
    21    8   27 1   
    22    9   10 1   
    23   10   11 2   
    24   10   14 1   
    25   11   12 1   
    26   12   13 1   
    27   13   14 1   
    28   13   28 1   
    29   13   29 1   
    30   14   30 1   
    31   14   31 1   
@<TRIPOS>SUBSTRUCTURE
     1 IXO         1 TEMP              0 ****  ****    0 ROOT
