@<TRIPOS>MOLECULE
IXO
   31    31     1     0     0
SMALL
bcc


@<TRIPOS>ATOM
      1 C01         0.2770   -0.2360    0.9320 c3        1 IXO      0.089433
      2 N02         1.4640    0.0550    0.0770 n4        1 IXO     -0.608800
      3 C03         2.6010    0.5040    0.9340 c3        1 IXO      0.089433
      4 C04         1.8560   -1.1770   -0.6680 c3        1 IXO      0.089433
      5 C05         1.1210    1.1400   -0.9300 c3        1 IXO      0.234900
      6 C06         0.7310    2.3770   -0.3250 c1        1 IXO     -0.251100
      7 C07         0.3970    3.4470    0.0960 c1        1 IXO      0.030900
      8 C08        -0.0260    4.7310    0.5940 c3        1 IXO      0.181500
      9 O09         1.0560    5.2530    1.3960 os        1 IXO     -0.391400
     10 C10         0.8250    6.5030    1.9140 c2        1 IXO      0.449600
     11 N11        -0.2720    7.2450    1.8380 n2        1 IXO     -0.414200
     12 O12        -0.0950    8.3810    2.4760 os        1 IXO     -0.132300
     13 C13         1.2610    8.4760    3.0770 c3        1 IXO      0.079400
     14 C14         1.9510    7.1580    2.6990 c3        1 IXO     -0.148700
     15 H101       -0.5690   -0.5910    0.2860 hx        1 IXO      0.103256
     16 H201       -0.0300    0.7010    1.4700 hx        1 IXO      0.103256
     17 H301        0.5410   -1.0320    1.6780 hx        1 IXO      0.103256
     18 H103        2.3130    1.4510    1.4640 hx        1 IXO      0.103256
     19 H203        3.4990    0.6950    0.2890 hx        1 IXO      0.103256
     20 H303        2.8380   -0.2950    1.6850 hx        1 IXO      0.103256
     21 H104        1.0010   -1.5140   -1.3110 hx        1 IXO      0.103256
     22 H204        2.7490   -0.9570   -1.3120 hx        1 IXO      0.103256
     23 H304        2.1140   -1.9860    0.0670 hx        1 IXO      0.103256
     24 H105        2.0380    1.2960   -1.5750 hx        1 IXO      0.114200
     25 H205        0.2810    0.7430   -1.5770 hx        1 IXO      0.114200
     26 H108       -0.9480    4.6250    1.2330 h1        1 IXO      0.102200
     27 H208       -0.2340    5.4320   -0.2640 h1        1 IXO      0.102200
     28 H113        1.7360    9.3760    2.6240 h1        1 IXO      0.083700
     29 H213        1.1050    8.6010    4.1730 h1        1 IXO      0.083700
     30 H114        2.2320    6.5480    3.5900 hc        1 IXO      0.086200
     31 H214        2.8530    7.3120    2.0610 hc        1 IXO      0.086200
@<TRIPOS>BOND
     1    1    2 1   
     2    1   15 1   
     3    1   16 1   
     4    1   17 1   
     5    2    3 1   
     6    2    4 1   
     7    2    5 1   
     8    3   18 1   
     9    3   19 1   
    10    3   20 1   
    11    4   21 1   
    12    4   22 1   
    13    4   23 1   
    14    5    6 1   
    15    5   24 1   
    16    5   25 1   
    17    6    7 3   
    18    7    8 1   
    19    8    9 1   
    20    8   26 1   
    21    8   27 1   
    22    9   10 1   
    23   10   11 2   
    24   10   14 1   
    25   11   12 1   
    26   12   13 1   
    27   13   14 1   
    28   13   28 1   
    29   13   29 1   
    30   14   30 1   
    31   14   31 1   
@<TRIPOS>SUBSTRUCTURE
     1 IXO         1 TEMP              0 ****  ****    0 ROOT
