@<TRIPOS>MOLECULE
IXS
   95    96     1     0     0
SMALL
bcc


@<TRIPOS>ATOM
      1 O2       1099.0990-1646.1130  593.7260 o         1 IXS     -0.354400
      2 S1       1099.3680-1646.8670  594.8010 s4        1 IXS      1.640500
      3 O1       1099.1160-1646.5010  596.0660 o         1 IXS     -0.354400
      4 C22      1100.0280-1648.2840  594.5620 c3        1 IXS     -0.612800
      5 N24       -86.7970  132.9530  -53.8350 nh        1 IXS     -0.731600
      6 C29       -85.8450  132.8760  -52.7670 c3        1 IXS      0.181100
      7 C19       -87.9210  133.7230  -53.7940 ca        1 IXS      0.241600
      8 C20       -88.8060  133.7570  -54.9250 ca        1 IXS     -0.115000
      9 C15       -89.9410  134.5490  -54.9100 ca        1 IXS     -0.114600
     10 C14       -90.9120  134.5800  -56.0340 c         1 IXS      0.545700
     11 O5        -92.1220  134.7080  -55.8900 o         1 IXS     -0.395100
     12 N13       -90.3990  134.4870  -57.4310 n4        1 IXS     -0.685800
     13 C12       -90.9340  133.2520  -58.1940 c3        1 IXS      0.227800
     14 C50       -90.1840  131.9990  -57.7850 c3        1 IXS     -0.137100
     15 C5        -90.8530  133.5410  -59.6520 ca        1 IXS     -0.247300
     16 C6        -89.6380  133.4490  -60.3500 ca        1 IXS     -0.065000
     17 C7        -89.5900  133.6680  -61.7180 ca        1 IXS     -0.161500
     18 C4        -92.0300  133.8580  -60.3490 ca        1 IXS     -0.065000
     19 C3        -92.0030  134.0760  -61.7190 ca        1 IXS     -0.161500
     20 C2        -90.7780  133.9820  -62.4160 ca        1 IXS      0.220900
     21 F1        -90.7400  134.1920  -63.7420 f         1 IXS     -0.079900
     22 C18       -88.2660  134.5070  -52.6580 ca        1 IXS     -0.187000
     23 C17       -89.4290  135.2860  -52.6640 ca        1 IXS     -0.134600
     24 C16       -90.2700  135.3260  -53.7840 ca        1 IXS     -0.067000
     25 C34       -89.8350  136.1200  -51.5280 c         1 IXS      0.597700
     26 O4        -90.5720  137.0980  -51.5190 o         1 IXS     -0.456100
     27 N35       -89.3050  135.7210  -50.1500 n4        1 IXS     -0.685800
     28 C36       -90.1150  136.2220  -48.9890 c3        1 IXS      0.108500
     29 C56       -89.7970  135.4150  -47.7120 c3        1 IXS     -0.053100
     30 C58       -89.6800  133.9550  -47.9620 ca        1 IXS     -0.222300
     31 C65       -90.7740  133.2340  -48.4680 ca        1 IXS     -0.125000
     32 C64       -90.7080  131.8480  -48.5750 ca        1 IXS     -0.105500
     33 C63       -89.5550  131.1670  -48.1710 ca        1 IXS     -0.064000
     34 C62       -88.4640  131.8800  -47.6710 ca        1 IXS     -0.105500
     35 C61       -88.5250  133.2700  -47.5660 ca        1 IXS     -0.125000
     36 C37       -89.8950  137.7420  -48.7240 c3        1 IXS      0.085800
     37 N38       -90.7910  138.2500  -47.6370 n4        1 IXS     -0.768000
     38 C39       -90.6540  139.7440  -47.4060 c3        1 IXS      0.068500
     39 C8        -91.5590  140.5390  -48.3380 c3        1 IXS     -0.165100
     40 C1        -90.9680  140.0770  -45.9280 c         1 IXS      0.504100
     41 O3        -91.1640  139.2090  -45.0860 o         1 IXS     -0.377100
     42 N9        -91.0200  141.5040  -45.5340 n4        1 IXS     -0.657800
     43 C10       -90.4850  141.7540  -44.1340 c3        1 IXS      0.109800
     44 C51       -90.6850  143.2150  -43.7090 c3        1 IXS     -0.084700
     45 C52       -92.1470  143.5990  -43.6840 c3        1 IXS     -0.120100
     46 C53       -90.0670  143.3580  -42.3270 c3        1 IXS     -0.120100
     47 H221     1100.2350-1648.9050  595.4920 h1        1 IXS      0.227033
     48 H222     1101.0370-1648.2910  594.0310 h1        1 IXS      0.227033
     49 H223     1099.4450-1649.0100  593.9040 h1        1 IXS      0.227033
     50 H291      -85.4090  133.8880  -52.5490 h1        1 IXS      0.069700
     51 H292      -85.0130  132.1840  -53.0740 h1        1 IXS      0.069700
     52 H293      -86.3260  132.4700  -51.8360 h1        1 IXS      0.069700
     53 H20       -88.5770  133.1150  -55.7970 ha        1 IXS      0.169000
     54 HN13      -89.3760  134.4720  -57.4460 hn        1 IXS      0.465800
     55 H12       -92.0210  133.1630  -57.8760 hx        1 IXS      0.122700
     56 H501      -90.6010  131.1450  -58.3860 hc        1 IXS      0.079700
     57 H502      -89.0910  132.0630  -58.0050 hc        1 IXS      0.079700
     58 H503      -90.3350  131.7680  -56.7030 hc        1 IXS      0.079700
     59 H6        -88.7090  133.1840  -59.8210 ha        1 IXS      0.141000
     60 H7        -88.6400  133.5890  -62.2740 ha        1 IXS      0.189500
     61 H4        -92.9940  133.9170  -59.8180 ha        1 IXS      0.141000
     62 H3        -92.9270  134.3100  -62.2740 ha        1 IXS      0.189500
     63 H18       -87.5840  134.5020  -51.7950 ha        1 IXS      0.144000
     64 H16       -91.1880  135.9410  -53.7860 ha        1 IXS      0.189000
     65 HN35      -89.3120  134.6790  -50.0860 hn        1 IXS      0.486300
     66 H36       -91.1990  136.0460  -49.2780 hx        1 IXS      0.130700
     67 H561      -88.8520  135.8030  -47.2440 hc        1 IXS      0.081200
     68 H562      -90.6440  135.5740  -46.9870 hc        1 IXS      0.081200
     69 H65       -91.7050  133.7550  -48.7370 ha        1 IXS      0.135000
     70 H64       -91.5780  131.2810  -48.9510 ha        1 IXS      0.179500
     71 H63       -89.5180  130.0640  -48.2260 ha        1 IXS      0.187000
     72 H62       -87.5610  131.3420  -47.3330 ha        1 IXS      0.179500
     73 H61       -87.6710  133.8150  -47.1320 ha        1 IXS      0.135000
     74 H371      -90.1190  138.3340  -49.6630 hx        1 IXS      0.134200
     75 H372      -88.8260  137.9270  -48.4090 hx        1 IXS      0.134200
     76 HN38      -90.5770  137.7450  -46.7570 hn        1 IXS      0.483800
     77 H39       -89.5660  140.0150  -47.5930 hx        1 IXS      0.154700
     78 H81       -91.2750  141.6240  -48.3120 hc        1 IXS      0.113367
     79 H82       -92.6390  140.4410  -48.0600 hc        1 IXS      0.113367
     80 H83       -91.4400  140.2100  -49.4040 hc        1 IXS      0.113367
     81 HN9       -92.0110  141.8180  -45.5360 hn        1 IXS      0.487800
     82 H101      -89.3890  141.4920  -44.1380 hx        1 IXS      0.121200
     83 H102      -91.0380  141.0660  -43.4290 hx        1 IXS      0.121200
     84 H51       -90.1290  143.8930  -44.4170 hc        1 IXS      0.078700
     85 H521      -92.5720  143.6890  -44.7140 hc        1 IXS      0.074367
     86 H522      -92.7510  142.8690  -43.0930 hc        1 IXS      0.074367
     87 H523      -92.2590  144.6020  -43.1920 hc        1 IXS      0.074367
     88 H531      -90.1310  144.4310  -42.0090 hc        1 IXS      0.074367
     89 H532      -88.9910  143.0610  -42.3350 hc        1 IXS      0.074367
     90 H533      -90.6150  142.7390  -41.5760 hc        1 IXS      0.074367
     91 H241      -86.6160  132.4160  -54.6560 hn        1 IXS      0.471800
     92 H132      -90.7200  135.3170  -57.9560 hn        1 IXS      0.465800
     93 H352      -88.3310  136.0320  -50.0640 hn        1 IXS      0.486300
     94 H382      -91.7730  138.0470  -47.8850 hn        1 IXS      0.483800
     95 H92       -90.4990  142.0890  -46.1990 hn        1 IXS      0.487800
@<TRIPOS>BOND
     1    1    2 1   
     2    2    3 1   
     3    2    4 1   
     4    4   47 1   
     5    4   48 1   
     6    4   49 1   
     7    5    6 1   
     8    5    7 1   
     9    5   91 1   
    10    6   50 1   
    11    6   51 1   
    12    6   52 1   
    13    7    8 ar  
    14    7   22 ar  
    15    8    9 ar  
    16    8   53 1   
    17    9   10 1   
    18    9   24 ar  
    19   10   11 2   
    20   10   12 1   
    21   12   13 1   
    22   12   54 1   
    23   12   92 1   
    24   13   14 1   
    25   13   15 1   
    26   13   55 1   
    27   14   56 1   
    28   14   57 1   
    29   14   58 1   
    30   15   16 ar  
    31   15   18 ar  
    32   16   17 ar  
    33   16   59 1   
    34   17   20 ar  
    35   17   60 1   
    36   18   19 ar  
    37   18   61 1   
    38   19   20 ar  
    39   19   62 1   
    40   20   21 1   
    41   22   23 ar  
    42   22   63 1   
    43   23   24 ar  
    44   23   25 1   
    45   24   64 1   
    46   25   26 2   
    47   25   27 1   
    48   27   28 1   
    49   27   65 1   
    50   27   93 1   
    51   28   29 1   
    52   28   36 1   
    53   28   66 1   
    54   29   30 1   
    55   29   67 1   
    56   29   68 1   
    57   30   31 ar  
    58   30   35 ar  
    59   31   32 ar  
    60   31   69 1   
    61   32   33 ar  
    62   32   70 1   
    63   33   34 ar  
    64   33   71 1   
    65   34   35 ar  
    66   34   72 1   
    67   35   73 1   
    68   36   37 1   
    69   36   74 1   
    70   36   75 1   
    71   37   38 1   
    72   37   76 1   
    73   37   94 1   
    74   38   39 1   
    75   38   40 1   
    76   38   77 1   
    77   39   78 1   
    78   39   79 1   
    79   39   80 1   
    80   40   41 2   
    81   40   42 1   
    82   42   43 1   
    83   42   81 1   
    84   42   95 1   
    85   43   44 1   
    86   43   82 1   
    87   43   83 1   
    88   44   45 1   
    89   44   46 1   
    90   44   84 1   
    91   45   85 1   
    92   45   86 1   
    93   45   87 1   
    94   46   88 1   
    95   46   89 1   
    96   46   90 1   
@<TRIPOS>SUBSTRUCTURE
     1 IXS         1 TEMP              0 ****  ****    0 ROOT
