@<TRIPOS>MOLECULE
IXS
   94    96     1     0     0
SMALL
bcc


@<TRIPOS>ATOM
      1 O2          0.5260   -0.5200   -4.2360 o         1 IXS     -0.646300
      2 S1          1.5960    0.3910   -4.0920 s6        1 IXS      1.470900
      3 O1          1.9010    0.7790   -2.7880 o         1 IXS     -0.646300
      4 C22         2.9330   -0.1000   -4.9390 c3        1 IXS     -0.415300
      5 N24         1.0820    1.8040   -4.9020 nh        1 IXS     -0.655900
      6 C29         2.0220    2.7170   -5.4970 c3        1 IXS      0.177100
      7 C19        -0.2390    2.2370   -4.7690 ca        1 IXS      0.204600
      8 C20        -1.3150    1.3280   -4.9990 ca        1 IXS     -0.033000
      9 C15        -2.6320    1.7100   -4.7670 ca        1 IXS     -0.155600
     10 C14        -3.7730    0.7770   -4.9470 c         1 IXS      0.547700
     11 O5         -4.9190    1.1450   -5.1900 o         1 IXS     -0.403100
     12 N13        -3.5410   -0.6810   -4.7770 ny        1 IXS     -0.687800
     13 C12        -3.2770   -1.4350   -6.1070 c3        1 IXS      0.242800
     14 C50        -4.4800   -1.3490   -7.0260 c3        1 IXS     -0.138100
     15 C5         -2.8660   -2.8210   -5.7490 ca        1 IXS     -0.245300
     16 C6         -3.7280   -3.9160   -5.9070 ca        1 IXS     -0.068000
     17 C7         -3.2970   -5.2020   -5.6120 ca        1 IXS     -0.162500
     18 C4         -1.5570   -3.0310   -5.2770 ca        1 IXS     -0.068000
     19 C3         -1.1120   -4.3070   -4.9740 ca        1 IXS     -0.162500
     20 C2         -1.9820   -5.4090   -5.1430 ca        1 IXS      0.219900
     21 F1         -1.5550   -6.6490   -4.8540 f         1 IXS     -0.081900
     22 C18        -0.5580    3.5570   -4.3830 ca        1 IXS     -0.102000
     23 C17        -1.8960    3.9460   -4.1910 ca        1 IXS     -0.191600
     24 C16        -2.9400    3.0250   -4.3840 ca        1 IXS      0.004000
     25 C34        -2.2820    5.2960   -3.7890 c         1 IXS      0.617700
     26 O4         -3.3790    5.8420   -3.9000 o         1 IXS     -0.527100
     27 N35        -1.2300    6.1590   -3.1170 ny        1 IXS     -0.694800
     28 C36        -1.7730    7.2580   -2.2420 c3        1 IXS      0.108500
     29 C56        -0.6700    7.7300   -1.2540 c3        1 IXS     -0.036100
     30 C58        -0.0550    6.5850   -0.5370 ca        1 IXS     -0.215300
     31 C65        -0.6300    6.0980    0.6440 ca        1 IXS     -0.132000
     32 C64         0.0070    5.0940    1.3710 ca        1 IXS     -0.101000
     33 C63         1.2250    4.5730    0.9280 ca        1 IXS     -0.061000
     34 C62         1.8030    5.0560   -0.2490 ca        1 IXS     -0.101000
     35 C61         1.1690    6.0580   -0.9800 ca        1 IXS     -0.132000
     36 C37        -2.2920    8.5000   -3.0120 c3        1 IXS      0.089800
     37 N38        -3.7850    8.6000   -3.0770 ny        1 IXS     -0.775000
     38 C39        -4.2820    9.9240   -3.6270 c3        1 IXS      0.068500
     39 C8         -5.6800    9.7680   -4.2190 c3        1 IXS     -0.162100
     40 C1         -4.2830   11.0080   -2.5310 c         1 IXS      0.510100
     41 O3         -3.8970   10.7980   -1.3870 o         1 IXS     -0.392100
     42 N9         -4.7610   12.3650   -2.8840 ny        1 IXS     -0.660800
     43 C10        -6.1160   12.6740   -2.2710 c3        1 IXS      0.111800
     44 C51        -6.5630   14.1090   -2.5810 c3        1 IXS     -0.085700
     45 C52        -6.6970   14.3480   -4.0670 c3        1 IXS     -0.120100
     46 C53        -7.8930   14.3200   -1.8760 c3        1 IXS     -0.120100
     47 H221        3.2650   -1.1290   -4.6050 h1        1 IXS      0.165700
     48 H222        2.8080   -0.2060   -6.0500 h1        1 IXS      0.165700
     49 H223        3.8490    0.5360   -4.7940 h1        1 IXS      0.165700
     50 H291        1.5120    3.4430   -6.1850 h1        1 IXS      0.066033
     51 H292        2.7640    2.1370   -6.1130 h1        1 IXS      0.066033
     52 H293        2.5740    3.2950   -4.7060 h1        1 IXS      0.066033
     53 H20        -1.0800    0.3050   -5.3660 ha        1 IXS      0.209000
     54 HN13       -4.3820   -1.1050   -4.3560 hn        1 IXS      0.474300
     55 H12        -2.4060   -0.8860   -6.5780 hx        1 IXS      0.086700
     56 H501       -4.2570   -1.9530   -7.9450 hc        1 IXS      0.088367
     57 H502       -5.4080   -1.7610   -6.5570 hc        1 IXS      0.088367
     58 H503       -4.6770   -0.2940   -7.3360 hc        1 IXS      0.088367
     59 H6         -4.7550   -3.7780   -6.2850 ha        1 IXS      0.151000
     60 H7         -3.9690   -6.0680   -5.7480 ha        1 IXS      0.185500
     61 H4         -0.8630   -2.1810   -5.1530 ha        1 IXS      0.151000
     62 H3         -0.0870   -4.4800   -4.6090 ha        1 IXS      0.185500
     63 H18         0.2700    4.2720   -4.2510 ha        1 IXS      0.149000
     64 H16        -3.9950    3.3270   -4.2470 ha        1 IXS      0.192000
     65 HN35       -0.6440    5.5500   -2.4970 hn        1 IXS      0.490300
     66 H36        -2.5980    6.7820   -1.6270 hx        1 IXS      0.127700
     67 H561       -1.1640    8.4210   -0.5150 hc        1 IXS      0.098700
     68 H562        0.1120    8.3160   -1.8080 hc        1 IXS      0.098700
     69 H65        -1.5690    6.5300    1.0240 ha        1 IXS      0.132500
     70 H64        -0.4380    4.7300    2.3140 ha        1 IXS      0.178000
     71 H63         1.7430    3.7950    1.5190 ha        1 IXS      0.188000
     72 H62         2.7790    4.6620   -0.5810 ha        1 IXS      0.178000
     73 H61         1.6710    6.4850   -1.8620 ha        1 IXS      0.132500
     74 H371       -1.9250    9.4220   -2.4630 hx        1 IXS      0.132200
     75 H372       -1.8960    8.5370   -4.0680 hx        1 IXS      0.132200
     76 HN38       -4.1590    7.8430   -3.6800 hn        1 IXS      0.487300
     77 H39        -3.5560   10.2410   -4.4410 hx        1 IXS      0.152700
     78 H81        -6.4500    9.5680   -3.4310 hc        1 IXS      0.115033
     79 H82        -5.9640   10.7020   -4.7720 hc        1 IXS      0.115033
     80 H83        -5.7150    8.9360   -4.9720 hc        1 IXS      0.115033
     81 HN9        -4.0920   13.0670   -2.5130 hn        1 IXS      0.489800
     82 H101       -6.8530   11.9370   -2.6970 hx        1 IXS      0.115200
     83 H102       -6.0230   12.5310   -1.1550 hx        1 IXS      0.115200
     84 H51        -5.8160   14.8360   -2.1490 hc        1 IXS      0.092700
     85 H521       -7.3350   13.5680   -4.5500 hc        1 IXS      0.072367
     86 H522       -5.7030   14.3830   -4.5750 hc        1 IXS      0.072367
     87 H523       -7.1910   15.3410   -4.2410 hc        1 IXS      0.072367
     88 H531       -7.8010   14.1330   -0.7780 hc        1 IXS      0.072367
     89 H532       -8.2170   15.3830   -2.0210 hc        1 IXS      0.072367
     90 H533       -8.6830   13.6540   -2.2990 hc        1 IXS      0.072367
     91 H132       -2.7390   -0.8570   -4.1570 hn        1 IXS      0.474300
     92 H352       -0.6070    6.5530   -3.8330 hn        1 IXS      0.490300
     93 H382       -4.1730    8.4670   -2.1290 hn        1 IXS      0.487300
     94 H92        -4.8290   12.4920   -3.9040 hn        1 IXS      0.489800
@<TRIPOS>BOND
     1    1    2 2   
     2    2    3 2   
     3    2    4 1   
     4    2    5 1   
     5    4   47 1   
     6    4   48 1   
     7    4   49 1   
     8    5    6 1   
     9    5    7 1   
    10    6   50 1   
    11    6   51 1   
    12    6   52 1   
    13    7    8 ar  
    14    7   22 ar  
    15    8    9 ar  
    16    8   53 1   
    17    9   10 1   
    18    9   24 ar  
    19   10   11 2   
    20   10   12 1   
    21   12   13 1   
    22   12   54 1   
    23   12   91 1   
    24   13   14 1   
    25   13   15 1   
    26   13   55 1   
    27   14   56 1   
    28   14   57 1   
    29   14   58 1   
    30   15   16 ar  
    31   15   18 ar  
    32   16   17 ar  
    33   16   59 1   
    34   17   20 ar  
    35   17   60 1   
    36   18   19 ar  
    37   18   61 1   
    38   19   20 ar  
    39   19   62 1   
    40   20   21 1   
    41   22   23 ar  
    42   22   63 1   
    43   23   24 ar  
    44   23   25 1   
    45   24   64 1   
    46   25   26 2   
    47   25   27 1   
    48   27   28 1   
    49   27   65 1   
    50   27   92 1   
    51   28   29 1   
    52   28   36 1   
    53   28   66 1   
    54   29   30 1   
    55   29   67 1   
    56   29   68 1   
    57   30   31 ar  
    58   30   35 ar  
    59   31   32 ar  
    60   31   69 1   
    61   32   33 ar  
    62   32   70 1   
    63   33   34 ar  
    64   33   71 1   
    65   34   35 ar  
    66   34   72 1   
    67   35   73 1   
    68   36   37 1   
    69   36   74 1   
    70   36   75 1   
    71   37   38 1   
    72   37   76 1   
    73   37   93 1   
    74   38   39 1   
    75   38   40 1   
    76   38   77 1   
    77   39   78 1   
    78   39   79 1   
    79   39   80 1   
    80   40   41 2   
    81   40   42 1   
    82   42   43 1   
    83   42   81 1   
    84   42   94 1   
    85   43   44 1   
    86   43   82 1   
    87   43   83 1   
    88   44   45 1   
    89   44   46 1   
    90   44   84 1   
    91   45   85 1   
    92   45   86 1   
    93   45   87 1   
    94   46   88 1   
    95   46   89 1   
    96   46   90 1   
@<TRIPOS>SUBSTRUCTURE
     1 IXS         1 TEMP              0 ****  ****    0 ROOT
