@<TRIPOS>MOLECULE
IXS
   90    92     1     0     0
SMALL
bcc


@<TRIPOS>ATOM
      1 O2         -4.5940    3.8810    1.7880 o         1 IXS     -0.644300
      2 S1         -4.7890    2.5840    2.2910 s6        1 IXS      1.460900
      3 O1         -5.4780    2.4920    3.5170 o         1 IXS     -0.644300
      4 C22        -5.6260    1.6830    1.1250 c3        1 IXS     -0.372300
      5 N24        -3.3510    1.7800    2.4170 nh        1 IXS     -0.675900
      6 C29        -2.9480    1.2430    3.6900 c3        1 IXS      0.191100
      7 C19        -2.4930    1.5310    1.3270 ca        1 IXS      0.148600
      8 C20        -2.4120    2.4420    0.2470 ca        1 IXS     -0.126000
      9 C15        -1.5620    2.1790   -0.8270 ca        1 IXS     -0.118600
     10 C14        -1.5370    3.1530   -1.9620 c         1 IXS      0.670700
     11 O5         -2.5900    3.5320   -2.5120 o         1 IXS     -0.592100
     12 N13        -0.2910    3.5690   -2.3910 n         1 IXS     -0.556900
     13 C12        -0.1280    4.6260   -3.3700 c3        1 IXS      0.142000
     14 C50         0.7900    4.2050   -4.5220 c3        1 IXS     -0.100100
     15 C5          0.4020    5.9000   -2.7510 ca        1 IXS     -0.128300
     16 C6          1.6740    5.9370   -2.1710 ca        1 IXS     -0.093000
     17 C7          2.1650    7.1110   -1.6100 ca        1 IXS     -0.165500
     18 C4         -0.3890    7.0540   -2.7570 ca        1 IXS     -0.093000
     19 C3          0.0840    8.2390   -2.2040 ca        1 IXS     -0.165500
     20 C2          1.3670    8.2710   -1.6270 ca        1 IXS      0.130900
     21 F1          1.8370    9.4200   -1.0860 f         1 IXS     -0.138900
     22 C18        -1.6890    0.3700    1.2900 ca        1 IXS     -0.099000
     23 C17        -0.8500    0.1250    0.2020 ca        1 IXS     -0.118600
     24 C16        -0.7750    1.0260   -0.8610 ca        1 IXS     -0.104000
     25 C34        -0.0160   -1.1150    0.2280 c         1 IXS      0.681700
     26 O4          0.5660   -1.4830    1.2720 o         1 IXS     -0.624100
     27 N35         0.0510   -1.8510   -0.9330 n         1 IXS     -0.548900
     28 C36         0.8510   -3.0480   -1.0350 c3        1 IXS      0.098700
     29 C56         0.2850   -4.0450   -2.0630 c3        1 IXS     -0.047100
     30 C58        -1.0930   -4.4900   -1.7280 ca        1 IXS     -0.083300
     31 C65        -1.3190   -5.3080   -0.6140 ca        1 IXS     -0.125000
     32 C64        -2.6080   -5.7400   -0.3090 ca        1 IXS     -0.126000
     33 C63        -3.6830   -5.3600   -1.1130 ca        1 IXS     -0.129000
     34 C62        -3.4640   -4.5470   -2.2250 ca        1 IXS     -0.126000
     35 C61        -2.1750   -4.1130   -2.5320 ca        1 IXS     -0.125000
     36 C37         2.3300   -2.7770   -1.4300 c3        1 IXS      0.143800
     37 N38         2.9850   -1.7850   -0.6040 n3        1 IXS     -0.829200
     38 C39         4.4260   -1.9260   -0.5480 c3        1 IXS      0.113500
     39 C8          5.0940   -0.7860    0.2170 c3        1 IXS     -0.094100
     40 C1          4.9330   -3.2650    0.0470 c         1 IXS      0.608100
     41 O3          5.6710   -4.0090   -0.6280 o         1 IXS     -0.608100
     42 N9          4.4930   -3.6120    1.3080 n         1 IXS     -0.558900
     43 C10         4.9950   -4.7590    2.0120 c3        1 IXS      0.083000
     44 C51         5.9730   -4.4480    3.1580 c3        1 IXS     -0.094700
     45 C52         5.3090   -3.6370    4.2480 c3        1 IXS     -0.092100
     46 C53         6.5010   -5.7540    3.7140 c3        1 IXS     -0.092100
     47 H221       -6.6090    2.1680    0.8920 h1        1 IXS      0.123033
     48 H222       -5.0880    1.5990    0.1470 h1        1 IXS      0.123033
     49 H223       -5.8650    0.6410    1.4500 h1        1 IXS      0.123033
     50 H291       -1.8450    1.3850    3.8450 h1        1 IXS      0.057700
     51 H292       -3.4990    1.7750    4.5130 h1        1 IXS      0.057700
     52 H293       -3.1800    0.1450    3.7540 h1        1 IXS      0.057700
     53 H20        -3.0090    3.3740    0.2340 ha        1 IXS      0.187000
     54 HN13        0.5010    3.3540   -1.8310 hn        1 IXS      0.310500
     55 H12        -1.1550    4.8370   -3.8080 h1        1 IXS      0.095700
     56 H501        1.8150    3.9570   -4.1560 hc        1 IXS      0.045033
     57 H502        0.3720    3.3150   -5.0500 hc        1 IXS      0.045033
     58 H503        0.8650    5.0510   -5.2470 hc        1 IXS      0.045033
     59 H6          2.3010    5.0320   -2.1620 ha        1 IXS      0.140000
     60 H7          3.1650    7.1440   -1.1550 ha        1 IXS      0.151500
     61 H4         -1.3970    7.0280   -3.2000 ha        1 IXS      0.140000
     62 H3         -0.5340    9.1490   -2.2080 ha        1 IXS      0.151500
     63 H18        -1.6990   -0.3570    2.1200 ha        1 IXS      0.163000
     64 H16        -0.1020    0.8390   -1.7120 ha        1 IXS      0.150000
     65 HN35       -0.3780   -1.5100   -1.7590 hn        1 IXS      0.317500
     66 H36         0.8450   -3.5430   -0.0140 h1        1 IXS      0.083700
     67 H561        0.3100   -3.5870   -3.0880 hc        1 IXS      0.060700
     68 H562        0.9690   -4.9370   -2.0790 hc        1 IXS      0.060700
     69 H65        -0.4720   -5.6100    0.0210 ha        1 IXS      0.131000
     70 H64        -2.7770   -6.3830    0.5680 ha        1 IXS      0.133500
     71 H63        -4.6990   -5.7030   -0.8720 ha        1 IXS      0.133000
     72 H62        -4.3090   -4.2480   -2.8630 ha        1 IXS      0.133500
     73 H61        -2.0090   -3.4750   -3.4130 ha        1 IXS      0.131000
     74 H371        2.8620   -3.7740   -1.4010 h1        1 IXS      0.045700
     75 H372        2.3710   -2.4040   -2.4920 h1        1 IXS      0.045700
     76 HN38        2.5860   -1.7410    0.3170 hn        1 IXS      0.385800
     77 H39         4.8060   -1.9130   -1.6150 h1        1 IXS      0.090700
     78 H81         6.1970   -0.9550    0.2310 hc        1 IXS      0.047367
     79 H82         4.8860    0.1880   -0.2870 hc        1 IXS      0.047367
     80 H83         4.7250   -0.7240    1.2690 hc        1 IXS      0.047367
     81 HN9         4.0460   -2.9170    1.8580 hn        1 IXS      0.308500
     82 H101        4.1100   -5.3120    2.4420 h1        1 IXS      0.062200
     83 H102        5.5120   -5.4370    1.2730 h1        1 IXS      0.062200
     84 H51         6.8410   -3.8600    2.7470 hc        1 IXS      0.056700
     85 H521        5.9980   -3.5280    5.1210 hc        1 IXS      0.036033
     86 H522        5.0480   -2.6140    3.8840 hc        1 IXS      0.036033
     87 H523        4.3750   -4.1380    4.5990 hc        1 IXS      0.036033
     88 H531        7.0140   -6.3400    2.9140 hc        1 IXS      0.036033
     89 H532        7.2320   -5.5560    4.5340 hc        1 IXS      0.036033
     90 H533        5.6670   -6.3710    4.1270 hc        1 IXS      0.036033
@<TRIPOS>BOND
     1    1    2 2   
     2    2    3 2   
     3    2    4 1   
     4    2    5 1   
     5    4   47 1   
     6    4   48 1   
     7    4   49 1   
     8    5    6 1   
     9    5    7 1   
    10    6   50 1   
    11    6   51 1   
    12    6   52 1   
    13    7    8 ar  
    14    7   22 ar  
    15    8    9 ar  
    16    8   53 1   
    17    9   10 1   
    18    9   24 ar  
    19   10   11 2   
    20   10   12 1   
    21   12   13 1   
    22   12   54 1   
    23   13   14 1   
    24   13   15 1   
    25   13   55 1   
    26   14   56 1   
    27   14   57 1   
    28   14   58 1   
    29   15   16 ar  
    30   15   18 ar  
    31   16   17 ar  
    32   16   59 1   
    33   17   20 ar  
    34   17   60 1   
    35   18   19 ar  
    36   18   61 1   
    37   19   20 ar  
    38   19   62 1   
    39   20   21 1   
    40   22   23 ar  
    41   22   63 1   
    42   23   24 ar  
    43   23   25 1   
    44   24   64 1   
    45   25   26 2   
    46   25   27 1   
    47   27   28 1   
    48   27   65 1   
    49   28   29 1   
    50   28   36 1   
    51   28   66 1   
    52   29   30 1   
    53   29   67 1   
    54   29   68 1   
    55   30   31 ar  
    56   30   35 ar  
    57   31   32 ar  
    58   31   69 1   
    59   32   33 ar  
    60   32   70 1   
    61   33   34 ar  
    62   33   71 1   
    63   34   35 ar  
    64   34   72 1   
    65   35   73 1   
    66   36   37 1   
    67   36   74 1   
    68   36   75 1   
    69   37   38 1   
    70   37   76 1   
    71   38   39 1   
    72   38   40 1   
    73   38   77 1   
    74   39   78 1   
    75   39   79 1   
    76   39   80 1   
    77   40   41 2   
    78   40   42 1   
    79   42   43 1   
    80   42   81 1   
    81   43   44 1   
    82   43   82 1   
    83   43   83 1   
    84   44   45 1   
    85   44   46 1   
    86   44   84 1   
    87   45   85 1   
    88   45   86 1   
    89   45   87 1   
    90   46   88 1   
    91   46   89 1   
    92   46   90 1   
@<TRIPOS>SUBSTRUCTURE
     1 IXS         1 TEMP              0 ****  ****    0 ROOT
