@<TRIPOS>MOLECULE
IXV
   59    62     1     0     0
SMALL
bcc


@<TRIPOS>ATOM
      1 O1         -0.0820   -0.4500    0.1220 o         1 IXV     -0.553100
      2 C18         1.1520   -0.3500    0.2270 c         1 IXV      0.664100
      3 C19         1.9170   -0.4300    1.5240 c3        1 IXV     -0.152400
      4 C20         0.9580   -0.1900    2.6960 c3        1 IXV      0.184800
      5 N2          1.6550   -0.1700    3.9620 nu        1 IXV     -0.720600
      6 C21         0.8730   -0.0300    5.1320 ca        1 IXV      0.118600
      7 C23         1.4420   -0.3850    6.3790 ca        1 IXV     -0.175000
      8 C25         0.7380   -0.1690    7.5580 ca        1 IXV     -0.096500
      9 C26        -0.5390    0.3900    7.5320 ca        1 IXV     -0.152000
     10 C24        -1.1120    0.7320    6.3100 ca        1 IXV     -0.096500
     11 C22        -0.4240    0.5240    5.1170 ca        1 IXV     -0.175000
     12 N1          1.9080   -0.1660   -0.9490 ns        1 IXV     -0.442100
     13 C2          1.3250   -0.0850   -2.1880 cc        1 IXV      0.122500
     14 S          -0.3340   -0.2230   -2.4550 ss        1 IXV      0.275200
     15 C3          2.0190    0.1260   -3.4170 cd        1 IXV     -0.327600
     16 C1          1.0930    0.1460   -4.5250 cd        1 IXV     -0.008000
     17 C4          1.4480    0.3190   -5.9280 ca        1 IXV     -0.095000
     18 C6          1.7850   -0.7950   -6.7120 ca        1 IXV     -0.139500
     19 C8          2.0640   -0.6350   -8.0690 ca        1 IXV     -0.123500
     20 C9          2.0090    0.6320   -8.6520 ca        1 IXV     -0.108000
     21 C7          1.6730    1.7420   -7.8760 ca        1 IXV     -0.123500
     22 C5          1.3930    1.5900   -6.5180 ca        1 IXV     -0.139500
     23 C          -0.2010   -0.0330   -4.0960 cc        1 IXV     -0.217100
     24 C10         3.4400    0.2910   -3.4700 c         1 IXV      0.603700
     25 O           4.2520    0.2210   -2.5440 o         1 IXV     -0.516100
     26 N           4.0230    0.5840   -4.8380 ny        1 IXV     -0.668800
     27 C11         5.4970    0.8550   -4.8600 c3        1 IXV      0.174100
     28 C12         5.8030    2.3060   -4.7070 ca        1 IXV     -0.179300
     29 C14         5.9190    3.1200   -5.8390 ca        1 IXV     -0.099000
     30 C16         6.2530    4.4650   -5.6950 ca        1 IXV     -0.123500
     31 C17         6.4720    5.0000   -4.4240 ca        1 IXV     -0.083000
     32 C15         6.3570    4.1880   -3.2940 ca        1 IXV     -0.123500
     33 C13         6.0220    2.8420   -3.4320 ca        1 IXV     -0.099000
     34 H1          2.3790   -1.4510    1.5930 hc        1 IXV      0.088200
     35 H2          2.7440    0.3290    1.5420 hc        1 IXV      0.088200
     36 H3          0.4670    0.8150    2.5530 h1        1 IXV      0.060200
     37 H4          0.1430   -0.9720    2.6580 h1        1 IXV      0.060200
     38 H5          2.3180   -0.9150    4.0450 hn        1 IXV      0.385800
     39 H6          2.4490   -0.8250    6.4260 ha        1 IXV      0.131000
     40 H7          1.1970   -0.4450    8.5200 ha        1 IXV      0.137000
     41 H8         -1.0900    0.5560    8.4690 ha        1 IXV      0.140000
     42 H9         -2.1220    1.1700    6.2800 ha        1 IXV      0.137000
     43 H10        -0.9080    0.8030    4.1700 ha        1 IXV      0.131000
     44 H11         2.9020   -0.0810   -0.8810 hn        1 IXV      0.356500
     45 H12         1.7890   -1.8010   -6.2640 ha        1 IXV      0.151000
     46 H13         2.3090   -1.5150   -8.6850 ha        1 IXV      0.156500
     47 H14         2.2140    0.7530   -9.7280 ha        1 IXV      0.158000
     48 H15         1.6100    2.7400   -8.3390 ha        1 IXV      0.156500
     49 H16         1.0940    2.4630   -5.9170 ha        1 IXV      0.151000
     50 H17        -1.0710   -0.0540   -4.7600 h4        1 IXV      0.204000
     51 H18         3.8100   -0.2240   -5.4390 hn        1 IXV      0.464300
     52 H19         5.9800    0.2590   -4.0300 hx        1 IXV      0.110700
     53 H20         5.8850    0.4770   -5.8500 hx        1 IXV      0.110700
     54 H21         5.7650    2.7000   -6.8450 ha        1 IXV      0.142500
     55 H22         6.3520    5.1050   -6.5860 ha        1 IXV      0.155500
     56 H23         6.7420    6.0620   -4.3130 ha        1 IXV      0.157000
     57 H24         6.5360    4.6090   -2.2920 ha        1 IXV      0.155500
     58 H25         5.9360    2.1960   -2.5430 ha        1 IXV      0.142500
     59 HN3         3.5200    1.3990   -5.2210 hn        1 IXV      0.464300
@<TRIPOS>BOND
     1    1    2 2   
     2    2    3 1   
     3    2   12 1   
     4    3    4 1   
     5    3   34 1   
     6    3   35 1   
     7    4    5 1   
     8    4   36 1   
     9    4   37 1   
    10    5    6 1   
    11    5   38 1   
    12    6    7 ar  
    13    6   11 ar  
    14    7    8 ar  
    15    7   39 1   
    16    8    9 ar  
    17    8   40 1   
    18    9   10 ar  
    19    9   41 1   
    20   10   11 ar  
    21   10   42 1   
    22   11   43 1   
    23   12   13 1   
    24   12   44 1   
    25   13   14 1   
    26   13   15 2   
    27   14   23 1   
    28   15   16 1   
    29   15   24 1   
    30   16   17 1   
    31   16   23 2   
    32   17   18 ar  
    33   17   22 ar  
    34   18   19 ar  
    35   18   45 1   
    36   19   20 ar  
    37   19   46 1   
    38   20   21 ar  
    39   20   47 1   
    40   21   22 ar  
    41   21   48 1   
    42   22   49 1   
    43   23   50 1   
    44   24   25 2   
    45   24   26 1   
    46   26   27 1   
    47   26   51 1   
    48   26   59 1   
    49   27   28 1   
    50   27   52 1   
    51   27   53 1   
    52   28   29 ar  
    53   28   33 ar  
    54   29   30 ar  
    55   29   54 1   
    56   30   31 ar  
    57   30   55 1   
    58   31   32 ar  
    59   31   56 1   
    60   32   33 ar  
    61   32   57 1   
    62   33   58 1   
@<TRIPOS>SUBSTRUCTURE
     1 IXV         1 TEMP              0 ****  ****    0 ROOT
