@<TRIPOS>MOLECULE
IXV
   59    62     1     0     0
SMALL
bcc


@<TRIPOS>ATOM
      1 O1         -0.0970   -0.4130    0.1250 o         1 IXV     -0.553100
      2 C18         1.1390   -0.3340    0.2250 c         1 IXV      0.664100
      3 C19         1.9060   -0.4320    1.5190 c3        1 IXV     -0.152400
      4 C20         0.9550   -0.1860    2.6960 c3        1 IXV      0.184800
      5 N2          1.6560   -0.1840    3.9600 nh        1 IXV     -0.720600
      6 C21         0.8810   -0.0400    5.1330 ca        1 IXV      0.118600
      7 C23         1.4480   -0.4120    6.3760 ca        1 IXV     -0.175000
      8 C25         0.7510   -0.1930    7.5590 ca        1 IXV     -0.096500
      9 C26        -0.5180    0.3850    7.5400 ca        1 IXV     -0.152000
     10 C24        -1.0890    0.7450    6.3220 ca        1 IXV     -0.096500
     11 C22        -0.4070    0.5340    5.1260 ca        1 IXV     -0.175000
     12 N1          1.8940   -0.1570   -0.9520 n         1 IXV     -0.442100
     13 C2          1.3080   -0.0610   -2.1890 cc        1 IXV      0.122500
     14 S          -0.3530   -0.1700   -2.4510 ss        1 IXV      0.275200
     15 C3          2.0010    0.1440   -3.4200 cd        1 IXV     -0.327600
     16 C1          1.0720    0.1850   -4.5240 cd        1 IXV     -0.008000
     17 C4          1.4260    0.3570   -5.9280 ca        1 IXV     -0.095000
     18 C6          1.7430   -0.7580   -6.7170 ca        1 IXV     -0.139500
     19 C8          2.0200   -0.5970   -8.0740 ca        1 IXV     -0.123500
     20 C9          1.9830    0.6730   -8.6520 ca        1 IXV     -0.108000
     21 C7          1.6680    1.7850   -7.8700 ca        1 IXV     -0.123500
     22 C5          1.3890    1.6310   -6.5130 ca        1 IXV     -0.139500
     23 C          -0.2230    0.0250   -4.0920 cc        1 IXV     -0.217100
     24 C10         3.4250    0.2850   -3.4760 c         1 IXV      0.603700
     25 O           4.2390    0.1970   -2.5530 o         1 IXV     -0.516100
     26 N           4.0090    0.5760   -4.8450 n4        1 IXV     -0.668800
     27 C11         5.4870    0.8230   -4.8700 c3        1 IXV      0.174100
     28 C12         5.8160    2.2680   -4.7110 ca        1 IXV     -0.179300
     29 C14         5.9410    3.0870   -5.8400 ca        1 IXV     -0.099000
     30 C16         6.2970    4.4250   -5.6900 ca        1 IXV     -0.123500
     31 C17         6.5290    4.9500   -4.4170 ca        1 IXV     -0.083000
     32 C15         6.4040    4.1350   -3.2910 ca        1 IXV     -0.123500
     33 C13         6.0480    2.7950   -3.4340 ca        1 IXV     -0.099000
     34 H1          2.3540   -1.4610    1.5800 hc        1 IXV      0.088700
     35 H2          2.7450    0.3140    1.5390 hc        1 IXV      0.088700
     36 H3          0.1280   -0.9550    2.6560 h1        1 IXV      0.060200
     37 H4          0.4790    0.8280    2.5610 h1        1 IXV      0.060200
     38 H5          2.3090   -0.9400    4.0360 hn        1 IXV      0.384800
     39 H6          2.4480   -0.8680    6.4160 ha        1 IXV      0.131000
     40 H7          1.2090   -0.4820    8.5180 ha        1 IXV      0.137000
     41 H8         -1.0620    0.5540    8.4800 ha        1 IXV      0.140000
     42 H9         -2.0910    1.1990    6.2990 ha        1 IXV      0.137000
     43 H10        -0.8910    0.8270    4.1830 ha        1 IXV      0.131000
     44 H11         2.8890   -0.0890   -0.8880 hn        1 IXV      0.356500
     45 H12         1.7320   -1.7660   -6.2740 ha        1 IXV      0.151000
     46 H13         2.2480   -1.4790   -8.6950 ha        1 IXV      0.156500
     47 H14         2.1870    0.7940   -9.7280 ha        1 IXV      0.158000
     48 H15         1.6190    2.7850   -8.3290 ha        1 IXV      0.156500
     49 H16         1.1070    2.5060   -5.9060 ha        1 IXV      0.151000
     50 H17        -1.0950    0.0220   -4.7530 h4        1 IXV      0.204000
     51 H18         3.7800   -0.2260   -5.4490 hn        1 IXV      0.464300
     52 H19         5.8650    0.4440   -5.8640 hx        1 IXV      0.110700
     53 H20         5.9630    0.2150   -4.0450 hx        1 IXV      0.110700
     54 H21         5.7770    2.6730   -6.8470 ha        1 IXV      0.142500
     55 H22         6.4030    5.0680   -6.5780 ha        1 IXV      0.155500
     56 H23         6.8160    6.0080   -4.3020 ha        1 IXV      0.157000
     57 H24         6.5940    4.5470   -2.2870 ha        1 IXV      0.155500
     58 H25         5.9540    2.1460   -2.5480 ha        1 IXV      0.142500
     59 HN3         3.5170    1.4010   -5.2220 hn        1 IXV      0.464300
@<TRIPOS>BOND
     1    1    2 2   
     2    2    3 1   
     3    2   12 1   
     4    3    4 1   
     5    3   34 1   
     6    3   35 1   
     7    4    5 1   
     8    4   36 1   
     9    4   37 1   
    10    5    6 1   
    11    5   38 1   
    12    6    7 ar  
    13    6   11 ar  
    14    7    8 ar  
    15    7   39 1   
    16    8    9 ar  
    17    8   40 1   
    18    9   10 ar  
    19    9   41 1   
    20   10   11 ar  
    21   10   42 1   
    22   11   43 1   
    23   12   13 1   
    24   12   44 1   
    25   13   14 1   
    26   13   15 2   
    27   14   23 1   
    28   15   16 1   
    29   15   24 1   
    30   16   17 1   
    31   16   23 2   
    32   17   18 ar  
    33   17   22 ar  
    34   18   19 ar  
    35   18   45 1   
    36   19   20 ar  
    37   19   46 1   
    38   20   21 ar  
    39   20   47 1   
    40   21   22 ar  
    41   21   48 1   
    42   22   49 1   
    43   23   50 1   
    44   24   25 2   
    45   24   26 1   
    46   26   27 1   
    47   26   51 1   
    48   26   59 1   
    49   27   28 1   
    50   27   52 1   
    51   27   53 1   
    52   28   29 ar  
    53   28   33 ar  
    54   29   30 ar  
    55   29   54 1   
    56   30   31 ar  
    57   30   55 1   
    58   31   32 ar  
    59   31   56 1   
    60   32   33 ar  
    61   32   57 1   
    62   33   58 1   
@<TRIPOS>SUBSTRUCTURE
     1 IXV         1 TEMP              0 ****  ****    0 ROOT
