@<TRIPOS>MOLECULE
IXW
   19    19     1     0     0
SMALL
bcc


@<TRIPOS>ATOM
      1 O2         -0.2080    0.4460    0.1330 o         1 IXW     -0.542000
      2 C3          1.0050    0.2710    0.0020 c         1 IXW      0.637100
      3 O1          1.7600    0.0540    1.1190 os        1 IXW     -0.441900
      4 C2          1.0580    0.0400    2.3760 c3        1 IXW      0.139400
      5 C1          2.0980   -0.2280    3.4360 c3        1 IXW     -0.101100
      6 C4          1.8280    0.2810   -1.2500 c3        1 IXW     -0.128400
      7 C5          1.0020   -0.0600   -2.4540 cx        1 IXW      0.061100
      8 O3          1.3650   -1.2780   -3.1300 os        1 IXW     -0.401600
      9 C6          1.6180   -0.0400   -3.8080 cx        1 IXW      0.055400
     10 H1          0.5570    1.0330    2.5180 h1        1 IXW      0.052700
     11 H2          0.2760   -0.7630    2.3410 h1        1 IXW      0.052700
     12 H3          2.6000   -1.2080    3.2550 hc        1 IXW      0.048700
     13 H4          1.6000   -0.2510    4.4350 hc        1 IXW      0.048700
     14 H5          2.8760    0.5720    3.4340 hc        1 IXW      0.048700
     15 H6          2.2540    1.3150   -1.3650 hc        1 IXW      0.094200
     16 H7          2.6840   -0.4380   -1.1400 hc        1 IXW      0.094200
     17 H8         -0.0920    0.0800   -2.3270 h1        1 IXW      0.120700
     18 H9          2.6890    0.2010   -3.9360 h1        1 IXW      0.080700
     19 H10         0.9970    0.1300   -4.7060 h1        1 IXW      0.080700
@<TRIPOS>BOND
     1    1    2 2   
     2    2    3 1   
     3    2    6 1   
     4    3    4 1   
     5    4    5 1   
     6    4   10 1   
     7    4   11 1   
     8    5   12 1   
     9    5   13 1   
    10    5   14 1   
    11    6    7 1   
    12    6   15 1   
    13    6   16 1   
    14    7    8 1   
    15    7    9 1   
    16    7   17 1   
    17    8    9 1   
    18    9   18 1   
    19    9   19 1   
@<TRIPOS>SUBSTRUCTURE
     1 IXW         1 TEMP              0 ****  ****    0 ROOT
