@<TRIPOS>MOLECULE
IXW
   19    19     1     0     0
SMALL
bcc


@<TRIPOS>ATOM
      1 O2         -0.4820   -1.4860   -0.6430 o         1 IXW     -0.542000
      2 C3         -0.4120   -0.2810   -0.3910 c         1 IXW      0.637100
      3 O1         -1.5570    0.3860   -0.0600 os        1 IXW     -0.441900
      4 C2         -2.7680   -0.3940   -0.0260 c3        1 IXW      0.139400
      5 C1         -3.8700    0.5570    0.3720 c3        1 IXW     -0.101100
      6 C4          0.7860    0.6180   -0.4130 c3        1 IXW     -0.128400
      7 C5          2.0550   -0.1510   -0.1980 cx        1 IXW      0.061100
      8 O3          2.7790    0.1710    1.0040 os        1 IXW     -0.401600
      9 C6          3.3660    0.5490   -0.2490 cx        1 IXW      0.055400
     10 H1         -2.9390   -0.8350   -1.0420 h1        1 IXW      0.052700
     11 H2         -2.6380   -1.2230    0.7170 h1        1 IXW      0.052700
     12 H3         -4.8340   -0.0030    0.4160 hc        1 IXW      0.048700
     13 H4         -3.6600    1.0040    1.3740 hc        1 IXW      0.048700
     14 H5         -3.9610    1.3860   -0.3690 hc        1 IXW      0.048700
     15 H6          0.8140    1.1190   -1.4190 hc        1 IXW      0.094200
     16 H7          0.6680    1.4160    0.3700 hc        1 IXW      0.094200
     17 H8          1.9850   -1.2400   -0.4080 h1        1 IXW      0.120700
     18 H9          4.2880   -0.0020   -0.5120 h1        1 IXW      0.080700
     19 H10         3.4160    1.6400   -0.4210 h1        1 IXW      0.080700
@<TRIPOS>BOND
     1    1    2 2   
     2    2    3 1   
     3    2    6 1   
     4    3    4 1   
     5    4    5 1   
     6    4   10 1   
     7    4   11 1   
     8    5   12 1   
     9    5   13 1   
    10    5   14 1   
    11    6    7 1   
    12    6   15 1   
    13    6   16 1   
    14    7    8 1   
    15    7    9 1   
    16    7   17 1   
    17    8    9 1   
    18    9   18 1   
    19    9   19 1   
@<TRIPOS>SUBSTRUCTURE
     1 IXW         1 TEMP              0 ****  ****    0 ROOT
