@<TRIPOS>MOLECULE
IXW
   19    18     1     0     0
SMALL
bcc


@<TRIPOS>ATOM
      1 O2         -1.4840    0.5120    0.0030 o         1 IXW     -0.352000
      2 C3         -0.3820   -0.0090    0.0050 c1        1 IXW      0.307000
      3 O1          0.2930   -0.2350    1.2300 o         1 IXW     -0.281000
      4 C2         -0.5280   -0.0800    2.3760 c3        1 IXW     -0.012000
      5 C1          0.3000   -0.3350    3.6350 c3        1 IXW     -0.219000
      6 C4          0.2590   -0.4440   -1.3110 c3        1 IXW     -0.155000
      7 C5          0.1340    0.6860   -2.3380 cx        1 IXW     -0.048000
      8 O3         -1.0090    0.5840   -3.2660 os        1 IXW     -0.259000
      9 C6          0.3680    0.3090   -3.7210 cx        1 IXW     -0.093000
     10 H1         -1.2710   -0.7220    2.3360 h1        1 IXW      0.092000
     11 H2         -0.8870    0.8350    2.4000 h1        1 IXW      0.092000
     12 H3          1.0130    0.3380    3.7010 hc        1 IXW      0.088333
     13 H4         -0.2800   -0.2760    4.4260 hc        1 IXW      0.088333
     14 H5          0.7000   -1.2320    3.5880 hc        1 IXW      0.088333
     15 H6          1.2080   -0.6470   -1.1620 hc        1 IXW      0.133500
     16 H7         -0.1990   -1.2450   -1.6490 hc        1 IXW      0.133500
     17 H8          0.4040    1.5980   -2.0940 h1        1 IXW      0.155000
     18 H9          0.7750    1.0000   -4.2870 h1        1 IXW      0.120500
     19 H10         0.5850   -0.6360   -3.8730 h1        1 IXW      0.120500
@<TRIPOS>BOND
     1    1    2 1   
     2    2    6 1   
     3    3    4 1   
     4    4    5 1   
     5    4   10 1   
     6    4   11 1   
     7    5   12 1   
     8    5   13 1   
     9    5   14 1   
    10    6    7 1   
    11    6   15 1   
    12    6   16 1   
    13    7    8 1   
    14    7    9 1   
    15    7   17 1   
    16    8    9 1   
    17    9   18 1   
    18    9   19 1   
@<TRIPOS>SUBSTRUCTURE
     1 IXW         1 TEMP              0 ****  ****    0 ROOT
