@<TRIPOS>MOLECULE
IXW
   19    19     1     0     0
SMALL
bcc


@<TRIPOS>ATOM
      1 O2         -0.2010    0.4710    0.1310 o         1 IXW     -0.542000
      2 C3          1.0100    0.2750    0.0010 c         1 IXW      0.637100
      3 O1          1.7590    0.0460    1.1200 os        1 IXW     -0.441900
      4 C2          1.0540    0.0450    2.3760 c3        1 IXW      0.139400
      5 C1          2.0880   -0.2390    3.4380 c3        1 IXW     -0.101100
      6 C4          1.8350    0.2710   -1.2490 c3        1 IXW     -0.128400
      7 C5          1.0040   -0.0510   -2.4550 cx        1 IXW      0.061100
      8 O3          1.3460   -1.2730   -3.1350 os        1 IXW     -0.401600
      9 C6          1.6220   -0.0370   -3.8080 cx        1 IXW      0.055400
     10 H1          0.5700    1.0460    2.5160 h1        1 IXW      0.052700
     11 H2          0.2600   -0.7460    2.3400 h1        1 IXW      0.052700
     12 H3          1.5880   -0.2530    4.4360 hc        1 IXW      0.048700
     13 H4          2.5750   -1.2270    3.2590 hc        1 IXW      0.048700
     14 H5          2.8800    0.5480    3.4360 hc        1 IXW      0.048700
     15 H6          2.6760   -0.4660   -1.1390 hc        1 IXW      0.094200
     16 H7          2.2830    1.2960   -1.3610 hc        1 IXW      0.094200
     17 H8         -0.0870    0.1090   -2.3290 h1        1 IXW      0.120700
     18 H9          2.6980    0.1860   -3.9340 h1        1 IXW      0.080700
     19 H10         1.0050    0.1480   -4.7070 h1        1 IXW      0.080700
@<TRIPOS>BOND
     1    1    2 2   
     2    2    3 1   
     3    2    6 1   
     4    3    4 1   
     5    4    5 1   
     6    4   10 1   
     7    4   11 1   
     8    5   12 1   
     9    5   13 1   
    10    5   14 1   
    11    6    7 1   
    12    6   15 1   
    13    6   16 1   
    14    7    8 1   
    15    7    9 1   
    16    7   17 1   
    17    8    9 1   
    18    9   18 1   
    19    9   19 1   
@<TRIPOS>SUBSTRUCTURE
     1 IXW         1 TEMP              0 ****  ****    0 ROOT
