@<TRIPOS>MOLECULE
IXX
   45    47     1     0     0
SMALL
bcc


@<TRIPOS>ATOM
      1 C11        -1.2150    1.2400   -0.4340 ca        1 IXX      0.159100
      2 C10        -1.2480    2.3580   -1.3150 ca        1 IXX     -0.138000
      3 C9         -1.9160    3.5250   -0.9850 ca        1 IXX     -0.123000
      4 C8         -2.5930    3.6230    0.2310 ca        1 IXX     -0.141000
      5 C7         -2.5850    2.5400    1.0960 ca        1 IXX     -0.119500
      6 C2         -1.4900   -3.4230   -1.4920 ca        1 IXX     -0.123000
      7 C6         -2.0340    0.2830    1.8310 c3        1 IXX     -0.032600
      8 C5         -0.9630   -0.7860    1.8400 c3        1 IXX     -0.032600
      9 N1         -0.5110    0.1080   -0.9080 nh        1 IXX     -0.586400
     10 C3         -1.6890   -3.8930   -0.1950 ca        1 IXX     -0.141000
     11 N2          4.3160    0.4300    0.4260 n3        1 IXX     -0.737600
     12 C4         -1.5120   -3.0330    0.8850 ca        1 IXX     -0.119500
     13 C1         -1.1120   -2.1030   -1.7130 ca        1 IXX     -0.138000
     14 C12        -1.9050    1.3450    0.7950 ca        1 IXX     -0.102300
     15 C13        -1.1290   -1.7040    0.6850 ca        1 IXX     -0.102300
     16 C14        -0.9250   -1.2190   -0.6260 ca        1 IXX      0.159100
     17 C15         0.8910    0.2710   -1.2330 c3        1 IXX      0.222800
     18 C16         1.8760    0.1610   -0.0660 c3        1 IXX     -0.118400
     19 C17         3.2970    0.3020   -0.6070 c3        1 IXX      0.173800
     20 C18         4.3690   -0.6970    1.3290 c3        1 IXX      0.156600
     21 C19         5.6100    0.7650   -0.1280 c3        1 IXX      0.156600
     22 H10        -0.7420    2.2980   -2.2920 ha        1 IXX      0.137500
     23 H9         -1.9190    4.3710   -1.6880 ha        1 IXX      0.131500
     24 H8         -3.1280    4.5450    0.4970 ha        1 IXX      0.132000
     25 H7         -3.1240    2.6130    2.0540 ha        1 IXX      0.129500
     26 H2         -1.6350   -4.0970   -2.3490 ha        1 IXX      0.131500
     27 H61        -3.0390   -0.2080    1.7040 hc        1 IXX      0.052700
     28 H51         0.0560   -0.3110    1.8140 hc        1 IXX      0.052700
     29 H3         -1.9870   -4.9380   -0.0250 ha        1 IXX      0.132000
     30 H4         -1.6710   -3.4010    1.9100 ha        1 IXX      0.129500
     31 H1         -0.9600   -1.7460   -2.7440 ha        1 IXX      0.137500
     32 H151        1.1480   -0.5210   -1.9950 h1        1 IXX      0.051200
     33 H152        1.0270    1.2780   -1.7190 h1        1 IXX      0.051200
     34 H161        1.6670    0.9600    0.6910 hc        1 IXX      0.057200
     35 H162        1.7540   -0.8320    0.4390 hc        1 IXX      0.057200
     36 H171        3.3470    1.2360   -1.2390 h1        1 IXX      0.028700
     37 H172        3.5080   -0.5760   -1.2880 h1        1 IXX      0.028700
     38 H181        5.1840   -0.5280    2.0820 h1        1 IXX      0.031033
     39 H182        3.3920   -0.7690    1.8740 h1        1 IXX      0.031033
     40 H183        4.5620   -1.6750    0.8090 h1        1 IXX      0.031033
     41 H191        6.0270   -0.0350   -0.8000 h1        1 IXX      0.031033
     42 H192        5.5190    1.7140   -0.7190 h1        1 IXX      0.031033
     43 H193        6.3310    0.9350    0.7130 h1        1 IXX      0.031033
     44 H52        -1.0350   -1.3600    2.8030 hc        1 IXX      0.052700
     45 H62        -2.0360    0.7720    2.8460 hc        1 IXX      0.052700
@<TRIPOS>BOND
     1    1    2 ar  
     2    1    9 1   
     3    1   14 ar  
     4    2    3 ar  
     5    2   22 1   
     6    3    4 ar  
     7    3   23 1   
     8    4    5 ar  
     9    4   24 1   
    10    5   14 ar  
    11    5   25 1   
    12    6   10 ar  
    13    6   13 ar  
    14    6   26 1   
    15    7    8 1   
    16    7   14 1   
    17    7   27 1   
    18    7   45 1   
    19    8   15 1   
    20    8   28 1   
    21    8   44 1   
    22    9   16 1   
    23    9   17 1   
    24   10   12 ar  
    25   10   29 1   
    26   11   19 1   
    27   11   20 1   
    28   11   21 1   
    29   12   15 ar  
    30   12   30 1   
    31   13   16 ar  
    32   13   31 1   
    33   15   16 ar  
    34   17   18 1   
    35   17   32 1   
    36   17   33 1   
    37   18   19 1   
    38   18   34 1   
    39   18   35 1   
    40   19   36 1   
    41   19   37 1   
    42   20   38 1   
    43   20   39 1   
    44   20   40 1   
    45   21   41 1   
    46   21   42 1   
    47   21   43 1   
@<TRIPOS>SUBSTRUCTURE
     1 IXX         1 TEMP              0 ****  ****    0 ROOT
