@<TRIPOS>MOLECULE
IXX
   46    48     1     0     0
SMALL
bcc


@<TRIPOS>ATOM
      1 C11         0.1050    0.0550   -0.0130 ca        1 IXX      0.135100
      2 C10         1.5250    0.0920    0.0430 ca        1 IXX     -0.138000
      3 C9          2.2040   -0.0070    1.2470 ca        1 IXX     -0.118000
      4 C8          1.4930   -0.1350    2.4410 ca        1 IXX     -0.125500
      5 C7          0.1070   -0.1500    2.4050 ca        1 IXX     -0.118000
      6 C2         -2.7600    2.6710   -2.8070 ca        1 IXX     -0.118000
      7 C6         -2.0930   -0.0230    1.3590 c3        1 IXX     -0.031100
      8 C5         -2.9220   -0.4180    0.1570 c3        1 IXX     -0.031100
      9 N1         -0.4680    0.1650   -1.3050 nh        1 IXX     -0.583400
     10 C3         -3.9610    2.3930   -2.1540 ca        1 IXX     -0.125500
     11 N2         -1.0680   -4.4160   -3.2990 n4        1 IXX     -0.681400
     12 C4         -4.0120    1.3810   -1.2000 ca        1 IXX     -0.118000
     13 C1         -1.6140    1.9390   -2.5150 ca        1 IXX     -0.138000
     14 C12        -0.6120   -0.0580    1.1980 ca        1 IXX     -0.102300
     15 C13        -2.8720    0.6310   -0.8940 ca        1 IXX     -0.102300
     16 C14        -1.6550    0.9040   -1.5550 ca        1 IXX      0.135100
     17 C15        -0.1150   -0.8210   -2.2860 c3        1 IXX      0.245800
     18 C16        -0.9110   -2.1420   -2.2170 c3        1 IXX     -0.161400
     19 C17        -0.3990   -3.0680   -3.3080 c3        1 IXX      0.110800
     20 C18        -2.4370   -4.3460   -3.8740 c3        1 IXX      0.081600
     21 C19        -0.2450   -5.4160   -4.0280 c3        1 IXX      0.081600
     22 H10         2.1080    0.2290   -0.8820 ha        1 IXX      0.139000
     23 H9          3.3040    0.0300    1.2610 ha        1 IXX      0.143500
     24 H8          2.0260   -0.2090    3.4000 ha        1 IXX      0.145500
     25 H7         -0.4550   -0.2300    3.3500 ha        1 IXX      0.140000
     26 H2         -2.7130    3.4820   -3.5500 ha        1 IXX      0.143500
     27 H61        -2.3770   -0.7040    2.2100 hc        1 IXX      0.051950
     28 H51        -3.9840   -0.5760    0.4920 hc        1 IXX      0.051950
     29 H3         -4.8640    2.9790   -2.3850 ha        1 IXX      0.145500
     30 H4         -4.9560    1.1720   -0.6730 ha        1 IXX      0.140000
     31 H1         -0.6700    2.1790   -3.0290 ha        1 IXX      0.139000
     32 H151       -0.2790   -0.3700   -3.3070 h1        1 IXX      0.059200
     33 H152        0.9790   -1.0700   -2.1750 h1        1 IXX      0.059200
     34 H161       -0.7740   -2.6060   -1.2050 hc        1 IXX      0.073700
     35 H162       -2.0020   -1.9220   -2.3560 hc        1 IXX      0.073700
     36 H171        0.7080   -3.2390   -3.1690 hx        1 IXX      0.102700
     37 H172       -0.5660   -2.6090   -4.3240 hx        1 IXX      0.102700
     38 H181       -3.0370   -3.5790   -3.3140 hx        1 IXX      0.105867
     39 H182       -2.3760   -4.0550   -4.9570 hx        1 IXX      0.105867
     40 H183       -2.9310   -5.3500   -3.7830 hx        1 IXX      0.105867
     41 H191       -0.0870   -5.0720   -5.0840 hx        1 IXX      0.105867
     42 H192        0.7490   -5.5270   -3.5160 hx        1 IXX      0.105867
     43 H193       -0.7780   -6.4050   -4.0310 hx        1 IXX      0.105867
     44 H52        -2.5590   -1.3980   -0.2550 hc        1 IXX      0.051950
     45 H62        -2.3800    1.0210    1.6690 hc        1 IXX      0.051950
     46 H21        -1.1500   -4.7170   -2.3170 hn        1 IXX      0.451800
@<TRIPOS>BOND
     1    1    2 ar  
     2    1    9 1   
     3    1   14 ar  
     4    2    3 ar  
     5    2   22 1   
     6    3    4 ar  
     7    3   23 1   
     8    4    5 ar  
     9    4   24 1   
    10    5   14 ar  
    11    5   25 1   
    12    6   10 ar  
    13    6   13 ar  
    14    6   26 1   
    15    7    8 1   
    16    7   14 1   
    17    7   27 1   
    18    7   45 1   
    19    8   15 1   
    20    8   28 1   
    21    8   44 1   
    22    9   16 1   
    23    9   17 1   
    24   10   12 ar  
    25   10   29 1   
    26   11   19 1   
    27   11   20 1   
    28   11   21 1   
    29   11   46 1   
    30   12   15 ar  
    31   12   30 1   
    32   13   16 ar  
    33   13   31 1   
    34   15   16 ar  
    35   17   18 1   
    36   17   32 1   
    37   17   33 1   
    38   18   19 1   
    39   18   34 1   
    40   18   35 1   
    41   19   36 1   
    42   19   37 1   
    43   20   38 1   
    44   20   39 1   
    45   20   40 1   
    46   21   41 1   
    47   21   42 1   
    48   21   43 1   
@<TRIPOS>SUBSTRUCTURE
     1 IXX         1 TEMP              0 ****  ****    0 ROOT
