@<TRIPOS>MOLECULE
IXX
   46    48     1     0     0
SMALL
bcc


@<TRIPOS>ATOM
      1 C11         0.1050    0.0540   -0.0140 ca        1 IXX      0.135100
      2 C10         1.5250    0.0890    0.0430 ca        1 IXX     -0.138000
      3 C9          2.2040   -0.0110    1.2470 ca        1 IXX     -0.118000
      4 C8          1.4920   -0.1380    2.4400 ca        1 IXX     -0.125500
      5 C7          0.1060   -0.1510    2.4050 ca        1 IXX     -0.118000
      6 C2         -2.7550    2.6750   -2.8080 ca        1 IXX     -0.118000
      7 C6         -2.0930   -0.0210    1.3570 c3        1 IXX     -0.031100
      8 C5         -2.9230   -0.4150    0.1550 c3        1 IXX     -0.031100
      9 N1         -0.4680    0.1650   -1.3060 nh        1 IXX     -0.583400
     10 C3         -3.9560    2.3990   -2.1560 ca        1 IXX     -0.125500
     11 N2         -1.0700   -4.4180   -3.2960 n4        1 IXX     -0.681400
     12 C4         -4.0090    1.3860   -1.2020 ca        1 IXX     -0.118000
     13 C1         -1.6100    1.9400   -2.5160 ca        1 IXX     -0.138000
     14 C12        -0.6130   -0.0580    1.1970 ca        1 IXX     -0.102300
     15 C13        -2.8710    0.6340   -0.8960 ca        1 IXX     -0.102300
     16 C14        -1.6530    0.9060   -1.5560 ca        1 IXX      0.135100
     17 C15        -0.1160   -0.8220   -2.2870 c3        1 IXX      0.245800
     18 C16        -0.9120   -2.1430   -2.2180 c3        1 IXX     -0.161400
     19 C17        -0.4010   -3.0690   -3.3080 c3        1 IXX      0.110800
     20 C18        -2.4380   -4.3480   -3.8710 c3        1 IXX      0.081600
     21 C19        -0.2470   -5.4180   -4.0240 c3        1 IXX      0.081600
     22 H10         2.1080    0.2250   -0.8820 ha        1 IXX      0.139000
     23 H9          3.3040    0.0250    1.2610 ha        1 IXX      0.143500
     24 H8          2.0250   -0.2130    3.4000 ha        1 IXX      0.145500
     25 H7         -0.4570   -0.2310    3.3490 ha        1 IXX      0.140000
     26 H2         -2.7060    3.4860   -3.5510 ha        1 IXX      0.143500
     27 H61        -2.3780   -0.7030    2.2080 hc        1 IXX      0.051950
     28 H51        -2.5610   -1.3950   -0.2570 hc        1 IXX      0.051950
     29 H3         -4.8580    2.9860   -2.3870 ha        1 IXX      0.145500
     30 H4         -4.9540    1.1790   -0.6760 ha        1 IXX      0.140000
     31 H1         -0.6650    2.1800   -3.0290 ha        1 IXX      0.139000
     32 H151       -0.2790   -0.3710   -3.3080 h1        1 IXX      0.059200
     33 H152        0.9780   -1.0710   -2.1760 h1        1 IXX      0.059200
     34 H161       -0.7760   -2.6050   -1.2050 hc        1 IXX      0.073700
     35 H162       -2.0030   -1.9220   -2.3570 hc        1 IXX      0.073700
     36 H171       -0.5690   -2.6110   -4.3240 hx        1 IXX      0.102700
     37 H172        0.7060   -3.2400   -3.1680 hx        1 IXX      0.102700
     38 H181       -2.3780   -4.0600   -4.9540 hx        1 IXX      0.105867
     39 H182       -3.0380   -3.5800   -3.3120 hx        1 IXX      0.105867
     40 H183       -2.9320   -5.3530   -3.7780 hx        1 IXX      0.105867
     41 H191        0.7470   -5.5280   -3.5130 hx        1 IXX      0.105867
     42 H192       -0.0890   -5.0750   -5.0820 hx        1 IXX      0.105867
     43 H193       -0.7790   -6.4070   -4.0260 hx        1 IXX      0.105867
     44 H52        -3.9850   -0.5710    0.4890 hc        1 IXX      0.051950
     45 H62        -2.3790    1.0230    1.6680 hc        1 IXX      0.051950
     46 H21        -1.1510   -4.7170   -2.3140 hn        1 IXX      0.451800
@<TRIPOS>BOND
     1    1    2 ar  
     2    1    9 1   
     3    1   14 ar  
     4    2    3 ar  
     5    2   22 1   
     6    3    4 ar  
     7    3   23 1   
     8    4    5 ar  
     9    4   24 1   
    10    5   14 ar  
    11    5   25 1   
    12    6   10 ar  
    13    6   13 ar  
    14    6   26 1   
    15    7    8 1   
    16    7   14 1   
    17    7   27 1   
    18    7   45 1   
    19    8   15 1   
    20    8   28 1   
    21    8   44 1   
    22    9   16 1   
    23    9   17 1   
    24   10   12 ar  
    25   10   29 1   
    26   11   19 1   
    27   11   20 1   
    28   11   21 1   
    29   11   46 1   
    30   12   15 ar  
    31   12   30 1   
    32   13   16 ar  
    33   13   31 1   
    34   15   16 ar  
    35   17   18 1   
    36   17   32 1   
    37   17   33 1   
    38   18   19 1   
    39   18   34 1   
    40   18   35 1   
    41   19   36 1   
    42   19   37 1   
    43   20   38 1   
    44   20   39 1   
    45   20   40 1   
    46   21   41 1   
    47   21   42 1   
    48   21   43 1   
@<TRIPOS>SUBSTRUCTURE
     1 IXX         1 TEMP              0 ****  ****    0 ROOT
