@<TRIPOS>MOLECULE
IXX
   46    48     1     0     0
SMALL
bcc


@<TRIPOS>ATOM
      1 C11         0.1050    0.0560   -0.0180 ca        1 IXX      0.135100
      2 C10         1.5250    0.0930    0.0370 ca        1 IXX     -0.138000
      3 C9          2.2060   -0.0040    1.2400 ca        1 IXX     -0.118000
      4 C8          1.4950   -0.1310    2.4350 ca        1 IXX     -0.125500
      5 C7          0.1090   -0.1460    2.4010 ca        1 IXX     -0.118000
      6 C2         -2.7630    2.6680   -2.8120 ca        1 IXX     -0.118000
      7 C6         -2.0910   -0.0210    1.3560 c3        1 IXX     -0.031100
      8 C5         -2.9220   -0.4180    0.1550 c3        1 IXX     -0.031100
      9 N1         -0.4690    0.1640   -1.3100 nh        1 IXX     -0.583400
     10 C3         -3.9630    2.3910   -2.1580 ca        1 IXX     -0.125500
     11 N2         -1.0690   -4.4210   -3.2950 nx        1 IXX     -0.681400
     12 C4         -4.0130    1.3790   -1.2030 ca        1 IXX     -0.118000
     13 C1         -1.6160    1.9360   -2.5210 ca        1 IXX     -0.138000
     14 C12        -0.6110   -0.0560    1.1940 ca        1 IXX     -0.102300
     15 C13        -2.8730    0.6300   -0.8960 ca        1 IXX     -0.102300
     16 C14        -1.6560    0.9030   -1.5590 ca        1 IXX      0.135100
     17 C15        -0.1170   -0.8230   -2.2890 c3        1 IXX      0.245800
     18 C16        -0.9120   -2.1450   -2.2180 c3        1 IXX     -0.161400
     19 C17        -0.4010   -3.0720   -3.3080 c3        1 IXX      0.110800
     20 C18        -2.4380   -4.3530   -3.8680 c3        1 IXX      0.081600
     21 C19        -0.2460   -5.4210   -4.0240 c3        1 IXX      0.081600
     22 H10         2.1070    0.2280   -0.8890 ha        1 IXX      0.139000
     23 H9          3.3060    0.0330    1.2530 ha        1 IXX      0.143500
     24 H8          2.0300   -0.2040    3.3940 ha        1 IXX      0.145500
     25 H7         -0.4520   -0.2250    3.3460 ha        1 IXX      0.140000
     26 H2         -2.7160    3.4780   -3.5560 ha        1 IXX      0.143500
     27 H61        -2.3780    1.0240    1.6650 hc        1 IXX      0.051950
     28 H51        -2.5590   -1.3980   -0.2560 hc        1 IXX      0.051950
     29 H3         -4.8660    2.9760   -2.3880 ha        1 IXX      0.145500
     30 H4         -4.9570    1.1710   -0.6750 ha        1 IXX      0.140000
     31 H1         -0.6730    2.1760   -3.0350 ha        1 IXX      0.139000
     32 H151       -0.2820   -0.3730   -3.3110 h1        1 IXX      0.059200
     33 H152        0.9770   -1.0710   -2.1790 h1        1 IXX      0.059200
     34 H161       -2.0030   -1.9260   -2.3560 hc        1 IXX      0.073700
     35 H162       -0.7740   -2.6070   -1.2050 hc        1 IXX      0.073700
     36 H171       -0.5700   -2.6150   -4.3240 hx        1 IXX      0.102700
     37 H172        0.7060   -3.2420   -3.1700 hx        1 IXX      0.102700
     38 H181       -2.9310   -5.3580   -3.7750 hx        1 IXX      0.105867
     39 H182       -3.0380   -3.5850   -3.3080 hx        1 IXX      0.105867
     40 H183       -2.3800   -4.0640   -4.9510 hx        1 IXX      0.105867
     41 H191        0.7490   -5.5300   -3.5140 hx        1 IXX      0.105867
     42 H192       -0.0900   -5.0790   -5.0810 hx        1 IXX      0.105867
     43 H193       -0.7780   -6.4110   -4.0240 hx        1 IXX      0.105867
     44 H52        -3.9830   -0.5750    0.4920 hc        1 IXX      0.051950
     45 H62        -2.3740   -0.7010    2.2080 hc        1 IXX      0.051950
     46 H21        -1.1490   -4.7200   -2.3130 hn        1 IXX      0.451800
@<TRIPOS>BOND
     1    1    2 ar  
     2    1    9 1   
     3    1   14 ar  
     4    2    3 ar  
     5    2   22 1   
     6    3    4 ar  
     7    3   23 1   
     8    4    5 ar  
     9    4   24 1   
    10    5   14 ar  
    11    5   25 1   
    12    6   10 ar  
    13    6   13 ar  
    14    6   26 1   
    15    7    8 1   
    16    7   14 1   
    17    7   27 1   
    18    7   45 1   
    19    8   15 1   
    20    8   28 1   
    21    8   44 1   
    22    9   16 1   
    23    9   17 1   
    24   10   12 ar  
    25   10   29 1   
    26   11   19 1   
    27   11   20 1   
    28   11   21 1   
    29   11   46 1   
    30   12   15 ar  
    31   12   30 1   
    32   13   16 ar  
    33   13   31 1   
    34   15   16 ar  
    35   17   18 1   
    36   17   32 1   
    37   17   33 1   
    38   18   19 1   
    39   18   34 1   
    40   18   35 1   
    41   19   36 1   
    42   19   37 1   
    43   20   38 1   
    44   20   39 1   
    45   20   40 1   
    46   21   41 1   
    47   21   42 1   
    48   21   43 1   
@<TRIPOS>SUBSTRUCTURE
     1 IXX         1 TEMP              0 ****  ****    0 ROOT
