@<TRIPOS>MOLECULE
IXX
   45    42     1     0     0
SMALL
bcc


@<TRIPOS>ATOM
      1 C11         0.5180    1.2100    1.3690 c1        1 IXX      0.081000
      2 C10         1.9560    1.1050    1.4100 c1        1 IXX     -0.175000
      3 C9          2.6020    0.9720    2.6220 c1        1 IXX     -0.130250
      4 C8          1.8480    0.9370    3.8330 c1        1 IXX     -0.130250
      5 C7          0.4410    1.0400    3.7900 c1        1 IXX     -0.120000
      6 C2         -1.2390    3.2540   -2.4170 c1        1 IXX     -0.130250
      7 C6         -1.5360    2.0320    2.4220 c3        1 IXX     -0.109000
      8 C5         -2.4270    1.4790    1.3500 c3        1 IXX     -0.113000
      9 N1         -0.2940    0.7650    0.2430 n2        1 IXX     -0.232000
     10 C3         -2.5400    3.5380   -1.9560 c1        1 IXX     -0.130250
     11 N2          0.8300   -3.7540   -1.2310 n3        1 IXX     -0.262000
     12 C4         -2.9910    2.9940   -0.7540 c1        1 IXX     -0.117000
     13 C1         -0.4050    2.4330   -1.6770 c1        1 IXX     -0.160000
     14 C12        -0.2190    1.1760    2.5540 c2        1 IXX     -0.083000
     15 C13        -2.1540    2.1680   -0.0060 c2        1 IXX     -0.071000
     16 C14        -0.8560    1.8820   -0.4640 c2        1 IXX      0.056000
     17 C15         0.5370   -0.0640   -0.6880 c3        1 IXX     -0.030000
     18 C16        -0.0110   -1.4980   -0.7210 c3        1 IXX     -0.172000
     19 C17         0.8650   -2.3530   -1.6570 c3        1 IXX     -0.066000
     20 C18         0.1190   -4.5100   -2.1560 c3        1 IXX     -0.120500
     21 C19         2.2070   -4.2680   -1.1550 c3        1 IXX     -0.120500
     22 H10         2.4620    1.1300    0.5980 ha        1 IXX      0.135000
     23 H9          3.6240    0.8990    2.6520 ha        1 IXX      0.131500
     24 H8          2.3270    0.8350    4.7280 ha        1 IXX      0.131500
     25 H7         -0.1070    1.0160    4.6690 ha        1 IXX      0.128000
     26 H2         -0.9230    3.6390   -3.2730 ha        1 IXX      0.131500
     27 H61        -1.3100    2.9170    2.2100 hc        1 IXX      0.087000
     28 H51        -2.2610    0.4820    1.2600 hc        1 IXX      0.094000
     29 H3         -3.1170    4.1070   -2.4700 ha        1 IXX      0.131500
     30 H4         -3.8990    3.1920   -0.4360 ha        1 IXX      0.132000
     31 H1          0.5540    2.2260   -2.0180 ha        1 IXX      0.133000
     32 H151        0.4990    0.3350   -1.6230 h1        1 IXX      0.078000
     33 H152        1.5250   -0.0780   -0.3560 h1        1 IXX      0.078000
     34 H161       -0.9230   -1.4880   -1.0510 hc        1 IXX      0.102000
     35 H162        0.0060   -1.8790    0.1920 hc        1 IXX      0.102000
     36 H171        1.7730   -2.0330   -1.6220 h1        1 IXX      0.067000
     37 H172        0.5370   -2.2820   -2.5540 h1        1 IXX      0.067000
     38 H181       -0.8800   -4.2050   -2.1720 h1        1 IXX      0.070667
     39 H182        0.1690   -5.4630   -1.9020 h1        1 IXX      0.070667
     40 H183        0.4960   -4.3920   -3.0100 h1        1 IXX      0.070667
     41 H191        2.7170   -3.7570   -0.4700 h1        1 IXX      0.070667
     42 H192        2.1890   -5.2140   -0.9110 h1        1 IXX      0.070667
     43 H193        2.6240   -4.1700   -1.9920 h1        1 IXX      0.070667
     44 H52        -3.3330    1.6240    1.5930 hc        1 IXX      0.094000
     45 H62        -1.9980    2.0190    3.2470 hc        1 IXX      0.087000
@<TRIPOS>BOND
     1    1    2 1   
     2    1   14 1   
     3    2   22 1   
     4    3    4 1   
     5    3   23 1   
     6    4   24 1   
     7    5   14 1   
     8    5   25 1   
     9    6   10 1   
    10    6   26 1   
    11    7    8 1   
    12    7   14 1   
    13    7   27 1   
    14    7   45 1   
    15    8   15 1   
    16    8   28 1   
    17    8   44 1   
    18    9   16 1   
    19    9   17 1   
    20   10   29 1   
    21   11   19 1   
    22   11   20 1   
    23   11   21 1   
    24   12   15 1   
    25   12   30 1   
    26   13   16 1   
    27   13   31 1   
    28   15   16 1   
    29   17   18 1   
    30   17   32 1   
    31   17   33 1   
    32   18   19 1   
    33   18   34 1   
    34   18   35 1   
    35   19   36 1   
    36   19   37 1   
    37   20   38 1   
    38   20   39 1   
    39   20   40 1   
    40   21   41 1   
    41   21   42 1   
    42   21   43 1   
@<TRIPOS>SUBSTRUCTURE
     1 IXX         1 TEMP              0 ****  ****    0 ROOT
