@<TRIPOS>MOLECULE
IXY
   67    71     1     0     0
SMALL
bcc


@<TRIPOS>ATOM
      1 C1          0.4610    0.0480    0.1470 c3        1 IXY     -0.021100
      2 C2          1.8830    0.3540   -0.1150 cc        1 IXY     -0.138400
      3 C3          2.7110    1.0400    0.7610 cd        1 IXY     -0.050300
      4 C4          2.2070    1.5590    2.0530 c3        1 IXY     -0.033100
      5 C5          0.6880    1.5280    2.1400 c3        1 IXY     -0.078400
      6 C6          0.1210    0.2280    1.6150 c3        1 IXY     -0.077400
      7 S7          2.6460   -0.0780   -1.5220 ss        1 IXY      0.306200
      8 C8          4.1090    0.6040   -1.0850 cc        1 IXY      0.045500
      9 C9          4.0390    1.1710    0.2230 cd        1 IXY     -0.284600
     10 C10         5.1930    1.7660    0.8480 c         1 IXY      0.599700
     11 O11         6.2670    2.0550    0.3130 o         1 IXY     -0.509100
     12 N12         5.1190    2.0500    2.3240 n4        1 IXY     -0.669800
     13 C13         6.4640    2.2740    2.9660 c3        1 IXY      0.184100
     14 C14         6.3020    2.5660    4.4150 ca        1 IXY     -0.202300
     15 C15         6.3040    1.5190    5.3450 ca        1 IXY     -0.100000
     16 C16         6.2030    1.7990    6.7060 ca        1 IXY     -0.116500
     17 C17         6.0990    3.1220    7.1430 ca        1 IXY     -0.070000
     18 C18         6.0990    4.1670    6.2170 ca        1 IXY     -0.116500
     19 C19         6.2000    3.8930    4.8540 ca        1 IXY     -0.100000
     20 N20         5.2430    0.6130   -1.8900 n         1 IXY     -0.411100
     21 C21         5.2750    0.0480   -3.1500 c         1 IXY      0.635100
     22 O22         4.2980   -0.5420   -3.6490 o         1 IXY     -0.566100
     23 C23         6.5910    0.1740   -3.9320 c3        1 IXY      0.027800
     24 N24         6.4930   -0.4800   -5.2630 n4        1 IXY     -0.754000
     25 C25         7.7670   -0.3530   -6.0450 c3        1 IXY      0.097800
     26 C26         7.6880   -1.0690   -7.4010 c3        1 IXY      0.002800
     27 C27         9.0080   -1.0060   -8.0290 cc        1 IXY     -0.234400
     28 C28         9.3490   -0.2910   -9.1870 cd        1 IXY     -0.043100
     29 N29        10.6830   -0.5010   -9.4970 na        1 IXY     -0.161400
     30 C30        11.2300   -1.3780   -8.5500 ca        1 IXY     -0.048200
     31 C31        10.1940   -1.7180   -7.6020 ca        1 IXY     -0.086800
     32 C32        10.4880   -2.5960   -6.5560 ca        1 IXY     -0.123000
     33 C33        11.7700   -3.1110   -6.4520 ca        1 IXY     -0.122000
     34 C34        12.7750   -2.7680   -7.3760 ca        1 IXY     -0.104000
     35 C35        12.5260   -1.9050   -8.4320 ca        1 IXY     -0.113000
     36 H1          0.2250   -1.0060   -0.1650 hc        1 IXY      0.078200
     37 H2         -0.1830    0.7340   -0.4710 hc        1 IXY      0.078200
     38 H4          2.6180    0.9330    2.8930 hc        1 IXY      0.045200
     39 H5          2.5270    2.6260    2.2000 hc        1 IXY      0.045200
     40 H6          0.2640    2.3850    1.5530 hc        1 IXY      0.069200
     41 H7          0.3840    1.6690    3.2110 hc        1 IXY      0.069200
     42 H8          0.5250   -0.6330    2.2090 hc        1 IXY      0.069700
     43 H9         -0.9950    0.2270    1.7360 hc        1 IXY      0.069700
     44 H11         4.6500    1.2650    2.7940 hn        1 IXY      0.463300
     45 H12         7.0760    1.3420    2.7990 hx        1 IXY      0.112700
     46 H13         6.9610    3.1310    2.4260 hx        1 IXY      0.112700
     47 H14         6.4070    0.4760    5.0080 ha        1 IXY      0.138000
     48 H15         6.2130    0.9760    7.4390 ha        1 IXY      0.164500
     49 H16         6.0260    3.3410    8.2220 ha        1 IXY      0.167000
     50 H17         6.0270    5.2110    6.5640 ha        1 IXY      0.164500
     51 H18         6.2200    4.7220    4.1300 ha        1 IXY      0.138000
     52 H19         6.0520    1.0960   -1.5480 hn        1 IXY      0.364500
     53 H20         6.8410    1.2660   -4.0850 hx        1 IXY      0.135700
     54 H21         7.4300   -0.3130   -3.3530 hx        1 IXY      0.135700
     55 H22         6.2630   -1.4760   -5.1370 hn        1 IXY      0.465300
     56 H24         8.6020   -0.8050   -5.4350 hx        1 IXY      0.112700
     57 H25         7.9730    0.7440   -6.1980 hx        1 IXY      0.112700
     58 H26         7.3920   -2.1440   -7.2510 hc        1 IXY      0.068200
     59 H27         6.9150   -0.5800   -8.0520 hc        1 IXY      0.068200
     60 H28         8.7200    0.3470   -9.8140 h4        1 IXY      0.177000
     61 H29        11.1550   -0.1560  -10.2940 hn        1 IXY      0.321700
     62 H30         9.7060   -2.8880   -5.8420 ha        1 IXY      0.108000
     63 H31        12.0150   -3.8120   -5.6390 ha        1 IXY      0.143000
     64 H32        13.7800   -3.2030   -7.2580 ha        1 IXY      0.154000
     65 H33        13.3130   -1.6480   -9.1550 ha        1 IXY      0.155000
     66 H122        4.5420    2.8890    2.4690 hn        1 IXY      0.463300
     67 H242        5.7160   -0.0600   -5.7930 hn        1 IXY      0.465300
@<TRIPOS>BOND
     1    1    2 1   
     2    1    6 1   
     3    1   36 1   
     4    1   37 1   
     5    2    3 2   
     6    2    7 1   
     7    3    4 1   
     8    3    9 1   
     9    4    5 1   
    10    4   38 1   
    11    4   39 1   
    12    5    6 1   
    13    5   40 1   
    14    5   41 1   
    15    6   42 1   
    16    6   43 1   
    17    7    8 1   
    18    8    9 2   
    19    8   20 1   
    20    9   10 1   
    21   10   11 2   
    22   10   12 1   
    23   12   13 1   
    24   12   44 1   
    25   12   66 1   
    26   13   14 1   
    27   13   45 1   
    28   13   46 1   
    29   14   15 ar  
    30   14   19 ar  
    31   15   16 ar  
    32   15   47 1   
    33   16   17 ar  
    34   16   48 1   
    35   17   18 ar  
    36   17   49 1   
    37   18   19 ar  
    38   18   50 1   
    39   19   51 1   
    40   20   21 1   
    41   20   52 1   
    42   21   22 2   
    43   21   23 1   
    44   23   24 1   
    45   23   53 1   
    46   23   54 1   
    47   24   25 1   
    48   24   55 1   
    49   24   67 1   
    50   25   26 1   
    51   25   56 1   
    52   25   57 1   
    53   26   27 1   
    54   26   58 1   
    55   26   59 1   
    56   27   28 2   
    57   27   31 1   
    58   28   29 1   
    59   28   60 1   
    60   29   30 1   
    61   29   61 1   
    62   30   31 ar  
    63   30   35 ar  
    64   31   32 ar  
    65   32   33 ar  
    66   32   62 1   
    67   33   34 ar  
    68   33   63 1   
    69   34   35 ar  
    70   34   64 1   
    71   35   65 1   
@<TRIPOS>SUBSTRUCTURE
     1 IXY         1 TEMP              0 ****  ****    0 ROOT
