@<TRIPOS>MOLECULE
IXY
   67    71     1     0     0
SMALL
bcc


@<TRIPOS>ATOM
      1 C1          0.4720    0.0210    0.1850 c3        1 IXY     -0.021100
      2 C2          1.8910    0.3330   -0.0880 cc        1 IXY     -0.138400
      3 C3          2.7220    1.0240    0.7810 cd        1 IXY     -0.050300
      4 C4          2.2250    1.5450    2.0760 c3        1 IXY     -0.033100
      5 C5          0.7060    1.5070    2.1720 c3        1 IXY     -0.078400
      6 C6          0.1410    0.2040    1.6550 c3        1 IXY     -0.077400
      7 S7          2.6470   -0.1000   -1.4980 ss        1 IXY      0.306200
      8 C8          4.1100    0.5890   -1.0730 cc        1 IXY      0.045500
      9 C9          4.0460    1.1590    0.2340 cd        1 IXY     -0.284600
     10 C10         5.2020    1.7610    0.8500 c         1 IXY      0.599700
     11 O11         6.2710    2.0530    0.3070 o         1 IXY     -0.509100
     12 N12         5.1370    2.0480    2.3260 ny        1 IXY     -0.669800
     13 C13         6.4850    2.2790    2.9590 c3        1 IXY      0.184100
     14 C14         6.3310    2.5750    4.4080 ca        1 IXY     -0.202300
     15 C15         6.3430    1.5290    5.3410 ca        1 IXY     -0.100000
     16 C16         6.2500    1.8120    6.7020 ca        1 IXY     -0.116500
     17 C17         6.1440    3.1360    7.1360 ca        1 IXY     -0.070000
     18 C18         6.1340    4.1790    6.2070 ca        1 IXY     -0.116500
     19 C19         6.2270    3.9010    4.8440 ca        1 IXY     -0.100000
     20 N20         5.2380    0.6010   -1.8860 ns        1 IXY     -0.411100
     21 C21         5.2640    0.0330   -3.1430 c         1 IXY      0.635100
     22 O22         4.2870   -0.5630   -3.6350 o         1 IXY     -0.566100
     23 C23         6.5740    0.1640   -3.9350 c3        1 IXY      0.027800
     24 N24         6.4720   -0.4980   -5.2630 ny        1 IXY     -0.754000
     25 C25         7.7370   -0.3620   -6.0560 c3        1 IXY      0.097800
     26 C26         7.6540   -1.0860   -7.4070 c3        1 IXY      0.002800
     27 C27         8.9680   -1.0120   -8.0470 cc        1 IXY     -0.234400
     28 C28         9.2920   -0.3010   -9.2120 cd        1 IXY     -0.043100
     29 N29        10.6250   -0.4980   -9.5320 na        1 IXY     -0.161400
     30 C30        11.1900   -1.3640   -8.5850 ca        1 IXY     -0.048200
     31 C31        10.1660   -1.7090   -7.6270 ca        1 IXY     -0.086800
     32 C32        10.4780   -2.5780   -6.5780 ca        1 IXY     -0.123000
     33 C33        11.7660   -3.0790   -6.4820 ca        1 IXY     -0.122000
     34 C34        12.7600   -2.7290   -7.4160 ca        1 IXY     -0.104000
     35 C35        12.4930   -1.8760   -8.4750 ca        1 IXY     -0.113000
     36 H1          0.2390   -1.0340   -0.1220 hc        1 IXY      0.078200
     37 H2         -0.1790    0.7030   -0.4310 hc        1 IXY      0.078200
     38 H4          2.6440    0.9230    2.9150 hc        1 IXY      0.045200
     39 H5          2.5410    2.6140    2.2170 hc        1 IXY      0.045200
     40 H6          0.2750    2.3610    1.5860 hc        1 IXY      0.069200
     41 H7          0.4090    1.6500    3.2450 hc        1 IXY      0.069200
     42 H8         -0.9740    0.1990    1.7830 hc        1 IXY      0.069700
     43 H9          0.5530   -0.6540    2.2480 hc        1 IXY      0.069700
     44 H11         4.6740    1.2620    2.8010 hn        1 IXY      0.463300
     45 H12         7.0990    1.3490    2.7890 hx        1 IXY      0.112700
     46 H13         6.9750    3.1370    2.4130 hx        1 IXY      0.112700
     47 H14         6.4490    0.4860    5.0050 ha        1 IXY      0.138000
     48 H15         6.2690    0.9910    7.4370 ha        1 IXY      0.164500
     49 H16         6.0770    3.3580    8.2140 ha        1 IXY      0.167000
     50 H17         6.0610    5.2230    6.5510 ha        1 IXY      0.164500
     51 H18         6.2390    4.7290    4.1180 ha        1 IXY      0.138000
     52 H19         6.0470    1.0880   -1.5500 hn        1 IXY      0.364500
     53 H20         7.4200   -0.3150   -3.3600 hx        1 IXY      0.135700
     54 H21         6.8160    1.2560   -4.0960 hx        1 IXY      0.135700
     55 H22         6.2520   -1.4950   -5.1300 hn        1 IXY      0.465300
     56 H24         8.5820   -0.8020   -5.4500 hx        1 IXY      0.112700
     57 H25         7.9310    0.7360   -6.2170 hx        1 IXY      0.112700
     58 H26         7.3720   -2.1640   -7.2480 hc        1 IXY      0.068200
     59 H27         6.8710   -0.6100   -8.0540 hc        1 IXY      0.068200
     60 H28         8.6510    0.3270   -9.8370 h4        1 IXY      0.177000
     61 H29        11.0870   -0.1530  -10.3350 hn        1 IXY      0.321700
     62 H30         9.7060   -2.8750   -5.8550 ha        1 IXY      0.108000
     63 H31        12.0260   -3.7720   -5.6670 ha        1 IXY      0.143000
     64 H32        13.7710   -3.1540   -7.3040 ha        1 IXY      0.154000
     65 H33        13.2710   -1.6140   -9.2070 ha        1 IXY      0.155000
     66 H122        4.5560    2.8850    2.4730 hn        1 IXY      0.463300
     67 H242        5.6860   -0.0880   -5.7870 hn        1 IXY      0.465300
@<TRIPOS>BOND
     1    1    2 1   
     2    1    6 1   
     3    1   36 1   
     4    1   37 1   
     5    2    3 2   
     6    2    7 1   
     7    3    4 1   
     8    3    9 1   
     9    4    5 1   
    10    4   38 1   
    11    4   39 1   
    12    5    6 1   
    13    5   40 1   
    14    5   41 1   
    15    6   42 1   
    16    6   43 1   
    17    7    8 1   
    18    8    9 2   
    19    8   20 1   
    20    9   10 1   
    21   10   11 2   
    22   10   12 1   
    23   12   13 1   
    24   12   44 1   
    25   12   66 1   
    26   13   14 1   
    27   13   45 1   
    28   13   46 1   
    29   14   15 ar  
    30   14   19 ar  
    31   15   16 ar  
    32   15   47 1   
    33   16   17 ar  
    34   16   48 1   
    35   17   18 ar  
    36   17   49 1   
    37   18   19 ar  
    38   18   50 1   
    39   19   51 1   
    40   20   21 1   
    41   20   52 1   
    42   21   22 2   
    43   21   23 1   
    44   23   24 1   
    45   23   53 1   
    46   23   54 1   
    47   24   25 1   
    48   24   55 1   
    49   24   67 1   
    50   25   26 1   
    51   25   56 1   
    52   25   57 1   
    53   26   27 1   
    54   26   58 1   
    55   26   59 1   
    56   27   28 2   
    57   27   31 1   
    58   28   29 1   
    59   28   60 1   
    60   29   30 1   
    61   29   61 1   
    62   30   31 ar  
    63   30   35 ar  
    64   31   32 ar  
    65   32   33 ar  
    66   32   62 1   
    67   33   34 ar  
    68   33   63 1   
    69   34   35 ar  
    70   34   64 1   
    71   35   65 1   
@<TRIPOS>SUBSTRUCTURE
     1 IXY         1 TEMP              0 ****  ****    0 ROOT
