@<TRIPOS>MOLECULE
IXZ
   60    63     1     0     0
SMALL
bcc


@<TRIPOS>ATOM
      1 O1         -0.3330    0.0940    0.2100 o         1 IXZ     -0.565100
      2 C18         0.9090    0.1870    0.2390 c         1 IXZ      0.636100
      3 C19         1.6600    0.1750    1.5800 c3        1 IXZ      0.026800
      4 N2          0.7250    0.0180    2.7230 ny        1 IXZ     -0.762000
      5 C20         1.4440    0.0300    4.0530 c3        1 IXZ      0.189100
      6 C21         0.4700   -0.1380    5.1610 ca        1 IXZ     -0.210300
      7 C23        -0.1100    0.9890    5.7610 ca        1 IXZ     -0.094000
      8 C25        -0.9850    0.8300    6.8330 ca        1 IXZ     -0.115000
      9 C26        -1.2840   -0.4490    7.3090 ca        1 IXZ     -0.061000
     10 C24        -0.7070   -1.5720    6.7130 ca        1 IXZ     -0.115000
     11 C22         0.1690   -1.4200    5.6400 ca        1 IXZ     -0.094000
     12 N1          1.6760    0.3060   -0.9020 ns        1 IXZ     -0.411100
     13 C2          1.1320    0.3220   -2.1810 cc        1 IXZ      0.046500
     14 S          -0.5060    0.2250   -2.5270 ss        1 IXZ      0.320200
     15 C3          1.8960    0.4200   -3.3800 cd        1 IXZ     -0.285600
     16 C1          1.0340    0.4030   -4.5320 cd        1 IXZ      0.011000
     17 C4          1.4590    0.4760   -5.9240 ca        1 IXZ     -0.123000
     18 C6          1.5270    1.7160   -6.5760 ca        1 IXZ     -0.136000
     19 C8          1.8530    1.7750   -7.9300 ca        1 IXZ     -0.118000
     20 C9          2.1120    0.6020   -8.6420 ca        1 IXZ     -0.095000
     21 C7          2.0470   -0.6340   -7.9960 ca        1 IXZ     -0.118000
     22 C5          1.7210   -0.7010   -6.6420 ca        1 IXZ     -0.136000
     23 C          -0.2900    0.3000   -4.1570 cc        1 IXZ     -0.209100
     24 C10         3.3360    0.5210   -3.3860 c         1 IXZ      0.603700
     25 O           4.0820    0.5350   -2.4030 o         1 IXZ     -0.511100
     26 N           3.9960    0.6110   -4.7370 ny        1 IXZ     -0.665800
     27 C11         5.4960    0.7270   -4.7190 c3        1 IXZ      0.178100
     28 C12         5.9430    2.1440   -4.8150 ca        1 IXZ     -0.191300
     29 C14         6.1620    2.7240   -6.0710 ca        1 IXZ     -0.098000
     30 C16         6.6400    4.0300   -6.1580 ca        1 IXZ     -0.121000
     31 C17         6.9010    4.7590   -4.9960 ca        1 IXZ     -0.073000
     32 C15         6.6820    4.1810   -3.7440 ca        1 IXZ     -0.121000
     33 C13         6.2040    2.8760   -3.6500 ca        1 IXZ     -0.098000
     34 H1          2.2240    1.1450    1.7070 hx        1 IXZ      0.132700
     35 H2          2.3970   -0.6800    1.5980 hx        1 IXZ      0.132700
     36 H3          0.2040   -0.8660    2.6250 hn        1 IXZ      0.467300
     37 H5          2.1960   -0.8100    4.0380 hx        1 IXZ      0.106700
     38 H6          1.9870    1.0150    4.1330 hx        1 IXZ      0.106700
     39 H7          0.1380    2.0000    5.4030 ha        1 IXZ      0.138000
     40 H8         -1.4350    1.7160    7.3110 ha        1 IXZ      0.168000
     41 H9         -1.9730   -0.5710    8.1630 ha        1 IXZ      0.170000
     42 H10        -0.9370   -2.5800    7.0960 ha        1 IXZ      0.168000
     43 H11         0.6370   -2.3080    5.1880 ha        1 IXZ      0.138000
     44 H12         2.6730    0.3800   -0.8240 hn        1 IXZ      0.365500
     45 H13         1.2850    2.6410   -6.0290 ha        1 IXZ      0.150000
     46 H14         1.8850    2.7500   -8.4440 ha        1 IXZ      0.165500
     47 H15         2.3500    0.6500   -9.7170 ha        1 IXZ      0.168000
     48 H16         2.2320   -1.5620   -8.5620 ha        1 IXZ      0.165500
     49 H17         1.6270   -1.6820   -6.1480 ha        1 IXZ      0.150000
     50 H18        -1.1240    0.2690   -4.8690 h4        1 IXZ      0.222000
     51 H19         3.7180   -0.2270   -5.2700 hn        1 IXZ      0.472300
     52 H20         5.8750    0.1350   -5.6020 hx        1 IXZ      0.114700
     53 H21         5.8800    0.2490   -3.7710 hx        1 IXZ      0.114700
     54 H22         5.9810    2.1460   -6.9900 ha        1 IXZ      0.139500
     55 H23         6.8220    4.4830   -7.1460 ha        1 IXZ      0.160000
     56 H24         7.2880    5.7890   -5.0680 ha        1 IXZ      0.164000
     57 H25         6.8990    4.7550   -2.8280 ha        1 IXZ      0.160000
     58 H26         6.0440    2.4130   -2.6630 ha        1 IXZ      0.139500
     59 H221        0.0250    0.7740    2.7040 hn        1 IXZ      0.467300
     60 HN3         3.5980    1.4320   -5.2240 hn        1 IXZ      0.472300
@<TRIPOS>BOND
     1    1    2 2   
     2    2    3 1   
     3    2   12 1   
     4    3    4 1   
     5    3   34 1   
     6    3   35 1   
     7    4    5 1   
     8    4   36 1   
     9    4   59 1   
    10    5    6 1   
    11    5   37 1   
    12    5   38 1   
    13    6    7 ar  
    14    6   11 ar  
    15    7    8 ar  
    16    7   39 1   
    17    8    9 ar  
    18    8   40 1   
    19    9   10 ar  
    20    9   41 1   
    21   10   11 ar  
    22   10   42 1   
    23   11   43 1   
    24   12   13 1   
    25   12   44 1   
    26   13   14 1   
    27   13   15 2   
    28   14   23 1   
    29   15   16 1   
    30   15   24 1   
    31   16   17 1   
    32   16   23 2   
    33   17   18 ar  
    34   17   22 ar  
    35   18   19 ar  
    36   18   45 1   
    37   19   20 ar  
    38   19   46 1   
    39   20   21 ar  
    40   20   47 1   
    41   21   22 ar  
    42   21   48 1   
    43   22   49 1   
    44   23   50 1   
    45   24   25 2   
    46   24   26 1   
    47   26   27 1   
    48   26   51 1   
    49   26   60 1   
    50   27   28 1   
    51   27   52 1   
    52   27   53 1   
    53   28   29 ar  
    54   28   33 ar  
    55   29   30 ar  
    56   29   54 1   
    57   30   31 ar  
    58   30   55 1   
    59   31   32 ar  
    60   31   56 1   
    61   32   33 ar  
    62   32   57 1   
    63   33   58 1   
@<TRIPOS>SUBSTRUCTURE
     1 IXZ         1 TEMP              0 ****  ****    0 ROOT
