@<TRIPOS>MOLECULE
IXZ
   60    63     1     0     0
SMALL
bcc


@<TRIPOS>ATOM
      1 O1         -0.3350    0.1020    0.2110 o         1 IXZ     -0.565100
      2 C18         0.9080    0.1870    0.2390 c         1 IXZ      0.636100
      3 C19         1.6600    0.1630    1.5780 c3        1 IXZ      0.026800
      4 N2          0.7270   -0.0010    2.7220 n4        1 IXZ     -0.762000
      5 C20         1.4460    0.0110    4.0510 c3        1 IXZ      0.189100
      6 C21         0.4740   -0.1660    5.1600 ca        1 IXZ     -0.210300
      7 C23        -0.1120    0.9550    5.7630 ca        1 IXZ     -0.094000
      8 C25        -0.9850    0.7880    6.8350 ca        1 IXZ     -0.115000
      9 C26        -1.2760   -0.4930    7.3080 ca        1 IXZ     -0.061000
     10 C24        -0.6930   -1.6120    6.7080 ca        1 IXZ     -0.115000
     11 C22         0.1820   -1.4520    5.6350 ca        1 IXZ     -0.094000
     12 N1          1.6740    0.3080   -0.9030 n         1 IXZ     -0.411100
     13 C2          1.1280    0.3340   -2.1810 cc        1 IXZ      0.046500
     14 S          -0.5120    0.2500   -2.5250 ss        1 IXZ      0.320200
     15 C3          1.8900    0.4350   -3.3800 cd        1 IXZ     -0.285600
     16 C1          1.0260    0.4300   -4.5310 cd        1 IXZ      0.011000
     17 C4          1.4490    0.5100   -5.9230 ca        1 IXZ     -0.123000
     18 C6          1.5240    1.7540   -6.5670 ca        1 IXZ     -0.136000
     19 C8          1.8490    1.8190   -7.9220 ca        1 IXZ     -0.118000
     20 C9          2.0980    0.6490   -8.6410 ca        1 IXZ     -0.095000
     21 C7          2.0250   -0.5900   -8.0030 ca        1 IXZ     -0.118000
     22 C5          1.7010   -0.6640   -6.6490 ca        1 IXZ     -0.136000
     23 C          -0.2990    0.3340   -4.1550 cc        1 IXZ     -0.209100
     24 C10         3.3300    0.5270   -3.3890 c         1 IXZ      0.603700
     25 O           4.0780    0.5300   -2.4070 o         1 IXZ     -0.511100
     26 N           3.9880    0.6200   -4.7400 n4        1 IXZ     -0.665800
     27 C11         5.4890    0.7250   -4.7240 c3        1 IXZ      0.178100
     28 C12         5.9470    2.1380   -4.8130 ca        1 IXZ     -0.191300
     29 C14         6.1690    2.7230   -6.0670 ca        1 IXZ     -0.098000
     30 C16         6.6570    4.0260   -6.1490 ca        1 IXZ     -0.121000
     31 C17         6.9240    4.7470   -4.9830 ca        1 IXZ     -0.073000
     32 C15         6.7030    4.1650   -3.7330 ca        1 IXZ     -0.121000
     33 C13         6.2150    2.8630   -3.6460 ca        1 IXZ     -0.098000
     34 H1          2.3960   -0.6940    1.5890 hx        1 IXZ      0.132700
     35 H2          2.2260    1.1320    1.7110 hx        1 IXZ      0.132700
     36 H3          0.2090   -0.8850    2.6210 hn        1 IXZ      0.466800
     37 H5          2.2020   -0.8260    4.0330 hx        1 IXZ      0.106700
     38 H6          1.9860    0.9980    4.1340 hx        1 IXZ      0.106700
     39 H7          0.1300    1.9690    5.4070 ha        1 IXZ      0.138000
     40 H8         -1.4400    1.6700    7.3160 ha        1 IXZ      0.168000
     41 H9         -1.9640   -0.6220    8.1610 ha        1 IXZ      0.170000
     42 H10        -0.9170   -2.6220    7.0890 ha        1 IXZ      0.168000
     43 H11         0.6540   -2.3360    5.1800 ha        1 IXZ      0.138000
     44 H12         2.6710    0.3750   -0.8260 hn        1 IXZ      0.365500
     45 H13         1.2900    2.6770   -6.0140 ha        1 IXZ      0.150000
     46 H14         1.8870    2.7970   -8.4290 ha        1 IXZ      0.165500
     47 H15         2.3340    0.7030   -9.7170 ha        1 IXZ      0.168000
     48 H16         2.2020   -1.5160   -8.5760 ha        1 IXZ      0.165500
     49 H17         1.6010   -1.6470   -6.1620 ha        1 IXZ      0.150000
     50 H18        -1.1340    0.3130   -4.8650 h4        1 IXZ      0.222000
     51 H19         3.7040   -0.2130   -5.2770 hn        1 IXZ      0.472300
     52 H20         5.8720    0.2390   -3.7790 hx        1 IXZ      0.114700
     53 H21         5.8630    0.1340   -5.6110 hx        1 IXZ      0.114700
     54 H22         5.9830    2.1510   -6.9890 ha        1 IXZ      0.139500
     55 H23         6.8420    4.4820   -7.1340 ha        1 IXZ      0.160000
     56 H24         7.3190    5.7750   -5.0510 ha        1 IXZ      0.164000
     57 H25         6.9250    4.7320   -2.8150 ha        1 IXZ      0.160000
     58 H26         6.0520    2.3970   -2.6610 ha        1 IXZ      0.139500
     59 H221        0.0250    0.7540    2.7050 hn        1 IXZ      0.466800
     60 HN3         3.5960    1.4460   -5.2220 hn        1 IXZ      0.472300
@<TRIPOS>BOND
     1    1    2 2   
     2    2    3 1   
     3    2   12 1   
     4    3    4 1   
     5    3   34 1   
     6    3   35 1   
     7    4    5 1   
     8    4   36 1   
     9    4   59 1   
    10    5    6 1   
    11    5   37 1   
    12    5   38 1   
    13    6    7 ar  
    14    6   11 ar  
    15    7    8 ar  
    16    7   39 1   
    17    8    9 ar  
    18    8   40 1   
    19    9   10 ar  
    20    9   41 1   
    21   10   11 ar  
    22   10   42 1   
    23   11   43 1   
    24   12   13 1   
    25   12   44 1   
    26   13   14 1   
    27   13   15 2   
    28   14   23 1   
    29   15   16 1   
    30   15   24 1   
    31   16   17 1   
    32   16   23 2   
    33   17   18 ar  
    34   17   22 ar  
    35   18   19 ar  
    36   18   45 1   
    37   19   20 ar  
    38   19   46 1   
    39   20   21 ar  
    40   20   47 1   
    41   21   22 ar  
    42   21   48 1   
    43   22   49 1   
    44   23   50 1   
    45   24   25 2   
    46   24   26 1   
    47   26   27 1   
    48   26   51 1   
    49   26   60 1   
    50   27   28 1   
    51   27   52 1   
    52   27   53 1   
    53   28   29 ar  
    54   28   33 ar  
    55   29   30 ar  
    56   29   54 1   
    57   30   31 ar  
    58   30   55 1   
    59   31   32 ar  
    60   31   56 1   
    61   32   33 ar  
    62   32   57 1   
    63   33   58 1   
@<TRIPOS>SUBSTRUCTURE
     1 IXZ         1 TEMP              0 ****  ****    0 ROOT
