@<TRIPOS>MOLECULE
IY7
   68    63     1     0     0
SMALL
bcc


@<TRIPOS>ATOM
      1 C2          0.8860    0.7750   -0.7170 c1        1 IY7     -0.203000
      2 C3          0.7100    1.0230   -1.8920 c1        1 IY7     -0.110000
      3 C1          1.1340    0.6860    0.6110 c1        1 IY7     -0.006000
      4 C4          2.6530   -1.1050    3.1480 c2        1 IY7     -0.209000
      5 C12         1.8450    4.2440   -0.0160 c1        1 IY7      0.247000
      6 C13         2.6270    3.6730    0.8770 c2        1 IY7     -0.473000
      7 C16         3.8870    2.6240    3.4850 c2        1 IY7     -0.090000
      8 C6          1.0030   -0.5110    1.4180 c3        1 IY7     -0.143000
      9 C5          1.6060   -0.3620    2.7800 c2        1 IY7     -0.101000
     10 C11         2.5710    2.5000    3.7540 c2        1 IY7     -0.051000
     11 C14         3.8030    4.2040    1.5280 c2        1 IY7      0.146000
     12 C15         4.3690    3.7410    2.6790 c2        1 IY7     -0.079000
     13 C7         -1.4270    0.3740    4.3730 c2        1 IY7     -0.305000
     14 C21         7.1540    0.9470    3.7730 c2        1 IY7      0.025000
     15 C9          0.9280    0.6510    3.6520 c3        1 IY7     -0.040000
     16 C8         -0.1410   -0.0120    4.5110 c2        1 IY7      0.039000
     17 C22         8.3050    1.0630    3.1660 c1        1 IY7     -0.231000
     18 C10         1.8930    1.4420    4.5360 c3        1 IY7     -0.160000
     19 C24         9.4710    1.1580    2.5980 c2        1 IY7     -0.051000
     20 C33        -2.3980   -0.8770   10.7540 c1        1 IY7     -0.226000
     21 C34        -1.3590   -1.4650   10.6630 c1        1 IY7     -0.202000
     22 C35        -0.1150   -2.1980   10.5390 c3        1 IY7      0.004000
     23 N29         0.3120   -0.9990    5.3940 n         1 IY7     -0.339000
     24 N36         1.0590   -1.5880   11.1120 n3        1 IY7     -0.332000
     25 O19         6.1150    1.7950    3.3660 os        1 IY7     -0.241000
     26 O28        10.4740    3.7950   -3.2590 o         1 IY7     -0.207500
     27 O18         4.7750    0.7920    4.8510 o         1 IY7     -0.355000
     28 O27        10.6880    2.3960   -1.3470 o         1 IY7     -0.207500
     29 O20         5.4570    4.4620    3.1550 oh        1 IY7     -0.283000
     30 O23         4.3260    5.2930    0.8660 oh        1 IY7     -0.263000
     31 H2          0.5610    1.2650   -2.9160 ha        1 IY7      0.234000
     32 H3          3.1100   -1.8410    2.4730 ha        1 IY7      0.129000
     33 H1         -0.1060   -0.7200    1.5320 hc        1 IY7      0.129500
     34 H4          3.1440   -1.0200    4.1280 ha        1 IY7      0.129000
     35 H12         1.8850    3.2720    3.3500 ha        1 IY7      0.144000
     36 H13         2.3410    2.6160    1.1460 ha        1 IY7      0.245000
     37 H71C       -1.7030    1.1650    3.6660 ha        1 IY7      0.125000
     38 H72C        1.4420   -1.4110    0.8960 hc        1 IY7      0.129500
     39 H9          0.4050    1.3890    2.9720 hc        1 IY7      0.123000
     40 H101        1.3050    1.9480    5.3570 hc        1 IY7      0.122000
     41 H102        2.6210    0.7530    5.0400 hc        1 IY7      0.122000
     42 H321        0.5150    3.7150    6.9200 hc        1 IY7      0.068250
     43 H322        0.2960    2.0930    7.7080 hc        1 IY7      0.068250
     44 H29        -2.2630   -0.0520    4.9370 ha        1 IY7      0.125000
     45 H251        9.0820   -0.2960    1.0480 hc        1 IY7      0.091667
     46 H252       10.1550    1.0900    0.5770 hc        1 IY7      0.091667
     47 H8          1.2650   -1.2830    5.2980 hn        1 IY7      0.242000
     48 H211        6.2290    3.8750    3.1190 ho        1 IY7      0.230000
     49 H212        6.9220    0.2400    4.5850 h4        1 IY7      0.182000
     50 H22         5.1050    5.6090    1.3540 ho        1 IY7      0.241000
     51 H241       10.2340    1.8460    3.0110 ha        1 IY7      0.134000
     52 H242       10.7910   -0.2270    1.6510 hc        1 IY7      0.091667
     53 H331       -3.3180   -0.3590   10.8380 ha        1 IY7      0.218000
     54 H332        1.9540    2.8210    7.5770 hc        1 IY7      0.068250
     55 H341        1.7590    1.4610    9.6110 ha        1 IY7      0.001000
     56 H342        0.7350    3.5380    8.7140 hc        1 IY7      0.068250
     57 H351        0.0850   -2.3830    9.4380 h1        1 IY7      0.124000
     58 H352        2.1470    1.2410   10.1220 ha        1 IY7      0.001000
     59 H361        0.9310   -1.4010   12.0870 hn        1 IY7      0.144000
     60 H362        1.2860   -0.7310   10.6460 hn        1 IY7      0.144000
     61 C25         9.8880    0.3870    1.4070 c3        1 IY7     -0.193000
     62 C30        -0.4560   -1.5880    6.3810 c2        1 IY7      0.262000
     63 H292       -1.5040   -1.2260    6.4680 h5        1 IY7      0.139000
     64 H363       -0.2520   -3.2080   11.0310 h1        1 IY7      0.124000
     65 C17         4.8900    1.6670    3.9880 c2        1 IY7      0.362000
     66 C26        10.5800    3.0960   -2.3030 c1        1 IY7      0.415000
     67 C32         0.8750    3.0420    7.7290 c3        1 IY7     -0.271000
     68 O31         0.0310   -2.4640    7.1140 o         1 IY7     -0.355000
@<TRIPOS>BOND
     1    1    2 1   
     2    1    3 1   
     3    2   31 1   
     4    3    8 1   
     5    4    9 1   
     6    4   32 1   
     7    4   34 1   
     8    5    6 1   
     9    6   11 1   
    10    6   36 1   
    11    7   10 1   
    12    7   12 1   
    13    7   65 1   
    14    8    9 1   
    15    8   33 1   
    16    8   38 1   
    17    9   15 1   
    18   10   18 1   
    19   10   35 1   
    20   11   12 1   
    21   11   30 1   
    22   12   29 1   
    23   13   16 1   
    24   13   37 1   
    25   13   44 1   
    26   14   17 1   
    27   14   25 1   
    28   14   49 1   
    29   15   16 1   
    30   15   18 1   
    31   15   39 1   
    32   16   23 1   
    33   17   19 1   
    34   18   40 1   
    35   18   41 1   
    36   19   51 1   
    37   19   61 1   
    38   20   21 1   
    39   20   53 1   
    40   21   22 1   
    41   22   24 1   
    42   22   57 1   
    43   22   64 1   
    44   23   47 1   
    45   23   62 1   
    46   24   59 1   
    47   24   60 1   
    48   25   65 1   
    49   26   66 1   
    50   27   65 1   
    51   28   66 1   
    52   29   48 1   
    53   30   50 1   
    54   42   67 1   
    55   43   67 1   
    56   45   61 1   
    57   46   61 1   
    58   52   61 1   
    59   54   67 1   
    60   55   58 1   
    61   56   67 1   
    62   62   63 1   
    63   62   68 1   
@<TRIPOS>SUBSTRUCTURE
     1 IY7         1 TEMP              0 ****  ****    0 ROOT
