@<TRIPOS>MOLECULE
IY7
   68    63     1     0     0
SMALL
bcc


@<TRIPOS>ATOM
      1 C2         -2.6340    2.2270    2.1260 c1        1 IY7     -0.128000
      2 C3         -3.1690    2.8770    1.2740 c1        1 IY7     -0.223000
      3 C1         -1.9990    1.4490    3.1080 c2        1 IY7     -0.098000
      4 C4          1.2180   -1.2450    2.1680 c2        1 IY7     -0.224000
      5 C12         2.3850    0.4790   -1.2720 c1        1 IY7      0.259000
      6 C13         3.0150    0.8810   -0.1840 c2        1 IY7     -0.459000
      7 C16         4.3310    1.6900    2.4160 c2        1 IY7     -0.129000
      8 C6         -1.9970    1.7330    4.4140 c2        1 IY7     -0.187000
      9 C5          2.0140   -0.7680    3.1220 c2        1 IY7     -0.177000
     10 C11         3.1270    1.8630    2.9940 c2        1 IY7     -0.032000
     11 C14         4.0530    1.8820   -0.0640 c2        1 IY7      0.130000
     12 C15         4.6370    2.2630    1.1070 c2        1 IY7     -0.072000
     13 C7          0.1010   -0.1860    6.2140 c1        1 IY7     -0.114000
     14 C21         7.7480    0.7490    3.4130 c2        1 IY7      0.025000
     15 C9          1.5900    0.2650    4.1160 c3        1 IY7      0.019000
     16 C8          1.2530   -0.3480    5.4190 c2        1 IY7     -0.326000
     17 C22         8.9090    1.3480    3.4000 c1        1 IY7     -0.230000
     18 C10         2.6970    1.3120    4.2980 c3        1 IY7     -0.163000
     19 C24        10.0800    1.9150    3.4070 c2        1 IY7     -0.049000
     20 C33        -2.5160   -0.8950    8.7600 c2        1 IY7     -0.237000
     21 C34        -2.3420   -0.7120   10.0630 c2        1 IY7     -0.237000
     22 C35         1.3300   -3.0600    9.5400 c1        1 IY7     -0.213000
     23 N29         2.1070   -1.2680    6.0970 n3        1 IY7     -0.133000
     24 N36         0.1610   -2.6840    9.9400 n3        1 IY7     -0.193000
     25 O19         5.3010   -0.1720    3.6730 o         1 IY7     -0.359000
     26 O28        11.5980    7.1140   -0.1080 o         1 IY7     -0.207500
     27 O18         6.6460    1.4490    2.9040 os        1 IY7     -0.241000
     28 O27        11.7740    5.0080    0.9850 o         1 IY7     -0.207500
     29 O20         5.5500    3.3030    1.0300 oh        1 IY7     -0.278000
     30 O23         4.3900    2.4620   -1.2670 oh        1 IY7     -0.261000
     31 H2         -3.6410    3.4510    0.5190 ha        1 IY7      0.220000
     32 H3          0.1770   -0.9170    2.0420 ha        1 IY7      0.115500
     33 H1         -1.4830    0.5480    2.7240 ha        1 IY7      0.130000
     34 H4          1.5530   -2.0110    1.4560 ha        1 IY7      0.115500
     35 H12         2.3640    2.4670    2.4650 ha        1 IY7      0.150000
     36 H13         2.7180    0.3910    0.7770 ha        1 IY7      0.213000
     37 H71C       -2.5030    2.6150    4.8280 ha        1 IY7      0.140500
     38 H72C       -1.4770    1.0910    5.1490 ha        1 IY7      0.140500
     39 H9          0.6550    0.7890    3.7530 hc        1 IY7      0.124000
     40 H101        3.0580   -1.1130    3.2300 ha        1 IY7      0.132000
     41 H102        2.2980    2.1490    4.9370 hc        1 IY7      0.110000
     42 H321        0.9670    3.2500    6.6490 hc        1 IY7      0.068500
     43 H322        1.3740    4.9120    7.2570 hc        1 IY7      0.068500
     44 H29         2.9870   -1.5660    5.7560 hn        1 IY7      0.265000
     45 H251       12.0090    1.3870    2.6610 hc        1 IY7      0.092667
     46 H252       10.6720    1.2290    1.4450 hc        1 IY7      0.092667
     47 H8          3.5600    0.8500    4.8460 hc        1 IY7      0.110000
     48 H211        6.3110    3.0650    1.5830 ho        1 IY7      0.237000
     49 H212        7.5510   -0.2680    3.7860 h4        1 IY7      0.179000
     50 H22         5.1190    3.0850   -1.1130 ho        1 IY7      0.242000
     51 H241       10.4080    2.4940    4.2910 ha        1 IY7      0.134000
     52 H242       11.2760    2.8740    1.9230 hc        1 IY7      0.092667
     53 H331       -3.3450   -1.4920    8.3550 ha        1 IY7      0.119750
     54 H332        2.7020    3.7740    6.7690 hc        1 IY7      0.068500
     55 H341       -1.5280   -0.0960   10.4700 ha        1 IY7      0.119750
     56 H342        1.6190    4.5020    5.5060 hc        1 IY7      0.068500
     57 H351       -3.0170   -1.1320   10.8200 ha        1 IY7      0.119750
     58 H352        1.7640   -2.3690    8.1340 h5        1 IY7      0.340000
     59 H361       -0.3690   -2.0290    9.3840 hn        1 IY7      0.221000
     60 H362        1.9030   -3.7770   10.1550 ha        1 IY7      0.086000
     61 C25        11.0540    1.8410    2.2970 c3        1 IY7     -0.194000
     62 C30         1.5130   -1.6470    7.2390 c2        1 IY7     -0.093000
     63 H292       -1.8470   -0.4620    7.9960 ha        1 IY7      0.119750
     64 H363       -0.2950   -2.9830   10.7780 hn        1 IY7      0.221000
     65 C17         5.3960    0.8910    3.0540 c2        1 IY7      0.364000
     66 C26        11.6850    6.0610    0.4380 c1        1 IY7      0.415000
     67 C32         1.6650    4.1090    6.5450 c3        1 IY7     -0.272000
     68 O31         0.3050   -1.0010    7.3230 os        1 IY7     -0.131000
@<TRIPOS>BOND
     1    1    2 1   
     2    1    3 1   
     3    2   31 1   
     4    3    8 1   
     5    3   33 1   
     6    4    9 1   
     7    4   32 1   
     8    4   34 1   
     9    5    6 1   
    10    6   11 1   
    11    6   36 1   
    12    7   10 1   
    13    7   12 1   
    14    7   65 1   
    15    8   37 1   
    16    8   38 1   
    17    9   15 1   
    18    9   40 1   
    19   10   18 1   
    20   10   35 1   
    21   11   12 1   
    22   11   30 1   
    23   12   29 1   
    24   13   16 1   
    25   13   68 1   
    26   14   17 1   
    27   14   27 1   
    28   14   49 1   
    29   15   16 1   
    30   15   18 1   
    31   15   39 1   
    32   16   23 1   
    33   17   19 1   
    34   18   41 1   
    35   18   47 1   
    36   19   51 1   
    37   19   61 1   
    38   20   21 1   
    39   20   53 1   
    40   20   63 1   
    41   21   55 1   
    42   21   57 1   
    43   22   24 1   
    44   22   60 1   
    45   23   44 1   
    46   23   62 1   
    47   24   59 1   
    48   24   64 1   
    49   25   65 1   
    50   26   66 1   
    51   27   65 1   
    52   28   66 1   
    53   29   48 1   
    54   30   50 1   
    55   42   67 1   
    56   43   67 1   
    57   45   61 1   
    58   46   61 1   
    59   52   61 1   
    60   54   67 1   
    61   56   67 1   
    62   58   62 1   
    63   62   68 1   
@<TRIPOS>SUBSTRUCTURE
     1 IY7         1 TEMP              0 ****  ****    0 ROOT
