@<TRIPOS>MOLECULE
IY7
   66    69     1     0     0
SMALL
bcc


@<TRIPOS>ATOM
      1 C2          1.9040    7.0120   -0.3370 ca        1 IY7     -0.149000
      2 C3          0.6570    6.5000    0.0080 ca        1 IY7     -0.144000
      3 C1          2.9820    6.1540   -0.5920 ca        1 IY7     -0.133000
      4 C4          0.4530    5.1170    0.1020 ca        1 IY7     -0.119000
      5 C12        -1.6680    2.0950   -0.7440 ca        1 IY7     -0.154000
      6 C13        -2.8390    1.4090   -0.4480 ca        1 IY7     -0.157000
      7 C16        -0.3930    0.0220   -0.7940 ca        1 IY7     -0.082600
      8 C6          2.7850    4.7860   -0.4980 ca        1 IY7     -0.079300
      9 C5          1.5150    4.2630   -0.1520 ca        1 IY7     -0.066300
     10 C11        -0.4530    1.4190   -0.9230 ca        1 IY7     -0.089300
     11 C14        -2.7980    0.0140   -0.3400 ca        1 IY7      0.053100
     12 C15        -1.5820   -0.6750   -0.5180 ca        1 IY7      0.077100
     13 C26        -6.7520   -4.5350    0.8150 c         1 IY7      0.908600
     14 C7          3.7680    3.6850   -0.7020 c3        1 IY7     -0.054100
     15 C21        -2.8020   -2.6880   -0.5370 c3        1 IY7      0.093400
     16 C9          1.5300    2.7590   -0.1310 c3        1 IY7     -0.026400
     17 C8          3.0670    2.4420   -0.0670 c3        1 IY7      0.111700
     18 C22        -3.8610   -2.0010    0.3170 c3        1 IY7      0.104100
     19 C10         0.7470    2.2140   -1.3250 c3        1 IY7     -0.032100
     20 C32         4.5460   -1.0280   -0.3570 c3        1 IY7     -0.179400
     21 C24        -5.2390   -2.6320    0.1600 c3        1 IY7     -0.062400
     22 C33         5.5490   -1.7860    0.4800 c3        1 IY7     -0.056400
     23 C34         5.4870   -3.2650    0.1700 c3        1 IY7     -0.121400
     24 C35         6.5330   -4.0330    0.9760 c3        1 IY7      0.143800
     25 N29         3.5030    1.1860   -0.5990 n         1 IY7     -0.550900
     26 N36         6.5380   -5.4680    0.8130 n3        1 IY7     -0.908800
     27 O19         1.5470   -0.6570   -2.0380 o         1 IY7     -0.837800
     28 O28        -7.4690   -4.8260    1.8170 o         1 IY7     -0.855800
     29 O18         1.4320   -1.2570    0.0910 o         1 IY7     -0.837800
     30 O31         5.1970    0.9230    0.9410 o         1 IY7     -0.673100
     31 O27        -7.0700   -4.8220   -0.3760 o         1 IY7     -0.855800
     32 O20        -1.5250   -2.0550   -0.4010 os        1 IY7     -0.294900
     33 O23        -4.0010   -0.6220   -0.0900 os        1 IY7     -0.333900
     34 H2          2.0490    8.0990   -0.4090 ha        1 IY7      0.110000
     35 H3         -0.1800    7.1840    0.2090 ha        1 IY7      0.115000
     36 H1          3.9650    6.5620   -0.8590 ha        1 IY7      0.119000
     37 H4         -0.5350    4.7140    0.3700 ha        1 IY7      0.142000
     38 H12        -1.6980    3.1890   -0.8480 ha        1 IY7      0.106000
     39 H13        -3.7920    1.9350   -0.3070 ha        1 IY7      0.126000
     40 H71C        3.9660    3.5340   -1.7930 hc        1 IY7      0.056700
     41 H72C        4.7420    3.8830   -0.1930 hc        1 IY7      0.056700
     42 H9          1.0630    2.3720    0.8150 hc        1 IY7      0.082700
     43 H101        1.3820    1.5830   -2.0030 hc        1 IY7      0.064700
     44 H102        0.3990    3.0810   -1.9540 hc        1 IY7      0.064700
     45 H321        3.5120   -1.4890   -0.2620 hc        1 IY7      0.106700
     46 H322        4.8270   -1.0760   -1.4420 hc        1 IY7      0.106700
     47 H29         2.8600    0.6800   -1.1850 hn        1 IY7      0.363500
     48 H251       -5.3700   -3.4990    2.1450 hc        1 IY7      0.023200
     49 H252       -4.5920   -4.5610    0.9020 hc        1 IY7      0.023200
     50 H8          3.3410    2.4680    1.0350 h1        1 IY7      0.061700
     51 H211       -2.6230   -3.7370   -0.1880 h1        1 IY7      0.064700
     52 H212       -3.1010   -2.6800   -1.6180 h1        1 IY7      0.064700
     53 H22        -3.5360   -2.0000    1.3940 h1        1 IY7      0.054700
     54 H241       -6.0170   -1.8590    0.3930 hc        1 IY7      0.058200
     55 H242       -5.3990   -2.9540   -0.9020 hc        1 IY7      0.058200
     56 H331        6.5820   -1.3930    0.2880 hc        1 IY7      0.040700
     57 H332        5.3320   -1.6130    1.5670 hc        1 IY7      0.040700
     58 H341        4.4580   -3.6480    0.4060 hc        1 IY7      0.047200
     59 H342        5.6570   -3.4280   -0.9270 hc        1 IY7      0.047200
     60 H351        7.5560   -3.6550    0.6930 h1        1 IY7      0.044200
     61 H352        6.3820   -3.8100    2.0700 h1        1 IY7      0.044200
     62 H361        5.6740   -5.8570    1.1430 hn        1 IY7      0.337300
     63 H362        6.6290   -5.7060   -0.1570 hn        1 IY7      0.337300
     64 C25        -5.4140   -3.8210    1.0740 c3        1 IY7     -0.193400
     65 C30         4.4480    0.4230    0.0690 c         1 IY7      0.671100
     66 C17         0.9320   -0.7000   -0.9260 c         1 IY7      0.916200
@<TRIPOS>BOND
     1    1    2 ar  
     2    1    3 ar  
     3    1   34 1   
     4    2    4 ar  
     5    2   35 1   
     6    3    8 ar  
     7    3   36 1   
     8    4    9 ar  
     9    4   37 1   
    10    5    6 ar  
    11    5   10 ar  
    12    5   38 1   
    13    6   11 ar  
    14    6   39 1   
    15    7   10 ar  
    16    7   12 ar  
    17    7   66 1   
    18    8    9 ar  
    19    8   14 1   
    20    9   16 1   
    21   10   19 1   
    22   11   12 ar  
    23   11   33 1   
    24   12   32 1   
    25   13   28 1   
    26   13   31 1   
    27   13   64 1   
    28   14   17 1   
    29   14   40 1   
    30   14   41 1   
    31   15   18 1   
    32   15   32 1   
    33   15   51 1   
    34   15   52 1   
    35   16   17 1   
    36   16   19 1   
    37   16   42 1   
    38   17   25 1   
    39   17   50 1   
    40   18   21 1   
    41   18   33 1   
    42   18   53 1   
    43   19   43 1   
    44   19   44 1   
    45   20   22 1   
    46   20   45 1   
    47   20   46 1   
    48   20   65 1   
    49   21   54 1   
    50   21   55 1   
    51   21   64 1   
    52   22   23 1   
    53   22   56 1   
    54   22   57 1   
    55   23   24 1   
    56   23   58 1   
    57   23   59 1   
    58   24   26 1   
    59   24   60 1   
    60   24   61 1   
    61   25   47 1   
    62   25   65 1   
    63   26   62 1   
    64   26   63 1   
    65   27   66 1   
    66   29   66 1   
    67   30   65 2   
    68   48   64 1   
    69   49   64 1   
@<TRIPOS>SUBSTRUCTURE
     1 IY7         1 TEMP              0 ****  ****    0 ROOT
