@<TRIPOS>MOLECULE
IYG
   37    37     1     0     0
SMALL
bcc


@<TRIPOS>ATOM
      1 CAN         0.3600   -1.2360   -0.6820 c3        1 IYG     -0.184100
      2 CN          1.2400   -0.0700   -0.3920 c         1 IYG      0.588100
      3 ON          1.2720    0.6370    0.6000 o         1 IYG     -0.418100
      4 N           2.2080    0.3140   -1.5160 n4        1 IYG     -0.680800
      5 CA          3.6640    0.2970   -1.1400 c3        1 IYG      0.050500
      6 CB          4.0550    1.5010   -0.2690 c3        1 IYG     -0.038100
      7 CG          3.6990    2.7830   -0.9300 ca        1 IYG     -0.218300
      8 CD1         2.5830    3.5090   -0.5040 ca        1 IYG     -0.046000
      9 CE1         2.2580    4.7300   -1.0890 ca        1 IYG     -0.050600
     10 CD2         4.5140    3.3080   -1.9420 ca        1 IYG     -0.046000
     11 CE2         4.2180    4.5230   -2.5470 ca        1 IYG     -0.050600
     12 CZ          3.0800    5.2450   -2.1130 ca        1 IYG      0.233100
     13 OH          2.8420    6.4280   -2.7440 oh        1 IYG     -0.455100
     14 I1          0.6220    5.6960   -0.4020 i         1 IYG     -0.072400
     15 I2          5.4570    5.1790   -4.0030 i         1 IYG     -0.072400
     16 C           4.0430   -1.0220   -0.4280 c         1 IYG      0.654100
     17 O           3.1490   -1.7380    0.0650 o         1 IYG     -0.598100
     18 NT          5.3830   -1.3140   -0.3280 n         1 IYG     -0.497900
     19 CAT         5.8070   -2.6490    0.0060 c3        1 IYG     -0.023000
     20 CT          5.8140   -3.5980   -1.1830 c         1 IYG      0.600100
     21 OT1         6.2890   -4.8580   -1.0200 oh        1 IYG     -0.540100
     22 OT2         5.4110   -3.3370   -2.3170 o         1 IYG     -0.498000
     23 HAN1       -0.0970   -1.1800   -1.7010 hc        1 IYG      0.119367
     24 HAN2       -0.4590   -1.2590    0.0860 hc        1 IYG      0.119367
     25 HAN3        0.9600   -2.1830   -0.5900 hc        1 IYG      0.119367
     26 H           2.0690   -0.3300   -2.3000 hn        1 IYG      0.465800
     27 HA          4.2310    0.3630   -2.1220 hx        1 IYG      0.116700
     28 HB1         3.5570    1.4210    0.7370 hc        1 IYG      0.101200
     29 HB2         5.1660    1.4510   -0.1010 hc        1 IYG      0.101200
     30 HD1         1.9650    3.1100    0.3210 ha        1 IYG      0.155000
     31 HD2         5.4140    2.7490   -2.2520 ha        1 IYG      0.155000
     32 H1O         2.0780    6.8710   -2.3310 ho        1 IYG      0.452000
     33 HT1         6.5790   -4.9970   -0.1050 ho        1 IYG      0.439000
     34 HAT1        6.8500   -2.5870    0.4320 h1        1 IYG      0.112700
     35 HAT2        5.1140   -3.0740    0.7920 h1        1 IYG      0.112700
     36 H2          1.9910    1.2780   -1.8130 hn        1 IYG      0.465800
     37 HT2         6.0240   -0.7780   -0.8740 hn        1 IYG      0.328500
@<TRIPOS>BOND
     1    1    2 1   
     2    1   23 1   
     3    1   24 1   
     4    1   25 1   
     5    2    3 2   
     6    2    4 1   
     7    4    5 1   
     8    4   26 1   
     9    4   36 1   
    10    5    6 1   
    11    5   16 1   
    12    5   27 1   
    13    6    7 1   
    14    6   28 1   
    15    6   29 1   
    16    7    8 ar  
    17    7   10 ar  
    18    8    9 ar  
    19    8   30 1   
    20    9   12 ar  
    21    9   14 1   
    22   10   11 ar  
    23   10   31 1   
    24   11   12 ar  
    25   11   15 1   
    26   12   13 1   
    27   13   32 1   
    28   16   17 2   
    29   16   18 1   
    30   18   19 1   
    31   18   37 1   
    32   19   20 1   
    33   19   34 1   
    34   19   35 1   
    35   20   21 1   
    36   20   22 2   
    37   21   33 1   
@<TRIPOS>SUBSTRUCTURE
     1 IYG         1 TEMP              0 ****  ****    0 ROOT
