@<TRIPOS>MOLECULE
IYG
   37    37     1     0     0
SMALL
bcc


@<TRIPOS>ATOM
      1 CAN         0.3370   -1.2460   -0.5450 c3        1 IYG     -0.184100
      2 CN          1.2360   -0.0920   -0.2680 c         1 IYG      0.588100
      3 ON          1.3240    0.5860    0.7410 o         1 IYG     -0.417100
      4 N           2.1460    0.3230   -1.4300 ny        1 IYG     -0.681800
      5 CA          3.6190    0.3000   -1.1300 c3        1 IYG      0.050500
      6 CB          4.0550    1.4900   -0.2590 c3        1 IYG     -0.039100
      7 CG          3.6770    2.7830   -0.8860 ca        1 IYG     -0.215300
      8 CD1         2.5230    3.4570   -0.4620 ca        1 IYG     -0.047500
      9 CE1         2.1610    4.6800   -1.0130 ca        1 IYG     -0.049600
     10 CD2         4.4940    3.3700   -1.8560 ca        1 IYG     -0.047500
     11 CE2         4.1620    4.5950   -2.4260 ca        1 IYG     -0.049600
     12 CZ          2.9900    5.2580   -2.0030 ca        1 IYG      0.233100
     13 OH          2.5800    6.4550   -2.5080 oh        1 IYG     -0.455100
     14 I1          0.4710    5.5560   -0.3340 i         1 IYG     -0.072400
     15 I2          5.4100    5.3520   -3.8230 i         1 IYG     -0.072400
     16 C           4.0330   -1.0320   -0.4640 c         1 IYG      0.654100
     17 O           3.1630   -1.7680    0.0430 o         1 IYG     -0.598100
     18 NT          5.3790   -1.3150   -0.4170 ns        1 IYG     -0.497900
     19 CAT         5.8260   -2.6530   -0.1280 c3        1 IYG     -0.024000
     20 CT          5.8270   -3.5670   -1.3440 c         1 IYG      0.600100
     21 OT1         6.3120   -4.8280   -1.2210 oh        1 IYG     -0.540100
     22 OT2         5.4150   -3.2760   -2.4670 o         1 IYG     -0.497000
     23 HAN1        0.9360   -2.1960   -0.5110 hc        1 IYG      0.119033
     24 HAN2       -0.4410   -1.2880    0.2630 hc        1 IYG      0.119033
     25 HAN3       -0.1720   -1.1590   -1.5370 hc        1 IYG      0.119033
     26 H           1.9680   -0.3030   -2.2210 hn        1 IYG      0.465800
     27 HA          4.1350    0.3830   -2.1380 hx        1 IYG      0.116700
     28 HB1         5.1720    1.4310   -0.1400 hc        1 IYG      0.101700
     29 HB2         3.6010    1.3990    0.7660 hc        1 IYG      0.101700
     30 HD1         1.9090    3.0120    0.3430 ha        1 IYG      0.154500
     31 HD2         5.4210    2.8560   -2.1640 ha        1 IYG      0.154500
     32 H1O         3.2450    6.7880   -3.1380 ho        1 IYG      0.453000
     33 HT1         6.6100   -4.9910   -0.3130 ho        1 IYG      0.439000
     34 HAT1        5.1520   -3.1090    0.6570 h1        1 IYG      0.112700
     35 HAT2        6.8750   -2.5880    0.2830 h1        1 IYG      0.112700
     36 H2          1.9110    1.2920   -1.6940 hn        1 IYG      0.465800
     37 HT2         5.9950   -0.7620   -0.9740 hn        1 IYG      0.328500
@<TRIPOS>BOND
     1    1    2 1   
     2    1   23 1   
     3    1   24 1   
     4    1   25 1   
     5    2    3 2   
     6    2    4 1   
     7    4    5 1   
     8    4   26 1   
     9    4   36 1   
    10    5    6 1   
    11    5   16 1   
    12    5   27 1   
    13    6    7 1   
    14    6   28 1   
    15    6   29 1   
    16    7    8 ar  
    17    7   10 ar  
    18    8    9 ar  
    19    8   30 1   
    20    9   12 ar  
    21    9   14 1   
    22   10   11 ar  
    23   10   31 1   
    24   11   12 ar  
    25   11   15 1   
    26   12   13 1   
    27   13   32 1   
    28   16   17 2   
    29   16   18 1   
    30   18   19 1   
    31   18   37 1   
    32   19   20 1   
    33   19   34 1   
    34   19   35 1   
    35   20   21 1   
    36   20   22 2   
    37   21   33 1   
@<TRIPOS>SUBSTRUCTURE
     1 IYG         1 TEMP              0 ****  ****    0 ROOT
