@<TRIPOS>MOLECULE
IYG
   35    35     1     0     0
SMALL
bcc


@<TRIPOS>ATOM
      1 CAN         4.3720    1.7270    1.6560 c3        1 IYG     -0.183100
      2 CN          3.2230    0.7410    1.6320 c         1 IYG      0.661100
      3 ON          3.4100   -0.4220    1.2230 o         1 IYG     -0.617100
      4 N           1.9700    1.2420    1.9910 n         1 IYG     -0.508900
      5 CA          0.8990    0.4350    2.5410 c3        1 IYG      0.017700
      6 CB          0.6300   -0.8950    1.8260 c3        1 IYG     -0.040100
      7 CG          0.1210   -0.6960    0.4410 ca        1 IYG     -0.105300
      8 CD1         0.9650   -0.8840   -0.6570 ca        1 IYG     -0.041500
      9 CE1         0.4890   -0.7270   -1.9580 ca        1 IYG     -0.041600
     10 CD2        -1.2140   -0.3370    0.2240 ca        1 IYG     -0.041500
     11 CE2        -1.7140   -0.1710   -1.0660 ca        1 IYG     -0.041600
     12 CZ         -0.8560   -0.3690   -2.1650 ca        1 IYG      0.183100
     13 OH         -1.4020   -0.1960   -3.4130 oh        1 IYG     -0.488100
     14 I1          1.7870   -1.0280   -3.4840 i         1 IYG     -0.142400
     15 I2         -3.6600    0.3480   -1.2660 i         1 IYG     -0.142400
     16 C           1.0880    0.1740    4.0680 c         1 IYG      0.604100
     17 O           2.2070    0.3620    4.5990 o         1 IYG     -0.652100
     18 NT         -0.0000   -0.2880    4.7500 n         1 IYG     -0.502900
     19 CAT        -0.0780   -0.2890    6.1900 c3        1 IYG     -0.064000
     20 CT         -1.5020    0.0660    6.7200 c         1 IYG      0.907600
     21 OT1        -2.4210    0.2880    5.8800 o         1 IYG     -0.832800
     22 OT2        -1.6330    0.1040    7.9710 o         1 IYG     -0.832800
     23 HAN1        4.6260    1.9700    2.7160 hc        1 IYG      0.063033
     24 HAN2        5.2600    1.2600    1.1660 hc        1 IYG      0.063033
     25 HAN3        4.1100    2.6670    1.1150 hc        1 IYG      0.063033
     26 H           2.0260    2.1210    2.4680 hn        1 IYG      0.291500
     27 HA         -0.0330    1.0770    2.4270 h1        1 IYG      0.070700
     28 HB1         1.5660   -1.5170    1.8140 hc        1 IYG      0.084200
     29 HB2        -0.1430   -1.4610    2.4130 hc        1 IYG      0.084200
     30 HD1         2.0230   -1.1500   -0.4710 ha        1 IYG      0.169500
     31 HD2        -1.8750   -0.1870    1.0950 ha        1 IYG      0.169500
     32 H1O        -0.7100   -0.3560   -4.0750 ho        1 IYG      0.427000
     33 HT1        -0.9000   -0.2220    4.3090 hn        1 IYG      0.324500
     34 HAT1        0.1890   -1.3170    6.5590 h1        1 IYG      0.046200
     35 HAT2        0.6600    0.4380    6.6240 h1        1 IYG      0.046200
@<TRIPOS>BOND
     1    1    2 1   
     2    1   23 1   
     3    1   24 1   
     4    1   25 1   
     5    2    3 2   
     6    2    4 1   
     7    4    5 1   
     8    4   26 1   
     9    5    6 1   
    10    5   16 1   
    11    5   27 1   
    12    6    7 1   
    13    6   28 1   
    14    6   29 1   
    15    7    8 ar  
    16    7   10 ar  
    17    8    9 ar  
    18    8   30 1   
    19    9   12 ar  
    20    9   14 1   
    21   10   11 ar  
    22   10   31 1   
    23   11   12 ar  
    24   11   15 1   
    25   12   13 1   
    26   13   32 1   
    27   16   17 2   
    28   16   18 1   
    29   18   19 1   
    30   18   33 1   
    31   19   20 1   
    32   19   34 1   
    33   19   35 1   
    34   20   21 1   
    35   20   22 1   
@<TRIPOS>SUBSTRUCTURE
     1 IYG         1 TEMP              0 ****  ****    0 ROOT
