@<TRIPOS>MOLECULE
IYG
   37    37     1     0     0
SMALL
bcc


@<TRIPOS>ATOM
      1 CAN         0.3650   -1.2450   -0.3760 c3        1 IYG     -0.184100
      2 CN          1.2690   -0.0820   -0.1620 c         1 IYG      0.588100
      3 ON          1.3940    0.6200    0.8270 o         1 IYG     -0.417100
      4 N           2.1310    0.3080   -1.3680 n4        1 IYG     -0.681800
      5 CA          3.6150    0.2970   -1.1250 c3        1 IYG      0.050500
      6 CB          4.0800    1.5080   -0.3010 c3        1 IYG     -0.039100
      7 CG          3.6720    2.7850   -0.9420 ca        1 IYG     -0.215300
      8 CD1         2.5340    3.4660   -0.4890 ca        1 IYG     -0.047500
      9 CE1         2.1450    4.6740   -1.0540 ca        1 IYG     -0.049600
     10 CD2         4.4490    3.3520   -1.9560 ca        1 IYG     -0.047500
     11 CE2         4.0900    4.5630   -2.5420 ca        1 IYG     -0.049600
     12 CZ          2.9330    5.2310   -2.0900 ca        1 IYG      0.233100
     13 OH          2.4990    6.4140   -2.6050 oh        1 IYG     -0.455100
     14 I1          0.4790    5.5600   -0.3310 i         1 IYG     -0.072400
     15 I2          5.2800    5.2900   -4.0040 i         1 IYG     -0.072400
     16 C           4.0600   -1.0180   -0.4450 c         1 IYG      0.654100
     17 O           3.2140   -1.7440    0.1130 o         1 IYG     -0.598100
     18 NT          5.4080   -1.2950   -0.4460 n         1 IYG     -0.497900
     19 CAT         5.8710   -2.6250   -0.1430 c3        1 IYG     -0.024000
     20 CT          5.8270   -3.5680   -1.3360 c         1 IYG      0.600100
     21 OT1         6.3210   -4.8240   -1.2030 oh        1 IYG     -0.540100
     22 OT2         5.3670   -3.3040   -2.4480 o         1 IYG     -0.497000
     23 HAN1       -0.3810   -1.2700    0.4630 hc        1 IYG      0.119033
     24 HAN2       -0.1820   -1.1830   -1.3490 hc        1 IYG      0.119033
     25 HAN3        0.9690   -2.1930   -0.3430 hc        1 IYG      0.119033
     26 H           1.9240   -0.3370   -2.1370 hn        1 IYG      0.465800
     27 HA          4.0910    0.3580   -2.1550 hx        1 IYG      0.116700
     28 HB1         5.2010    1.4560   -0.2240 hc        1 IYG      0.101700
     29 HB2         3.6670    1.4400    0.7440 hc        1 IYG      0.101700
     30 HD1         1.9530    3.0380    0.3490 ha        1 IYG      0.154500
     31 HD2         5.3650    2.8340   -2.2880 ha        1 IYG      0.154500
     32 H1O         3.1370    6.7350   -3.2690 ho        1 IYG      0.453000
     33 HT1         5.9990   -0.7540   -1.0400 hn        1 IYG      0.328500
     34 HAT1        5.2310   -3.0640    0.6790 h1        1 IYG      0.112700
     35 HAT2        6.9360   -2.5470    0.2230 h1        1 IYG      0.112700
     36 H2          1.8820    1.2700   -1.6450 hn        1 IYG      0.465800
     37 HT2         6.6560   -4.9650   -0.3040 ho        1 IYG      0.439000
@<TRIPOS>BOND
     1    1    2 1   
     2    1   23 1   
     3    1   24 1   
     4    1   25 1   
     5    2    3 2   
     6    2    4 1   
     7    4    5 1   
     8    4   26 1   
     9    4   36 1   
    10    5    6 1   
    11    5   16 1   
    12    5   27 1   
    13    6    7 1   
    14    6   28 1   
    15    6   29 1   
    16    7    8 ar  
    17    7   10 ar  
    18    8    9 ar  
    19    8   30 1   
    20    9   12 ar  
    21    9   14 1   
    22   10   11 ar  
    23   10   31 1   
    24   11   12 ar  
    25   11   15 1   
    26   12   13 1   
    27   13   32 1   
    28   16   17 2   
    29   16   18 1   
    30   18   19 1   
    31   18   33 1   
    32   19   20 1   
    33   19   34 1   
    34   19   35 1   
    35   20   21 1   
    36   20   22 2   
    37   21   37 1   
@<TRIPOS>SUBSTRUCTURE
     1 IYG         1 TEMP              0 ****  ****    0 ROOT
