@<TRIPOS>MOLECULE
IYP
   24    24     1     0     0
SMALL
bcc


@<TRIPOS>ATOM
      1 OP4         1.5320    1.2120    1.3470 o         1 IYP     -0.925500
      2 P           2.0330   -0.2070    1.1990 p5        1 IYP      1.326900
      3 OP5         3.4780   -0.4790    1.4710 o         1 IYP     -0.925500
      4 OP6         0.9940   -1.2190    1.6260 o         1 IYP     -0.925500
      5 OP1         1.8250   -0.4630   -0.5050 os        1 IYP     -0.577200
      6 C1          0.9310    0.3430   -1.1620 c3        1 IYP      0.204400
      7 C2         -0.5480   -0.1050   -0.9840 c3        1 IYP      0.096100
      8 O2         -0.6140   -1.5080   -0.7850 oh        1 IYP     -0.689800
      9 C3         -1.1750    0.5970    0.2500 c3        1 IYP      0.143400
     10 O3         -1.0160    2.0040    0.1870 oh        1 IYP     -0.655800
     11 C4         -2.6280    0.2900    0.3750 cc        1 IYP     -0.118900
     12 N2         -3.1000   -1.0200    0.4180 na        1 IYP     -0.289900
     13 C6         -4.4890   -0.9560    0.5440 cc        1 IYP      0.307400
     14 N1         -4.9210    0.3290    0.6020 nd        1 IYP     -0.716000
     15 C5         -3.7770    1.1120    0.4970 cd        1 IYP      0.234200
     16 H3          1.0390    1.4110   -0.8270 h1        1 IYP     -0.005800
     17 H4          1.1550    0.2840   -2.2680 h1        1 IYP     -0.005800
     18 H5         -1.1420    0.1070   -1.9090 h1        1 IYP      0.015700
     19 H6          0.0840   -1.7070   -0.1080 ho        1 IYP      0.487000
     20 H7         -0.5920    0.1820    1.1510 h1        1 IYP      0.159700
     21 H8         -0.1660    2.1780    0.6450 ho        1 IYP      0.476000
     22 H9         -2.5150   -1.8130    0.2930 hn        1 IYP      0.331700
     23 H10        -5.1170   -1.8450    0.6020 h5        1 IYP      0.024100
     24 H12        -3.8010    2.1980    0.5140 h4        1 IYP      0.028100
@<TRIPOS>BOND
     1    1    2 1   
     2    2    3 1   
     3    2    4 1   
     4    2    5 1   
     5    5    6 1   
     6    6    7 1   
     7    6   16 1   
     8    6   17 1   
     9    7    8 1   
    10    7    9 1   
    11    7   18 1   
    12    8   19 1   
    13    9   10 1   
    14    9   11 1   
    15    9   20 1   
    16   10   21 1   
    17   11   12 1   
    18   11   15 2   
    19   12   13 1   
    20   12   22 1   
    21   13   14 2   
    22   13   23 1   
    23   14   15 1   
    24   15   24 1   
@<TRIPOS>SUBSTRUCTURE
     1 IYP         1 TEMP              0 ****  ****    0 ROOT
