@<TRIPOS>MOLECULE
IYP
   24    24     1     0     0
SMALL
bcc


@<TRIPOS>ATOM
      1 OP4         1.3280    0.2800   -2.7360 o         1 IYP     -0.925500
      2 P           2.3960    0.1390   -1.6750 p5        1 IYP      1.326900
      3 OP5         2.3790   -1.0810   -0.8120 o         1 IYP     -0.925500
      4 OP6         3.7220    0.7080   -2.1310 o         1 IYP     -0.925500
      5 OP1         2.0020    1.4600   -0.6210 os        1 IYP     -0.577200
      6 C1          1.2560    2.4860   -1.1430 c3        1 IYP      0.204400
      7 C2          2.0970    3.4940   -1.9780 c3        1 IYP      0.096100
      8 O2          3.4300    3.5350   -1.4980 oh        1 IYP     -0.689800
      9 C3          2.1220    3.0630   -3.4690 c3        1 IYP      0.143400
     10 O3          0.8150    2.8610   -3.9770 oh        1 IYP     -0.655800
     11 C4          2.8110    4.0750   -4.3200 cc        1 IYP     -0.118900
     12 N2          4.1040    4.5110   -4.0400 na        1 IYP     -0.289900
     13 C6          4.4470    5.4420   -5.0230 cc        1 IYP      0.307400
     14 N1          3.4460    5.6050   -5.9210 nd        1 IYP     -0.716000
     15 C5          2.4230    4.7640   -5.4970 cd        1 IYP      0.234200
     16 H3          0.4180    2.0850   -1.7770 h1        1 IYP     -0.005800
     17 H4          0.8140    3.0700   -0.2820 h1        1 IYP     -0.005800
     18 H5          1.6930    4.5330   -1.8700 h1        1 IYP      0.015700
     19 H6          3.6970    2.5860   -1.3920 ho        1 IYP      0.487000
     20 H7          2.6970    2.0660   -3.4750 h1        1 IYP      0.159700
     21 H8          0.6270    1.9130   -3.8100 ho        1 IYP      0.476000
     22 H9          4.6060    4.2370   -3.2280 hn        1 IYP      0.331700
     23 H10         5.4140    5.9450   -5.0440 h5        1 IYP      0.024100
     24 H12         1.4770    4.6720   -6.0230 h4        1 IYP      0.028100
@<TRIPOS>BOND
     1    1    2 1   
     2    2    3 1   
     3    2    4 1   
     4    2    5 1   
     5    5    6 1   
     6    6    7 1   
     7    6   16 1   
     8    6   17 1   
     9    7    8 1   
    10    7    9 1   
    11    7   18 1   
    12    8   19 1   
    13    9   10 1   
    14    9   11 1   
    15    9   20 1   
    16   10   21 1   
    17   11   12 1   
    18   11   15 2   
    19   12   13 1   
    20   12   22 1   
    21   13   14 2   
    22   13   23 1   
    23   14   15 1   
    24   15   24 1   
@<TRIPOS>SUBSTRUCTURE
     1 IYP         1 TEMP              0 ****  ****    0 ROOT
