@<TRIPOS>MOLECULE
IYP
   24    21     1     0     0
SMALL
bcc


@<TRIPOS>ATOM
      1 OP4        -2.2460   -3.0440    2.9880 o         1 IYP     -0.916500
      2 P          -0.7520   -2.8430    3.1650 p5        1 IYP      1.316900
      3 OP5        -0.4240   -2.7610    4.6480 o         1 IYP     -0.916500
      4 OP6        -0.0060   -4.0130    2.5450 o         1 IYP     -0.916500
      5 OP1        -0.3050   -1.4740    2.4380 os        1 IYP     -0.553200
      6 C1         -0.5170   -1.3480    1.0180 c3        1 IYP      0.195400
      7 C2         -0.1020    0.0750    0.5560 c3        1 IYP      0.103100
      8 O2          1.2610    0.2330    0.7200 oh        1 IYP     -0.702800
      9 C3         -0.4580    0.2560   -0.9030 c3        1 IYP      0.166300
     10 O3         -1.8090    0.5420   -1.0160 oh        1 IYP     -0.631800
     11 C4          0.3600    1.4140   -1.4890 ce        1 IYP      0.371400
     12 N2          1.3030    1.3140   -2.4370 n1        1 IYP     -0.981500
     13 C6          1.7280    2.5690   -2.7400 cg        1 IYP      0.214800
     14 N1          1.0360    3.4460   -1.9670 ne        1 IYP     -0.458400
     15 C5          0.1950    2.7440   -1.1970 c1        1 IYP      0.068500
     16 H3          0.0270   -2.0200    0.5430 h1        1 IYP     -0.005300
     17 H4         -1.4720   -1.4930    0.8150 h1        1 IYP     -0.005300
     18 H5         -0.5790    0.7500    1.0980 h1        1 IYP      0.016700
     19 H6          1.5820   -0.4460    1.1760 ho        1 IYP      0.515000
     20 H7         -0.2550   -0.5720   -1.3950 h1        1 IYP      0.069700
     21 H8         -2.1150    0.2120   -1.7710 ho        1 IYP      0.420000
     22 H9          1.5630    0.5470   -2.8530 DU        1 IYP      0.210000
     23 H10         2.4070    2.7990   -3.3940 DU        1 IYP      0.210000
     24 H12        -0.4240    3.1120   -0.5460 DU        1 IYP      0.210000
@<TRIPOS>BOND
     1    1    2 1   
     2    2    3 1   
     3    2    4 1   
     4    2    5 1   
     5    5    6 1   
     6    6    7 1   
     7    6   16 1   
     8    6   17 1   
     9    7    8 1   
    10    7    9 1   
    11    7   18 1   
    12    8   19 1   
    13    9   10 1   
    14    9   11 1   
    15    9   20 1   
    16   10   21 1   
    17   11   12 1   
    18   11   15 2   
    19   12   13 3   
    20   13   14 1   
    21   14   15 2   
@<TRIPOS>SUBSTRUCTURE
     1 IYP         1 TEMP              0 ****  ****    0 ROOT
