@<TRIPOS>MOLECULE
IYR
   23    23     1     0     0
SMALL
bcc


@<TRIPOS>ATOM
      1 N           1.3150    0.9850    3.8760 n3        1 IYR     -0.890800
      2 CA          0.0350    0.4340    3.4520 c3        1 IYR      0.019500
      3 CB          0.1820   -0.8440    2.6170 c3        1 IYR     -0.032100
      4 CC          0.7490   -0.5960    1.2640 ca        1 IYR     -0.068300
      5 CD         -0.0840   -0.5730    0.1430 ca        1 IYR     -0.076000
      6 CE          0.4310   -0.3610   -1.1390 ca        1 IYR     -0.055100
      7 IE         -0.8580   -0.3530   -2.7020 i         1 IYR     -0.185900
      8 CF          1.8100   -0.1610   -1.2930 ca        1 IYR      0.130100
      9 OF          2.4380    0.0500   -2.5020 oh        1 IYR     -0.508100
     10 CG          2.6590   -0.1720   -0.1720 ca        1 IYR     -0.170000
     11 CH          2.1260   -0.3880    1.0920 ca        1 IYR     -0.065000
     12 C          -0.9580    0.1300    4.6270 c         1 IYR      0.888600
     13 O          -0.5990    0.4440    5.7970 o         1 IYR     -0.839300
     14 OXT        -2.0650   -0.3960    4.3300 o         1 IYR     -0.839300
     15 H           1.7610    0.3120    4.4770 hn        1 IYR      0.331800
     16 H2          1.1170    1.7840    4.4540 hn        1 IYR      0.331800
     17 HA         -0.4650    1.2160    2.8100 h1        1 IYR      0.046700
     18 HB2         0.8290   -1.5830    3.1600 hc        1 IYR      0.061200
     19 HB3        -0.8470   -1.2930    2.5320 hc        1 IYR      0.061200
     20 HD         -1.1680   -0.7210    0.2840 ha        1 IYR      0.152000
     21 HF          1.7580    0.0760   -3.1920 ho        1 IYR      0.416000
     22 HG          3.7350   -0.0040   -0.3160 ha        1 IYR      0.139000
     23 HH          2.7840   -0.3800    1.9750 ha        1 IYR      0.152000
@<TRIPOS>BOND
     1    1    2 1   
     2    1   15 1   
     3    1   16 1   
     4    2    3 1   
     5    2   12 1   
     6    2   17 1   
     7    3    4 1   
     8    3   18 1   
     9    3   19 1   
    10    4    5 ar  
    11    4   11 ar  
    12    5    6 ar  
    13    5   20 1   
    14    6    7 1   
    15    6    8 ar  
    16    8    9 1   
    17    8   10 ar  
    18    9   21 1   
    19   10   11 ar  
    20   10   22 1   
    21   11   23 1   
    22   12   13 1   
    23   12   14 1   
@<TRIPOS>SUBSTRUCTURE
     1 IYR         1 TEMP              0 ****  ****    0 ROOT
