@<TRIPOS>MOLECULE
IYT
   42    40     1     0     0
SMALL
bcc


@<TRIPOS>ATOM
      1 CAN        -3.8730    0.4430   -0.7310 c3        1 IYT     -0.249000
      2 CN         -2.3350    0.3420   -0.7700 c2        1 IYT      0.301000
      3 ON         -1.7790   -0.1650   -1.7390 o         1 IYT     -0.404000
      4 N          -1.5830    0.7270    0.3410 n         1 IYT     -0.357000
      5 CA         -0.1770    0.5080    0.3570 c3        1 IYT     -0.021000
      6 CB          0.5200    1.7330    0.9190 c3        1 IYT     -0.122000
      7 CG          0.5420    2.8460   -0.1490 c2        1 IYT     -0.084000
      8 CD1         1.3610    2.7330   -1.2300 c2        1 IYT     -0.039000
      9 CE1         1.5000    3.8000   -2.1080 c1        1 IYT     -0.345000
     10 CD2        -0.1550    4.0270    0.0730 c1        1 IYT     -0.039000
     11 CE2        -0.0190    5.0880   -0.7980 c1        1 IYT     -0.296000
     12 CZ          0.8010    4.9810   -1.8820 c1        1 IYT      0.137000
     13 OH          0.9490    6.0390   -2.7300 oh        1 IYT     -0.243000
     14 I1          2.6730    3.5830   -3.8640 i         1 IYT      0.129000
     15 I2         -1.0710    6.8760   -0.4460 i         1 IYT      0.150000
     16 C           0.1350   -0.6920    1.2190 c2        1 IYT      0.267000
     17 O          -0.1110   -0.6630    2.4460 o         1 IYT     -0.361000
     18 NT          0.7200   -1.8840    0.6200 n         1 IYT     -0.301000
     19 CAT         0.5240   -3.1700    1.2360 c3        1 IYT     -0.120000
     20 CBT         1.5240   -4.1690    0.6670 c3        1 IYT      0.048000
     21 OGT         1.1040   -4.5850   -0.6210 oh        1 IYT     -0.359000
     22 CGT         1.6140   -5.3750    1.5920 c3        1 IYT     -0.247000
     23 CT         -0.8730   -3.6480    0.9670 c2        1 IYT      0.306000
     24 OX1        -1.2320   -3.9130   -0.2090 o         1 IYT     -0.569000
     25 OX2        -1.7080   -3.7190    1.9140 o         1 IYT     -0.569000
     26 HAN1       -4.1500    0.8530    0.1100 hc        1 IYT      0.113000
     27 HAN2       -4.1900    1.0050   -1.4960 hc        1 IYT      0.113000
     28 HAN3       -4.2710   -0.4790   -0.8010 hc        1 IYT      0.113000
     29 H          -1.9920    1.1680    1.0460 hn        1 IYT      0.264000
     30 HA          0.1490    0.3410   -0.5810 h1        1 IYT      0.132000
     31 HB2         0.0550    2.0380    1.6820 hc        1 IYT      0.111500
     32 HB3         1.4780    1.4920    1.1780 hc        1 IYT      0.111500
     33 HD1         1.8570    1.8950   -1.3870 ha        1 IYT      0.152000
     34 HD2        -0.7530    4.1070    0.8600 ha        1 IYT      0.157000
     35 HH          1.7480    6.3810   -2.6350 ho        1 IYT      0.226000
     36 HNT         1.2310   -1.8120   -0.1700 hn        1 IYT      0.203000
     37 HAT         0.6590   -3.0930    2.1950 h1        1 IYT      0.125000
     38 HBT         2.4250   -3.7350    0.5990 h1        1 IYT      0.091000
     39 HGT         1.7750   -5.0020   -1.0330 ho        1 IYT      0.228000
     40 HGT1        1.7630   -5.0710    2.5000 hc        1 IYT      0.082667
     41 HGT2        0.7970   -5.8710    1.5520 hc        1 IYT      0.082667
     42 HGT3        2.3720   -5.9590    1.3070 hc        1 IYT      0.082667
@<TRIPOS>BOND
     1    1    2 1   
     2    1   26 1   
     3    1   27 1   
     4    1   28 1   
     5    2    3 1   
     6    2    4 1   
     7    4    5 1   
     8    4   29 1   
     9    5    6 1   
    10    5   16 1   
    11    5   30 1   
    12    6    7 1   
    13    6   31 1   
    14    6   32 1   
    15    7    8 1   
    16    7   10 1   
    17    8    9 1   
    18    8   33 1   
    19    9   14 1   
    20   10   34 1   
    21   11   12 1   
    22   11   15 1   
    23   12   13 1   
    24   13   35 1   
    25   16   17 1   
    26   16   18 1   
    27   18   19 1   
    28   18   36 1   
    29   19   20 1   
    30   19   23 1   
    31   19   37 1   
    32   20   21 1   
    33   20   22 1   
    34   20   38 1   
    35   21   39 1   
    36   22   40 1   
    37   22   41 1   
    38   22   42 1   
    39   23   24 1   
    40   23   25 1   
@<TRIPOS>SUBSTRUCTURE
     1 IYT         1 TEMP              0 ****  ****    0 ROOT
