@<TRIPOS>MOLECULE
IYT
   42    42     1     0     0
SMALL
bcc


@<TRIPOS>ATOM
      1 CAN         1.0160   -4.5380   -1.8350 c3        1 IYT     -0.183100
      2 CN          1.0360   -3.3470   -0.9010 c         1 IYT      0.661100
      3 ON          0.6650   -3.4790    0.2820 o         1 IYT     -0.614100
      4 N           1.3880   -2.1210   -1.4690 n         1 IYT     -0.510900
      5 CA          1.9790   -1.0190   -0.7390 c3        1 IYT      0.019700
      6 CB          1.3660   -0.7050    0.6320 c3        1 IYT     -0.044100
      7 CG         -0.0130   -0.1570    0.5150 ca        1 IYT     -0.104300
      8 CD1        -1.1220   -0.9690    0.7760 ca        1 IYT     -0.041000
      9 CE1        -2.4160   -0.4570    0.6910 ca        1 IYT     -0.041600
     10 CD2        -0.2150    1.1820    0.1630 ca        1 IYT     -0.041000
     11 CE2        -1.4980    1.7170    0.0680 ca        1 IYT     -0.041600
     12 CZ         -2.6060    0.8900    0.3350 ca        1 IYT      0.183100
     13 OH         -3.8470    1.4700    0.2290 oh        1 IYT     -0.488100
     14 I1         -3.9570   -1.7100    1.0910 i         1 IYT     -0.142900
     15 I2         -1.6740    3.6650   -0.4520 i         1 IYT     -0.142900
     16 C           3.5200   -1.1960   -0.5600 c         1 IYT      0.612100
     17 O           4.0340   -2.3350   -0.6500 o         1 IYT     -0.650100
     18 NT          4.2440   -0.0530   -0.4020 n         1 IYT     -0.501900
     19 CAT         5.6610   -0.0270   -0.1160 c3        1 IYT     -0.075300
     20 CBT         5.9810   -0.3780    1.3570 c3        1 IYT      0.139100
     21 OGT         5.3520    0.5100    2.2660 oh        1 IYT     -0.641800
     22 CGT         7.4840   -0.3950    1.5710 c3        1 IYT     -0.121100
     23 CT          6.2310    1.4070   -0.4320 c         1 IYT      0.914600
     24 OX1         7.2640    1.4700   -1.1410 o         1 IYT     -0.822800
     25 OX2         5.6150    2.3880    0.0740 o         1 IYT     -0.822800
     26 HAN1        0.4440   -4.3140   -2.7670 hc        1 IYT      0.063033
     27 HAN2        2.0650   -4.8130   -2.1040 hc        1 IYT      0.063033
     28 HAN3        0.5370   -5.4010   -1.3130 hc        1 IYT      0.063033
     29 H           1.8230   -2.2200   -2.3650 hn        1 IYT      0.291500
     30 HA          1.8100   -0.1130   -1.4030 h1        1 IYT      0.068700
     31 HB2         1.3690   -1.6270    1.2750 hc        1 IYT      0.088200
     32 HB3         2.0180    0.0590    1.1400 hc        1 IYT      0.088200
     33 HD1        -0.9490   -2.0290    1.0410 ha        1 IYT      0.169500
     34 HD2         0.6640    1.8190   -0.0380 ha        1 IYT      0.169500
     35 HH         -4.5170    0.7990    0.4400 ho        1 IYT      0.427000
     36 HNT         3.7770    0.8110   -0.2290 hn        1 IYT      0.324500
     37 HAT         6.1750   -0.7830   -0.7740 h1        1 IYT      0.075700
     38 HBT         5.5470   -1.3870    1.6150 h1        1 IYT      0.050700
     39 HGT         5.4940    1.4120    1.9340 ho        1 IYT      0.438000
     40 HGT1        7.7100   -0.4920    2.6590 hc        1 IYT      0.040033
     41 HGT2        7.9350   -1.2560    1.0240 hc        1 IYT      0.040033
     42 HGT3        7.9400    0.5510    1.1860 hc        1 IYT      0.040033
@<TRIPOS>BOND
     1    1    2 1   
     2    1   26 1   
     3    1   27 1   
     4    1   28 1   
     5    2    3 2   
     6    2    4 1   
     7    4    5 1   
     8    4   29 1   
     9    5    6 1   
    10    5   16 1   
    11    5   30 1   
    12    6    7 1   
    13    6   31 1   
    14    6   32 1   
    15    7    8 ar  
    16    7   10 ar  
    17    8    9 ar  
    18    8   33 1   
    19    9   12 ar  
    20    9   14 1   
    21   10   11 ar  
    22   10   34 1   
    23   11   12 ar  
    24   11   15 1   
    25   12   13 1   
    26   13   35 1   
    27   16   17 2   
    28   16   18 1   
    29   18   19 1   
    30   18   36 1   
    31   19   20 1   
    32   19   23 1   
    33   19   37 1   
    34   20   21 1   
    35   20   22 1   
    36   20   38 1   
    37   21   39 1   
    38   22   40 1   
    39   22   41 1   
    40   22   42 1   
    41   23   24 1   
    42   23   25 1   
@<TRIPOS>SUBSTRUCTURE
     1 IYT         1 TEMP              0 ****  ****    0 ROOT
