@<TRIPOS>MOLECULE
IYX
   42    44     1     0     0
SMALL
bcc


@<TRIPOS>ATOM
      1 C1         -0.2640   -0.2670   -0.0350 ca        1 IYX     -0.122800
      2 C2          0.9440   -1.0360   -0.1150 ca        1 IYX      0.001900
      3 C3         -0.8540   -0.0080    1.2160 ca        1 IYX     -0.058000
      4 C4          1.5340   -1.5310    1.0460 ca        1 IYX     -0.114000
      5 C5         -0.2580   -0.5050    2.3740 cp        1 IYX      0.030000
      6 C6          0.9350   -1.2660    2.2720 ca        1 IYX     -0.021000
      7 C7         -0.7100    0.1510   -1.3140 cc        1 IYX      0.058800
      8 C8          0.1380   -0.2910   -2.3330 cd        1 IYX     -0.412600
      9 S9          1.4450   -1.1970   -1.7170 ss        1 IYX      0.014500
     10 C10        -0.8510   -0.2550    3.6810 cp        1 IYX     -0.115000
     11 C11        -2.2380   -0.2730    3.8440 ca        1 IYX     -0.088000
     12 C12        -0.0200    0.0050    4.7900 ca        1 IYX     -0.166000
     13 C13        -2.8120   -0.0440    5.0950 ca        1 IYX     -0.194000
     14 C14        -0.5800    0.2450    6.0380 ca        1 IYX      0.116100
     15 C15        -2.0020    0.2170    6.2000 ca        1 IYX      0.160100
     16 O16         0.1240    0.5210    7.1860 os        1 IYX     -0.285900
     17 C17         1.5440    0.5390    7.0720 c3        1 IYX      0.105700
     18 O18        -2.4470    0.4600    7.4700 os        1 IYX     -0.282900
     19 C19        -3.8600    0.4210    7.6710 c3        1 IYX      0.102700
     20 C20        -0.0780   -0.0070   -3.7450 c3        1 IYX      0.484900
     21 N21         1.0870    0.8240   -4.2910 n4        1 IYX     -0.883100
     22 N22        -0.2770   -1.3160   -4.5140 n4        1 IYX     -0.883100
     23 H3         -1.7780    0.5910    1.2750 ha        1 IYX      0.170000
     24 H4          2.4590   -2.1280    1.0000 ha        1 IYX      0.173000
     25 H6          1.3910   -1.6660    3.1970 ha        1 IYX      0.182000
     26 H7         -1.6180    0.7500   -1.4590 ha        1 IYX      0.179000
     27 H11        -2.8950   -0.4890    2.9880 ha        1 IYX      0.128000
     28 H12         1.0710    0.0350    4.6600 ha        1 IYX      0.140000
     29 H13        -3.9070   -0.0750    5.2020 ha        1 IYX      0.158000
     30 H17         1.8770    0.7720    8.1170 h1        1 IYX      0.052367
     31 H17A        1.8730    1.3390    6.3650 h1        1 IYX      0.052367
     32 H17B        1.9270   -0.4590    6.7480 h1        1 IYX      0.052367
     33 H19        -4.2630   -0.5910    7.4270 h1        1 IYX      0.058700
     34 H19A       -4.3640    1.2090    7.0630 h1        1 IYX      0.058700
     35 H19B       -3.9620    0.6370    8.7660 h1        1 IYX      0.058700
     36 HN21        1.0000    1.0390   -5.2900 hn        1 IYX      0.487133
     37 HN2A        1.0800    1.7100   -3.7560 hn        1 IYX      0.487133
     38 HN2C       -0.4130   -1.1790   -5.5210 hn        1 IYX      0.487133
     39 HN2D       -1.1290   -1.7520   -4.1180 hn        1 IYX      0.487133
     40 H20        -1.0220    0.6140   -3.9280 hx        1 IYX      0.166700
     41 H213        1.9920    0.3660   -4.1100 hn        1 IYX      0.487133
     42 H223        0.5030   -1.9680   -4.3520 hn        1 IYX      0.487133
@<TRIPOS>BOND
     1    1    2 ar  
     2    1    3 ar  
     3    1    7 1   
     4    2    4 ar  
     5    2    9 1   
     6    3    5 ar  
     7    3   23 1   
     8    4    6 ar  
     9    4   24 1   
    10    5    6 ar  
    11    5   10 1   
    12    6   25 1   
    13    7    8 2   
    14    7   26 1   
    15    8    9 1   
    16    8   20 1   
    17   10   11 ar  
    18   10   12 ar  
    19   11   13 ar  
    20   11   27 1   
    21   12   14 ar  
    22   12   28 1   
    23   13   15 ar  
    24   13   29 1   
    25   14   15 ar  
    26   14   16 1   
    27   15   18 1   
    28   16   17 1   
    29   17   30 1   
    30   17   31 1   
    31   17   32 1   
    32   18   19 1   
    33   19   33 1   
    34   19   34 1   
    35   19   35 1   
    36   20   21 1   
    37   20   22 1   
    38   20   40 1   
    39   21   36 1   
    40   21   37 1   
    41   21   41 1   
    42   22   38 1   
    43   22   39 1   
    44   22   42 1   
@<TRIPOS>SUBSTRUCTURE
     1 IYX         1 TEMP              0 ****  ****    0 ROOT
