@<TRIPOS>MOLECULE
IYX
   42    44     1     0     0
SMALL
bcc


@<TRIPOS>ATOM
      1 C1         -0.2540   -0.2640   -0.0340 ca        1 IYX     -0.122800
      2 C2          0.9370   -1.0590   -0.1090 ca        1 IYX      0.001900
      3 C3         -0.8470    0.0040    1.2140 ca        1 IYX     -0.058000
      4 C4          1.5080   -1.5710    1.0540 ca        1 IYX     -0.114000
      5 C5         -0.2690   -0.5100    2.3740 cp        1 IYX      0.030000
      6 C6          0.9080   -1.2980    2.2770 ca        1 IYX     -0.021000
      7 C7         -0.6840    0.1680   -1.3140 cc        1 IYX      0.058800
      8 C8          0.1600   -0.2900   -2.3300 cd        1 IYX     -0.412600
      9 S9          1.4440   -1.2260   -1.7090 ss        1 IYX      0.014500
     10 C10        -0.8650   -0.2520    3.6780 cp        1 IYX     -0.115000
     11 C11        -2.2520   -0.2400    3.8320 ca        1 IYX     -0.088000
     12 C12        -0.0350   -0.0140    4.7930 ca        1 IYX     -0.166000
     13 C13        -2.8300   -0.0040    5.0800 ca        1 IYX     -0.194000
     14 C14        -0.5980    0.2330    6.0390 ca        1 IYX      0.116100
     15 C15        -2.0200    0.2350    6.1910 ca        1 IYX      0.160100
     16 O16         0.1050    0.4890    7.1920 os        1 IYX     -0.285900
     17 C17         1.5260    0.4780    7.0870 c3        1 IYX      0.105700
     18 O18        -2.4680    0.4830    7.4600 os        1 IYX     -0.282900
     19 C19        -3.8830    0.4740    7.6520 c3        1 IYX      0.102700
     20 C20        -0.0400    0.0040   -3.7430 c3        1 IYX      0.484900
     21 N21         1.1470    0.8090   -4.2790 nz        1 IYX     -0.883100
     22 N22        -0.2650   -1.2980   -4.5170 nz        1 IYX     -0.883100
     23 H3         -1.7570    0.6230    1.2700 ha        1 IYX      0.170000
     24 H4          2.4200   -2.1890    1.0110 ha        1 IYX      0.173000
     25 H6          1.3490   -1.7110    3.2030 ha        1 IYX      0.182000
     26 H7         -1.5770    0.7880   -1.4630 ha        1 IYX      0.179000
     27 H11        -2.9090   -0.4390    2.9720 ha        1 IYX      0.128000
     28 H12         1.0570   -0.0080    4.6700 ha        1 IYX      0.140000
     29 H13        -3.9250   -0.0110    5.1810 ha        1 IYX      0.158000
     30 H17         1.8760    1.2740    6.3850 h1        1 IYX      0.052367
     31 H17A        1.8570    0.7000    8.1340 h1        1 IYX      0.052367
     32 H17B        1.8900   -0.5260    6.7610 h1        1 IYX      0.052367
     33 H19        -3.9870    0.6870    8.7480 h1        1 IYX      0.058700
     34 H19A       -4.3670    1.2750    7.0440 h1        1 IYX      0.058700
     35 H19B       -4.3060   -0.5290    7.4020 h1        1 IYX      0.058700
     36 HN21        1.1570    1.6940   -3.7410 hn        1 IYX      0.487133
     37 HN2A        2.0390    0.3300   -4.0930 hn        1 IYX      0.487133
     38 HN2C       -0.3920   -1.1540   -5.5240 hn        1 IYX      0.487133
     39 HN2D        0.4990   -1.9680   -4.3530 hn        1 IYX      0.487133
     40 H20        -0.9680    0.6470   -3.9280 hx        1 IYX      0.166700
     41 H213        1.0700    1.0300   -5.2770 hn        1 IYX      0.487133
     42 H223       -1.1290   -1.7160   -4.1270 hn        1 IYX      0.487133
@<TRIPOS>BOND
     1    1    2 ar  
     2    1    3 ar  
     3    1    7 1   
     4    2    4 ar  
     5    2    9 1   
     6    3    5 ar  
     7    3   23 1   
     8    4    6 ar  
     9    4   24 1   
    10    5    6 ar  
    11    5   10 1   
    12    6   25 1   
    13    7    8 2   
    14    7   26 1   
    15    8    9 1   
    16    8   20 1   
    17   10   11 ar  
    18   10   12 ar  
    19   11   13 ar  
    20   11   27 1   
    21   12   14 ar  
    22   12   28 1   
    23   13   15 ar  
    24   13   29 1   
    25   14   15 ar  
    26   14   16 1   
    27   15   18 1   
    28   16   17 1   
    29   17   30 1   
    30   17   31 1   
    31   17   32 1   
    32   18   19 1   
    33   19   33 1   
    34   19   34 1   
    35   19   35 1   
    36   20   21 1   
    37   20   22 1   
    38   20   40 1   
    39   21   36 1   
    40   21   37 1   
    41   21   41 1   
    42   22   38 1   
    43   22   39 1   
    44   22   42 1   
@<TRIPOS>SUBSTRUCTURE
     1 IYX         1 TEMP              0 ****  ****    0 ROOT
