@<TRIPOS>MOLECULE
IYX
   40    42     1     0     0
SMALL
bcc


@<TRIPOS>ATOM
      1 C1         -2.0250   -0.2480    0.1640 ca        1 IYX     -0.087800
      2 C2         -2.3540    0.9350    0.8820 ca        1 IYX     -0.071100
      3 C3         -0.6850   -0.6050   -0.0350 ca        1 IYX     -0.078000
      4 C4         -1.3330    1.7460    1.3900 ca        1 IYX     -0.098000
      5 C5          0.3230    0.2100    0.4720 cp        1 IYX     -0.036000
      6 C6         -0.0140    1.3850    1.1840 ca        1 IYX     -0.110000
      7 C7         -3.2100   -0.9410   -0.2760 cc        1 IYX     -0.095200
      8 C8         -4.3500   -0.2890    0.1050 cd        1 IYX     -0.155600
      9 S9         -4.0280    1.1290    0.9810 ss        1 IYX      0.014500
     10 C10         1.7280   -0.1430    0.2760 cp        1 IYX     -0.039000
     11 C11         2.1520   -1.4660    0.4150 ca        1 IYX     -0.116000
     12 C12         2.6620    0.8530   -0.0560 ca        1 IYX     -0.169000
     13 C13         3.4930   -1.8100    0.2310 ca        1 IYX     -0.181000
     14 C14         4.0010    0.5220   -0.2460 ca        1 IYX      0.101100
     15 C15         4.4260   -0.8280   -0.1000 ca        1 IYX      0.107100
     16 O16         4.9980    1.4200   -0.5740 os        1 IYX     -0.303900
     17 C17         4.5810    2.7640   -0.7800 c3        1 IYX      0.110700
     18 O18         5.7710   -1.0500   -0.3070 os        1 IYX     -0.302900
     19 C19         6.2090   -2.3960   -0.1570 c3        1 IYX      0.109700
     20 C20        -5.7680   -0.7190   -0.1940 c3        1 IYX      0.473900
     21 N21        -6.1910   -0.3910   -1.5600 n3        1 IYX     -0.909800
     22 N22        -5.9310   -2.1450    0.1260 n3        1 IYX     -0.909800
     23 H3         -0.4410   -1.5200   -0.5950 ha        1 IYX      0.142000
     24 H4         -1.5810    2.6610    1.9490 ha        1 IYX      0.138000
     25 H6          0.7950    2.0140    1.5880 ha        1 IYX      0.137000
     26 H7         -3.1740   -1.8790   -0.8370 ha        1 IYX      0.168000
     27 H11         1.4270   -2.2500    0.6800 ha        1 IYX      0.138000
     28 H12         2.3210    1.8920   -0.1730 ha        1 IYX      0.143000
     29 H13         3.8020   -2.8580    0.3500 ha        1 IYX      0.141000
     30 H17         5.5310    3.2890   -1.0560 h1        1 IYX      0.044033
     31 H17A        3.8390    2.8280   -1.6120 h1        1 IYX      0.044033
     32 H17B        4.1540    3.1940    0.1590 h1        1 IYX      0.044033
     33 H19         5.7050   -3.0610   -0.8990 h1        1 IYX      0.044033
     34 H19A        7.3080   -2.3330   -0.3640 h1        1 IYX      0.044033
     35 H19B        6.0250   -2.7590    0.8830 h1        1 IYX      0.044033
     36 HN21       -5.8660    0.5280   -1.7900 hn        1 IYX      0.361550
     37 HN2A       -5.8220   -1.0410   -2.2270 hn        1 IYX      0.361550
     38 HN2C       -5.6380   -2.3040    1.0680 hn        1 IYX      0.361550
     39 HN2D       -6.8860   -2.4200    0.0150 hn        1 IYX      0.361550
     40 H20        -6.4450   -0.0810    0.4710 h2        1 IYX      0.030700
@<TRIPOS>BOND
     1    1    2 ar  
     2    1    3 ar  
     3    1    7 1   
     4    2    4 ar  
     5    2    9 1   
     6    3    5 ar  
     7    3   23 1   
     8    4    6 ar  
     9    4   24 1   
    10    5    6 ar  
    11    5   10 1   
    12    6   25 1   
    13    7    8 2   
    14    7   26 1   
    15    8    9 1   
    16    8   20 1   
    17   10   11 ar  
    18   10   12 ar  
    19   11   13 ar  
    20   11   27 1   
    21   12   14 ar  
    22   12   28 1   
    23   13   15 ar  
    24   13   29 1   
    25   14   15 ar  
    26   14   16 1   
    27   15   18 1   
    28   16   17 1   
    29   17   30 1   
    30   17   31 1   
    31   17   32 1   
    32   18   19 1   
    33   19   33 1   
    34   19   34 1   
    35   19   35 1   
    36   20   21 1   
    37   20   22 1   
    38   20   40 1   
    39   21   36 1   
    40   21   37 1   
    41   22   38 1   
    42   22   39 1   
@<TRIPOS>SUBSTRUCTURE
     1 IYX         1 TEMP              0 ****  ****    0 ROOT
