@<TRIPOS>MOLECULE
IYX
   40    31     1     0     0
SMALL
bcc


@<TRIPOS>ATOM
      1 C1          0.7510    0.3610   -1.8960 c1        1 IYX     -0.117500
      2 C2          2.2050    0.3910   -1.9300 c1        1 IYX     -0.117500
      3 C3          0.0960    0.3880   -0.6910 c1        1 IYX     -0.097750
      4 C4          2.9150    0.4470   -0.7580 c1        1 IYX     -0.097750
      5 C5          0.8310    0.4450    0.5090 c1        1 IYX     -0.117500
      6 C6          2.2360    0.4750    0.4760 c1        1 IYX     -0.097750
      7 C7          0.1980    0.2980   -3.4560 c1        1 IYX     -0.146000
      8 C8          1.3580    0.2940   -4.3560 c1        1 IYX     -0.373000
      9 S9          2.6630    0.3510   -3.4690 s         1 IYX      0.532000
     10 C10         0.1540    0.0240    1.6600 c1        1 IYX     -0.117500
     11 C11         0.0880   -1.3320    1.9730 c1        1 IYX     -0.144500
     12 C12        -0.4330    0.9670    2.5110 c1        1 IYX     -0.097750
     13 C13        -0.5640   -1.7510    3.1330 c1        1 IYX     -0.144500
     14 C14        -1.0820    0.5530    3.6660 c1        1 IYX      0.043000
     15 C15        -1.1490   -0.8080    3.9800 c1        1 IYX      0.043000
     16 O16        -1.5710    1.5230    4.5930 os        1 IYX     -0.210000
     17 C17        -2.8570    2.0480    4.2560 c3        1 IYX     -0.075500
     18 O18        -1.7930   -1.2150    5.1230 os        1 IYX     -0.210000
     19 C19        -3.0020   -1.9480    4.8860 c3        1 IYX     -0.075500
     20 C20         1.9600   -0.0080   -5.7240 c2        1 IYX      0.101000
     21 N21         1.3910   -1.2340   -6.2470 n3        1 IYX     -0.348500
     22 N22         1.6770    1.0640   -6.6080 n3        1 IYX     -0.348500
     23 H3         -0.9700    0.3650   -0.6630 ha        1 IYX      0.142500
     24 H4          3.9050    0.4670   -0.7800 ha        1 IYX      0.142500
     25 H6          2.7510    0.5170    1.3260 ha        1 IYX      0.142500
     26 H7         -0.7240    0.2700   -3.7270 DU        1 IYX      0.151000
     27 H11         0.5020   -1.9960    1.3720 ha        1 IYX      0.139000
     28 H12        -0.3880    1.8730    2.3020 ha        1 IYX      0.142500
     29 H13        -0.6110   -2.7090    3.3540 ha        1 IYX      0.139000
     30 H17        -2.7470    2.9320    3.8050 h1        1 IYX      0.084000
     31 H17A       -3.3080    1.4360    3.6610 h1        1 IYX      0.084000
     32 H17B       -3.3700    2.1570    5.0430 h1        1 IYX      0.084000
     33 H19        -3.7590   -1.3320    4.8690 h1        1 IYX      0.084000
     34 H19A       -3.1320   -2.6160    5.6200 h1        1 IYX      0.084000
     35 H19B       -2.9390   -2.4230    4.0090 h1        1 IYX      0.084000
     36 HN21        1.0190   -1.7600   -5.5140 hn        1 IYX      0.150500
     37 HN2A        0.7270   -1.0320   -6.8490 hn        1 IYX      0.150500
     38 HN2C        2.1490    1.7970   -6.3540 hn        1 IYX      0.150500
     39 HN2D        1.9150    0.8270   -7.4680 hn        1 IYX      0.150500
     40 H20         2.9070   -0.1090   -5.6380 h5        1 IYX      0.115000
@<TRIPOS>BOND
     1    1    3 1   
     2    2    4 1   
     3    3   23 1   
     4    4   24 1   
     5    5    6 1   
     6    6   25 1   
     7    7    8 1   
     8    8    9 1   
     9   10   12 1   
    10   11   13 1   
    11   11   27 1   
    12   12   28 1   
    13   13   29 1   
    14   14   15 1   
    15   14   16 1   
    16   15   18 1   
    17   16   17 1   
    18   17   30 1   
    19   17   31 1   
    20   17   32 1   
    21   18   19 1   
    22   19   33 1   
    23   19   34 1   
    24   19   35 1   
    25   20   21 1   
    26   20   22 1   
    27   20   40 1   
    28   21   36 1   
    29   21   37 1   
    30   22   38 1   
    31   22   39 1   
@<TRIPOS>SUBSTRUCTURE
     1 IYX         1 TEMP              0 ****  ****    0 ROOT
