@<TRIPOS>MOLECULE
IYX
   42    44     1     0     0
SMALL
bcc


@<TRIPOS>ATOM
      1 C1         -0.2630   -0.2630   -0.0350 ca        1 IYX     -0.122800
      2 C2          0.9310   -1.0520   -0.1170 ca        1 IYX      0.001900
      3 C3         -0.8510    0.0020    1.2160 ca        1 IYX     -0.058000
      4 C4          1.5120   -1.5600    1.0440 ca        1 IYX     -0.114000
      5 C5         -0.2640   -0.5090    2.3730 cp        1 IYX      0.030000
      6 C6          0.9170   -1.2900    2.2690 ca        1 IYX     -0.021000
      7 C7         -0.7020    0.1660   -1.3130 cc        1 IYX      0.058800
      8 C8          0.1390   -0.2870   -2.3330 cd        1 IYX     -0.412600
      9 S9          1.4310   -1.2160   -1.7190 ss        1 IYX      0.014500
     10 C10        -0.8540   -0.2540    3.6800 cp        1 IYX     -0.115000
     11 C11        -2.2410   -0.2500    3.8410 ca        1 IYX     -0.088000
     12 C12        -0.0200   -0.0120    4.7910 ca        1 IYX     -0.166000
     13 C13        -2.8130   -0.0160    5.0930 ca        1 IYX     -0.194000
     14 C14        -0.5780    0.2320    6.0400 ca        1 IYX      0.116100
     15 C15        -2.0000    0.2270    6.1990 ca        1 IYX      0.160100
     16 O16         0.1300    0.4930    7.1890 os        1 IYX     -0.285900
     17 C17         1.5500    0.4890    7.0760 c3        1 IYX      0.105700
     18 O18        -2.4420    0.4730    7.4710 os        1 IYX     -0.282900
     19 C19        -3.8560    0.4550    7.6700 c3        1 IYX      0.102700
     20 C20        -0.0710    0.0060   -3.7450 c3        1 IYX      0.484900
     21 N21         1.1090    0.8170   -4.2880 n4        1 IYX     -0.883100
     22 N22        -0.2920   -1.2970   -4.5180 n4        1 IYX     -0.883100
     23 H3         -1.7640    0.6160    1.2760 ha        1 IYX      0.170000
     24 H4          2.4270   -2.1730    0.9960 ha        1 IYX      0.173000
     25 H6          1.3650   -1.7000    3.1930 ha        1 IYX      0.182000
     26 H7         -1.5990    0.7820   -1.4570 ha        1 IYX      0.179000
     27 H11        -2.9010   -0.4520    2.9850 ha        1 IYX      0.128000
     28 H12         1.0720    0.0010    4.6620 ha        1 IYX      0.140000
     29 H13        -3.9090   -0.0290    5.1990 ha        1 IYX      0.158000
     30 H17         1.8920    1.2870    6.3730 h1        1 IYX      0.052367
     31 H17A        1.8850    0.7130    8.1220 h1        1 IYX      0.052367
     32 H17B        1.9180   -0.5130    6.7490 h1        1 IYX      0.052367
     33 H19        -3.9550    0.6680    8.7660 h1        1 IYX      0.058700
     34 H19A       -4.3470    1.2540    7.0640 h1        1 IYX      0.058700
     35 H19B       -4.2750   -0.5490    7.4210 h1        1 IYX      0.058700
     36 HN21        1.1170    1.7030   -3.7500 hn        1 IYX      0.487133
     37 HN2A        2.0050    0.3430   -4.1070 hn        1 IYX      0.487133
     38 HN2C       -0.4260   -1.1550   -5.5240 hn        1 IYX      0.487133
     39 HN2D        0.4760   -1.9640   -4.3570 hn        1 IYX      0.487133
     40 H20        -1.0040    0.6440   -3.9260 hx        1 IYX      0.166700
     41 H213        1.0260    1.0370   -5.2850 hn        1 IYX      0.487133
     42 H223       -1.1510   -1.7200   -4.1230 hn        1 IYX      0.487133
@<TRIPOS>BOND
     1    1    2 ar  
     2    1    3 ar  
     3    1    7 1   
     4    2    4 ar  
     5    2    9 1   
     6    3    5 ar  
     7    3   23 1   
     8    4    6 ar  
     9    4   24 1   
    10    5    6 ar  
    11    5   10 1   
    12    6   25 1   
    13    7    8 2   
    14    7   26 1   
    15    8    9 1   
    16    8   20 1   
    17   10   11 ar  
    18   10   12 ar  
    19   11   13 ar  
    20   11   27 1   
    21   12   14 ar  
    22   12   28 1   
    23   13   15 ar  
    24   13   29 1   
    25   14   15 ar  
    26   14   16 1   
    27   15   18 1   
    28   16   17 1   
    29   17   30 1   
    30   17   31 1   
    31   17   32 1   
    32   18   19 1   
    33   19   33 1   
    34   19   34 1   
    35   19   35 1   
    36   20   21 1   
    37   20   22 1   
    38   20   40 1   
    39   21   36 1   
    40   21   37 1   
    41   21   41 1   
    42   22   38 1   
    43   22   39 1   
    44   22   42 1   
@<TRIPOS>SUBSTRUCTURE
     1 IYX         1 TEMP              0 ****  ****    0 ROOT
