@<TRIPOS>MOLECULE
IYZ
   41    44     1     0     0
SMALL
bcc


@<TRIPOS>ATOM
      1 CAJ         0.3860    0.0540   -0.1710 cx        1 IYZ     -0.121400
      2 CAK         1.6970   -0.4230    0.3750 cx        1 IYZ     -0.121400
      3 CAV         0.5900   -0.0330    1.3180 cx        1 IYZ     -0.151700
      4 CAL         0.6870    1.2550    2.0960 c3        1 IYZ      0.220800
      5 NAO         1.5600    1.1420    3.2450 nh        1 IYZ     -0.827900
      6 CAS         1.5870    2.1600    4.2070 cc        1 IYZ      0.607200
      7 CAF         2.2800    1.8770    5.4680 cc        1 IYZ     -0.272300
      8 CAG         2.4150    2.8630    6.3960 cd        1 IYZ     -0.017000
      9 NAN         1.0510    3.3770    3.9240 nd        1 IYZ     -0.553800
     10 NAW         1.2060    4.3290    4.8350 na        1 IYZ      0.211200
     11 CAU         1.8670    4.1560    6.1090 cd        1 IYZ     -0.106300
     12 NAM         1.8360    5.3140    6.8350 nc        1 IYZ     -0.253600
     13 CAH         1.1630    6.2230    6.0560 cc        1 IYZ      0.010600
     14 CAT         0.7550    5.6600    4.8090 cd        1 IYZ     -0.082300
     15 CAR         0.0250    6.3080    3.7420 ca        1 IYZ     -0.024800
     16 CAI        -0.9480    7.2620    4.0790 ca        1 IYZ     -0.062000
     17 CAE         0.2790    6.0360    2.3910 ca        1 IYZ     -0.077000
     18 CAC        -0.4350    6.7070    1.3980 ca        1 IYZ     -0.149000
     19 CAD        -1.4020    7.6500    1.7360 ca        1 IYZ     -0.090000
     20 CAQ        -1.6630    7.9350    3.0820 ca        1 IYZ     -0.178600
     21 CAP        -2.6780    8.9330    3.4850 c         1 IYZ      0.577700
     22 CAA        -3.5310    9.5220    2.4060 c3        1 IYZ     -0.198100
     23 OAB        -2.8210    9.2700    4.6680 o         1 IYZ     -0.536100
     24 HAJ1        0.3320    1.0490   -0.6480 hc        1 IYZ      0.075450
     25 HAJ2       -0.2940   -0.6710   -0.6530 hc        1 IYZ      0.075450
     26 HAK1        1.9640   -1.4900    0.2820 hc        1 IYZ      0.075450
     27 HAK2        2.5830    0.2330    0.2950 hc        1 IYZ      0.075450
     28 HAV         0.0660   -0.8370    1.8720 hc        1 IYZ      0.079700
     29 HAL1       -0.3570    1.5630    2.4010 h1        1 IYZ      0.056700
     30 HAL2        1.1020    2.0730    1.4380 h1        1 IYZ      0.056700
     31 HAO         1.6160    0.2270    3.6400 hn        1 IYZ      0.414800
     32 HAF         2.6890    0.8720    5.6390 ha        1 IYZ      0.152000
     33 HAG         2.9230    2.7140    7.3610 ha        1 IYZ      0.169000
     34 HAH         0.9890    7.2480    6.3870 h4        1 IYZ      0.189000
     35 HAI        -1.1580    7.4890    5.1380 ha        1 IYZ      0.161000
     36 HAE         1.0470    5.3020    2.1030 ha        1 IYZ      0.151000
     37 HAC        -0.2300    6.4890    0.3400 ha        1 IYZ      0.136000
     38 HAD        -1.9550    8.1700    0.9380 ha        1 IYZ      0.134000
     39 HAA1       -4.3040   10.1970    2.8490 hc        1 IYZ      0.064367
     40 HAA2       -4.0430    8.7100    1.8350 hc        1 IYZ      0.064367
     41 HAA3       -2.8970   10.1160    1.7030 hc        1 IYZ      0.064367
@<TRIPOS>BOND
     1    1    2 1   
     2    1    3 1   
     3    1   24 1   
     4    1   25 1   
     5    2    3 1   
     6    2   26 1   
     7    2   27 1   
     8    3    4 1   
     9    3   28 1   
    10    4    5 1   
    11    4   29 1   
    12    4   30 1   
    13    5    6 1   
    14    5   31 1   
    15    6    7 1   
    16    6    9 2   
    17    7    8 2   
    18    7   32 1   
    19    8   11 1   
    20    8   33 1   
    21    9   10 1   
    22   10   11 1   
    23   10   14 1   
    24   11   12 2   
    25   12   13 1   
    26   13   14 2   
    27   13   34 1   
    28   14   15 1   
    29   15   16 ar  
    30   15   17 ar  
    31   16   20 ar  
    32   16   35 1   
    33   17   18 ar  
    34   17   36 1   
    35   18   19 ar  
    36   18   37 1   
    37   19   20 ar  
    38   19   38 1   
    39   20   21 1   
    40   21   22 1   
    41   21   23 2   
    42   22   39 1   
    43   22   40 1   
    44   22   41 1   
@<TRIPOS>SUBSTRUCTURE
     1 IYZ         1 TEMP              0 ****  ****    0 ROOT
