@<TRIPOS>MOLECULE
IYZ
   41    44     1     0     0
SMALL
bcc


@<TRIPOS>ATOM
      1 CAJ        -4.5890    3.7390    0.1940 cx        1 IYZ     -0.121400
      2 CAK        -5.5040    2.7450   -0.4550 cx        1 IYZ     -0.121400
      3 CAV        -4.6090    2.3120    0.6750 cx        1 IYZ     -0.151700
      4 CAL        -3.4040    1.4510    0.3890 c3        1 IYZ      0.220800
      5 NAO        -3.7530    0.0600    0.1970 nh        1 IYZ     -0.827900
      6 CAS        -2.7480   -0.9140    0.1550 cc        1 IYZ      0.607200
      7 CAF        -3.1660   -2.3180    0.2250 cc        1 IYZ     -0.272300
      8 CAG        -2.2370   -3.3040    0.0930 cd        1 IYZ     -0.017000
      9 NAN        -1.4510   -0.5460   -0.0220 nd        1 IYZ     -0.553800
     10 NAW        -0.5620   -1.5220   -0.1630 na        1 IYZ      0.211200
     11 CAU        -0.8670   -2.9340   -0.1060 cd        1 IYZ     -0.106300
     12 NAM         0.2670   -3.6830   -0.2550 nc        1 IYZ     -0.253600
     13 CAH         1.2920   -2.7810   -0.3990 cc        1 IYZ      0.010600
     14 CAT         0.8280   -1.4310   -0.3490 cd        1 IYZ     -0.082300
     15 CAR         1.6120   -0.2210   -0.4580 ca        1 IYZ     -0.024800
     16 CAI         2.9060   -0.2100    0.0850 ca        1 IYZ     -0.062000
     17 CAE         1.1330    0.9230   -1.1110 ca        1 IYZ     -0.077000
     18 CAC         1.9380    2.0570   -1.2100 ca        1 IYZ     -0.149000
     19 CAD         3.2200    2.0660   -0.6680 ca        1 IYZ     -0.090000
     20 CAQ         3.7140    0.9280   -0.0180 ca        1 IYZ     -0.178600
     21 CAP         5.0710    0.8930    0.5680 c         1 IYZ      0.577700
     22 CAA         5.8490    2.1710    0.5820 c3        1 IYZ     -0.198100
     23 OAB         5.5490   -0.1510    1.0320 o         1 IYZ     -0.536100
     24 HAJ1       -5.0160    4.5210    0.8460 hc        1 IYZ      0.075450
     25 HAJ2       -3.7090    4.1040   -0.3650 hc        1 IYZ      0.075450
     26 HAK1       -5.2770    2.3940   -1.4780 hc        1 IYZ      0.075450
     27 HAK2       -6.5910    2.8160   -0.2750 hc        1 IYZ      0.075450
     28 HAV        -5.0730    2.0990    1.6580 hc        1 IYZ      0.079700
     29 HAL1       -2.6700    1.5790    1.2400 h1        1 IYZ      0.056700
     30 HAL2       -2.8940    1.8040   -0.5540 h1        1 IYZ      0.056700
     31 HAO        -4.5690   -0.2390    0.6880 hn        1 IYZ      0.414800
     32 HAF        -4.2300   -2.5520    0.3720 ha        1 IYZ      0.152000
     33 HAG        -2.4870   -4.3750    0.1370 ha        1 IYZ      0.169000
     34 HAH         2.3260   -3.1010   -0.5390 h4        1 IYZ      0.189000
     35 HAI         3.2990   -1.1040    0.5990 ha        1 IYZ      0.161000
     36 HAE         0.1260    0.9330   -1.5550 ha        1 IYZ      0.151000
     37 HAC         1.5550    2.9520   -1.7250 ha        1 IYZ      0.136000
     38 HAD         3.8410    2.9700   -0.7580 ha        1 IYZ      0.134000
     39 HAA1        6.8180    2.0290    1.1210 hc        1 IYZ      0.064367
     40 HAA2        6.0650    2.4950   -0.4650 hc        1 IYZ      0.064367
     41 HAA3        5.2630    2.9710    1.0960 hc        1 IYZ      0.064367
@<TRIPOS>BOND
     1    1    2 1   
     2    1    3 1   
     3    1   24 1   
     4    1   25 1   
     5    2    3 1   
     6    2   26 1   
     7    2   27 1   
     8    3    4 1   
     9    3   28 1   
    10    4    5 1   
    11    4   29 1   
    12    4   30 1   
    13    5    6 1   
    14    5   31 1   
    15    6    7 1   
    16    6    9 2   
    17    7    8 2   
    18    7   32 1   
    19    8   11 1   
    20    8   33 1   
    21    9   10 1   
    22   10   11 1   
    23   10   14 1   
    24   11   12 2   
    25   12   13 1   
    26   13   14 2   
    27   13   34 1   
    28   14   15 1   
    29   15   16 ar  
    30   15   17 ar  
    31   16   20 ar  
    32   16   35 1   
    33   17   18 ar  
    34   17   36 1   
    35   18   19 ar  
    36   18   37 1   
    37   19   20 ar  
    38   19   38 1   
    39   20   21 1   
    40   21   22 1   
    41   21   23 2   
    42   22   39 1   
    43   22   40 1   
    44   22   41 1   
@<TRIPOS>SUBSTRUCTURE
     1 IYZ         1 TEMP              0 ****  ****    0 ROOT
