@<TRIPOS>MOLECULE
IYZ
   42    45     1     0     0
SMALL
bcc


@<TRIPOS>ATOM
      1 CAJ        -0.3850   -0.4560    0.5850 cx        1 IYZ     -0.098900
      2 CAK         0.8650    0.2100    0.1070 cx        1 IYZ     -0.098900
      3 CAV         0.7820   -0.2860    1.5310 cx        1 IYZ     -0.220700
      4 CAL         0.6340    0.6940    2.6530 c3        1 IYZ      0.148800
      5 NAO         1.9410    1.3840    2.9360 n4        1 IYZ     -0.733700
      6 CAS         1.8290    2.3170    4.0720 cc        1 IYZ      0.400200
      7 CAF         2.2650    1.8630    5.3750 cc        1 IYZ     -0.256300
      8 CAG         2.1490    2.7220    6.4340 cd        1 IYZ      0.012000
      9 NAN         1.3120    3.5400    3.8140 nd        1 IYZ     -0.414800
     10 NAW         1.2030    4.3550    4.8280 na        1 IYZ      0.163200
     11 CAU         1.5980    4.0230    6.2110 cd        1 IYZ     -0.068300
     12 NAM         1.3420    5.0650    7.0320 nc        1 IYZ     -0.200600
     13 CAH         0.7930    6.0600    6.2420 cc        1 IYZ      0.050600
     14 CAT         0.6880    5.6740    4.8820 cd        1 IYZ     -0.021300
     15 CAR         0.1620    6.4180    3.7580 ca        1 IYZ     -0.077800
     16 CAI        -1.0760    7.0610    3.8920 ca        1 IYZ     -0.048000
     17 CAE         0.8810    6.5350    2.5600 ca        1 IYZ     -0.080000
     18 CAC         0.3630    7.2920    1.5120 ca        1 IYZ     -0.143000
     19 CAD        -0.8680    7.9360    1.6460 ca        1 IYZ     -0.065000
     20 CAQ        -1.5930    7.8220    2.8360 ca        1 IYZ     -0.168600
     21 CAP        -2.9100    8.4840    3.0190 c         1 IYZ      0.573700
     22 CAA        -3.2770    9.5570    2.0490 c3        1 IYZ     -0.199100
     23 OAB        -3.6590    8.1520    3.9460 o         1 IYZ     -0.518100
     24 HAJ1       -1.2970    0.1500    0.7400 hc        1 IYZ      0.095950
     25 HAJ2       -0.6250   -1.4790    0.2370 hc        1 IYZ      0.095950
     26 HAK1        0.8490    1.2980   -0.0870 hc        1 IYZ      0.095950
     27 HAK2        1.5270   -0.3250   -0.6000 hc        1 IYZ      0.095950
     28 HAV         1.3560   -1.1940    1.8090 hc        1 IYZ      0.108700
     29 HAL1       -0.1240    1.4920    2.4040 hx        1 IYZ      0.115200
     30 HAL2        0.3110    0.1710    3.5990 hx        1 IYZ      0.115200
     31 HAO         2.2430    1.8820    2.0860 hn        1 IYZ      0.463800
     32 HAF         2.6800    0.8530    5.5060 ha        1 IYZ      0.170000
     33 HAG         2.4600    2.4510    7.4590 ha        1 IYZ      0.203000
     34 HAH         0.4930    7.0230    6.6700 h4        1 IYZ      0.219000
     35 HAI        -1.6590    6.9710    4.8250 ha        1 IYZ      0.168000
     36 HAE         1.8600    6.0450    2.4510 ha        1 IYZ      0.135000
     37 HAC         0.9320    7.3910    0.5740 ha        1 IYZ      0.149000
     38 HAD        -1.2630    8.5340    0.8090 ha        1 IYZ      0.152000
     39 HAA1       -3.4850    9.1060    1.0470 hc        1 IYZ      0.073033
     40 HAA2       -2.4430   10.2940    1.9490 hc        1 IYZ      0.073033
     41 HAA3       -4.1960   10.0930    2.3950 hc        1 IYZ      0.073033
     42 HAO2        2.6570    0.6850    3.1710 hn        1 IYZ      0.463800
@<TRIPOS>BOND
     1    1    2 1   
     2    1    3 1   
     3    1   24 1   
     4    1   25 1   
     5    2    3 1   
     6    2   26 1   
     7    2   27 1   
     8    3    4 1   
     9    3   28 1   
    10    4    5 1   
    11    4   29 1   
    12    4   30 1   
    13    5    6 1   
    14    5   31 1   
    15    5   42 1   
    16    6    7 1   
    17    6    9 2   
    18    7    8 2   
    19    7   32 1   
    20    8   11 1   
    21    8   33 1   
    22    9   10 1   
    23   10   11 1   
    24   10   14 1   
    25   11   12 2   
    26   12   13 1   
    27   13   14 2   
    28   13   34 1   
    29   14   15 1   
    30   15   16 ar  
    31   15   17 ar  
    32   16   20 ar  
    33   16   35 1   
    34   17   18 ar  
    35   17   36 1   
    36   18   19 ar  
    37   18   37 1   
    38   19   20 ar  
    39   19   38 1   
    40   20   21 1   
    41   21   22 1   
    42   21   23 2   
    43   22   39 1   
    44   22   40 1   
    45   22   41 1   
@<TRIPOS>SUBSTRUCTURE
     1 IYZ         1 TEMP              0 ****  ****    0 ROOT
