@<TRIPOS>MOLECULE
IYZ
   41    44     1     0     0
SMALL
bcc


@<TRIPOS>ATOM
      1 CAJ         0.3870    0.0530   -0.1700 cx        1 IYZ     -0.121400
      2 CAK         1.6970   -0.4250    0.3790 cx        1 IYZ     -0.121400
      3 CAV         0.5890   -0.0330    1.3200 cx        1 IYZ     -0.151700
      4 CAL         0.6860    1.2550    2.0980 c3        1 IYZ      0.220800
      5 NAO         1.5570    1.1410    3.2490 nu        1 IYZ     -0.827900
      6 CAS         1.5830    2.1590    4.2100 cc        1 IYZ      0.607200
      7 CAF         2.2730    1.8760    5.4720 cc        1 IYZ     -0.272300
      8 CAG         2.4070    2.8620    6.4010 cd        1 IYZ     -0.017000
      9 NAN         1.0480    3.3770    3.9260 nd        1 IYZ     -0.553800
     10 NAW         1.2030    4.3290    4.8370 na        1 IYZ      0.211200
     11 CAU         1.8610    4.1550    6.1130 cd        1 IYZ     -0.106300
     12 NAM         1.8290    5.3130    6.8380 nc        1 IYZ     -0.253600
     13 CAH         1.1600    6.2230    6.0580 cc        1 IYZ      0.010600
     14 CAT         0.7530    5.6600    4.8100 cd        1 IYZ     -0.082300
     15 CAR         0.0260    6.3080    3.7410 ca        1 IYZ     -0.024800
     16 CAI        -0.9470    7.2630    4.0760 ca        1 IYZ     -0.062000
     17 CAE         0.2830    6.0370    2.3910 ca        1 IYZ     -0.077000
     18 CAC        -0.4290    6.7080    1.3970 ca        1 IYZ     -0.149000
     19 CAD        -1.3960    7.6520    1.7320 ca        1 IYZ     -0.090000
     20 CAQ        -1.6590    7.9370    3.0770 ca        1 IYZ     -0.178600
     21 CAP        -2.6750    8.9350    3.4780 c         1 IYZ      0.577700
     22 CAA        -3.5260    9.5230    2.3970 c3        1 IYZ     -0.198100
     23 OAB        -2.8190    9.2730    4.6610 o         1 IYZ     -0.536100
     24 HAJ1       -0.2930   -0.6710   -0.6530 hc        1 IYZ      0.075450
     25 HAJ2        0.3350    1.0480   -0.6470 hc        1 IYZ      0.075450
     26 HAK1        1.9640   -1.4930    0.2860 hc        1 IYZ      0.075450
     27 HAK2        2.5840    0.2300    0.3000 hc        1 IYZ      0.075450
     28 HAV         0.0640   -0.8370    1.8730 hc        1 IYZ      0.079700
     29 HAL1        1.1030    2.0720    1.4400 h1        1 IYZ      0.056700
     30 HAL2       -0.3580    1.5640    2.4000 h1        1 IYZ      0.056700
     31 HAO         1.6110    0.2260    3.6430 hn        1 IYZ      0.414800
     32 HAF         2.6810    0.8700    5.6450 ha        1 IYZ      0.152000
     33 HAG         2.9130    2.7120    7.3660 ha        1 IYZ      0.169000
     34 HAH         0.9850    7.2480    6.3890 h4        1 IYZ      0.189000
     35 HAI        -1.1600    7.4900    5.1350 ha        1 IYZ      0.161000
     36 HAE         1.0510    5.3020    2.1050 ha        1 IYZ      0.151000
     37 HAC        -0.2210    6.4900    0.3390 ha        1 IYZ      0.136000
     38 HAD        -1.9460    8.1720    0.9330 ha        1 IYZ      0.134000
     39 HAA1       -2.8920   10.1170    1.6960 hc        1 IYZ      0.064367
     40 HAA2       -4.3010   10.1970    2.8380 hc        1 IYZ      0.064367
     41 HAA3       -4.0370    8.7100    1.8260 hc        1 IYZ      0.064367
@<TRIPOS>BOND
     1    1    2 1   
     2    1    3 1   
     3    1   24 1   
     4    1   25 1   
     5    2    3 1   
     6    2   26 1   
     7    2   27 1   
     8    3    4 1   
     9    3   28 1   
    10    4    5 1   
    11    4   29 1   
    12    4   30 1   
    13    5    6 1   
    14    5   31 1   
    15    6    7 1   
    16    6    9 2   
    17    7    8 2   
    18    7   32 1   
    19    8   11 1   
    20    8   33 1   
    21    9   10 1   
    22   10   11 1   
    23   10   14 1   
    24   11   12 2   
    25   12   13 1   
    26   13   14 2   
    27   13   34 1   
    28   14   15 1   
    29   15   16 ar  
    30   15   17 ar  
    31   16   20 ar  
    32   16   35 1   
    33   17   18 ar  
    34   17   36 1   
    35   18   19 ar  
    36   18   37 1   
    37   19   20 ar  
    38   19   38 1   
    39   20   21 1   
    40   21   22 1   
    41   21   23 2   
    42   22   39 1   
    43   22   40 1   
    44   22   41 1   
@<TRIPOS>SUBSTRUCTURE
     1 IYZ         1 TEMP              0 ****  ****    0 ROOT
