@<TRIPOS>MOLECULE
IZ1
   64    68     1     0     0
SMALL
bcc


@<TRIPOS>ATOM
      1 C1         19.0660   16.7010   82.8140 c3        1 IZ1     -0.195600
      2 C2         20.0720   17.8480   82.8410 c3        1 IZ1     -0.135400
      3 C3         21.4340   17.2750   83.2030 c         1 IZ1      0.699500
      4 N4         21.4100   15.8740   83.2190 n         1 IZ1     -0.689300
      5 S5         19.9720   15.1750   82.8500 s6        1 IZ1      1.428600
      6 O6         19.4930   14.4020   83.9120 o         1 IZ1     -0.629300
      7 O7         20.0300   14.5560   81.6000 o         1 IZ1     -0.629300
      8 O9         22.4420   17.9420   83.4500 o         1 IZ1     -0.567500
      9 C11        18.1000   16.8330   81.6960 ca        1 IZ1     -0.074300
     10 C12        18.5210   16.7650   80.3620 ca        1 IZ1     -0.104500
     11 C13        17.6030   16.9120   79.3250 ca        1 IZ1     -0.115500
     12 C14        16.2510   17.1380   79.6010 ca        1 IZ1     -0.071300
     13 C15        15.8280   17.2010   80.9350 ca        1 IZ1     -0.115500
     14 C16        16.7440   17.0530   81.9720 ca        1 IZ1     -0.104500
     15 C21        15.2630   17.2720   78.4970 c3        1 IZ1     -0.045100
     16 C23        17.0960   21.4100   77.8940 cc        1 IZ1      0.355800
     17 C4         17.2790   20.6730   76.6980 cd        1 IZ1     -0.232600
     18 N11        16.1230   20.7800   78.6840 nc        1 IZ1     -0.653000
     19 C25        15.7310   19.6830   77.9920 cd        1 IZ1      0.368800
     20 N13        16.4100   19.5910   76.7660 na        1 IZ1     -0.304900
     21 C17        19.1570   24.9770   78.9530 ca        1 IZ1     -0.127000
     22 C19        18.5380   24.2110   79.9410 ca        1 IZ1     -0.132500
     23 C20        17.8580   23.0420   79.6030 ca        1 IZ1     -0.116000
     24 C27        17.7910   22.6280   78.2640 ca        1 IZ1     -0.107500
     25 C5         18.4120   23.4050   77.2750 ca        1 IZ1     -0.116000
     26 C6         19.0910   24.5710   77.6200 ca        1 IZ1     -0.132500
     27 C22        14.6700   18.6970   78.4360 c3        1 IZ1      0.216200
     28 N45        13.4980   18.7750   77.6040 n3        1 IZ1     -0.913100
     29 S1         12.0750   19.4010   78.0730 sy        1 IZ1      1.518200
     30 O1         11.0580   18.7830   77.3160 o         1 IZ1     -0.647300
     31 O2         11.9730   19.3440   79.4770 o         1 IZ1     -0.647300
     32 C24        11.6360   22.7910   76.0350 ca        1 IZ1     -0.199300
     33 C26        12.3050   23.7210   76.8380 ca        1 IZ1     -0.021000
     34 C7         11.5680   21.4520   76.4140 ca        1 IZ1      0.026000
     35 C8         12.1760   21.0190   77.5990 ca        1 IZ1     -0.392500
     36 C9         12.8410   21.9590   78.3970 ca        1 IZ1      0.025000
     37 C10        12.9050   23.3000   78.0230 ca        1 IZ1     -0.154000
     38 F3          9.8600   22.5480   74.3820 f         1 IZ1     -0.234633
     39 F1         11.8120   23.1160   73.6320 f         1 IZ1     -0.234633
     40 F2         10.6050   24.5590   74.7090 f         1 IZ1     -0.234633
     41 H1         18.4790   16.7420   83.7800 h1        1 IZ1      0.127700
     42 H2C1       20.1490   18.3510   81.8420 hc        1 IZ1      0.104200
     43 H2C2       19.7900   18.6260   83.5940 hc        1 IZ1      0.104200
     44 H4         22.2540   15.4050   83.4480 hn        1 IZ1      0.359500
     45 H12        19.5780   16.5640   80.1260 ha        1 IZ1      0.142500
     46 H16        16.3940   17.1090   83.0150 ha        1 IZ1      0.142500
     47 H13        17.9510   16.8470   78.2830 ha        1 IZ1      0.140000
     48 H15        14.7640   17.3700   81.1660 ha        1 IZ1      0.140000
     49 H211       15.7340   17.0060   77.5150 hc        1 IZ1      0.059200
     50 H212       14.4280   16.5380   78.6730 hc        1 IZ1      0.059200
     51 H22        14.3620   18.9810   79.4960 h1        1 IZ1      0.113700
     52 HA         17.9420   20.8410   75.8520 h4        1 IZ1      0.183000
     53 HB         16.3100   18.8770   76.0950 hn        1 IZ1      0.301700
     54 H17        19.6940   25.8970   79.2230 ha        1 IZ1      0.133000
     55 H19        18.5870   24.5280   80.9930 ha        1 IZ1      0.132500
     56 H6         19.5760   25.1730   76.8380 ha        1 IZ1      0.132500
     57 H20        17.3740   22.4440   80.3900 ha        1 IZ1      0.138000
     58 H5         18.3590   23.0960   76.2210 ha        1 IZ1      0.138000
     59 H45        13.6220   18.4050   76.6920 hn        1 IZ1      0.443800
     60 H26        12.3500   24.7800   76.5310 ha        1 IZ1      0.157000
     61 H7         11.0130   20.7290   75.7850 ha        1 IZ1      0.173000
     62 H10        13.4340   24.0250   78.6610 ha        1 IZ1      0.157000
     63 H9         13.3190   21.6310   79.3390 ha        1 IZ1      0.166000
     64 C18        10.9930   23.2410   74.7290 c3        1 IZ1      0.690200
@<TRIPOS>BOND
     1    1    2 1   
     2    1    5 1   
     3    1    9 1   
     4    1   41 1   
     5    2    3 1   
     6    2   42 1   
     7    2   43 1   
     8    3    4 1   
     9    3    8 2   
    10    4    5 1   
    11    4   44 1   
    12    5    6 2   
    13    5    7 2   
    14    9   10 ar  
    15    9   14 ar  
    16   10   11 ar  
    17   10   45 1   
    18   11   12 ar  
    19   11   47 1   
    20   12   13 ar  
    21   12   15 1   
    22   13   14 ar  
    23   13   48 1   
    24   14   46 1   
    25   15   27 1   
    26   15   49 1   
    27   15   50 1   
    28   16   17 2   
    29   16   18 1   
    30   16   24 1   
    31   17   20 1   
    32   17   52 1   
    33   18   19 2   
    34   19   20 1   
    35   19   27 1   
    36   20   53 1   
    37   21   22 ar  
    38   21   26 ar  
    39   21   54 1   
    40   22   23 ar  
    41   22   55 1   
    42   23   24 ar  
    43   23   57 1   
    44   24   25 ar  
    45   25   26 ar  
    46   25   58 1   
    47   26   56 1   
    48   27   28 1   
    49   27   51 1   
    50   28   29 1   
    51   28   59 1   
    52   29   30 2   
    53   29   31 2   
    54   29   35 1   
    55   32   33 ar  
    56   32   34 ar  
    57   32   64 1   
    58   33   37 ar  
    59   33   60 1   
    60   34   35 ar  
    61   34   61 1   
    62   35   36 ar  
    63   36   37 ar  
    64   36   63 1   
    65   37   62 1   
    66   38   64 1   
    67   39   64 1   
    68   40   64 1   
@<TRIPOS>SUBSTRUCTURE
     1 IZ1         1 TEMP              0 ****  ****    0 ROOT
