@<TRIPOS>MOLECULE
IZ1
   65    69     1     0     0
SMALL
bcc


@<TRIPOS>ATOM
      1 C1         -0.8050   -0.5480    0.6700 c3        1 IZ1     -0.207600
      2 C2          0.5280    0.1760    0.8200 c3        1 IZ1     -0.136400
      3 C3          1.1000   -0.1590    2.1910 c         1 IZ1      0.699500
      4 N4          0.3510   -1.1590    2.8270 n         1 IZ1     -0.692300
      5 S5         -0.9140   -1.7570    1.9860 s6        1 IZ1      1.440600
      6 O6         -2.1280   -1.5680    2.6430 o         1 IZ1     -0.624300
      7 O7         -0.6420   -3.0330    1.4930 o         1 IZ1     -0.624300
      8 O9          2.0970    0.3690    2.6860 o         1 IZ1     -0.545500
      9 C11        -1.0080   -1.0880   -0.6950 ca        1 IZ1     -0.038300
     10 C12        -0.1820   -2.0990   -1.2070 ca        1 IZ1     -0.097000
     11 C13        -0.3960   -2.6030   -2.4870 ca        1 IZ1     -0.127500
     12 C14        -1.4340   -2.1040   -3.2830 ca        1 IZ1     -0.119300
     13 C15        -2.2610   -1.0970   -2.7730 ca        1 IZ1     -0.127500
     14 C16        -2.0460   -0.5890   -1.4940 ca        1 IZ1     -0.097000
     15 C21        -1.7000   -2.7120   -4.6150 c3        1 IZ1     -0.058100
     16 C23         1.3320   -0.2110   -7.1650 cc        1 IZ1      0.381800
     17 C4          1.8270   -0.6040   -5.8920 cd        1 IZ1     -0.200600
     18 N11        -0.0090   -0.5710   -7.2690 nc        1 IZ1     -0.701000
     19 C25        -0.3280   -1.1740   -6.0860 cd        1 IZ1      0.310800
     20 N13         0.7760   -1.2150   -5.2280 na        1 IZ1     -0.260900
     21 C17         3.5760    1.8290  -10.1400 ca        1 IZ1     -0.110000
     22 C19         2.2730    2.2350   -9.8510 ca        1 IZ1     -0.127500
     23 C20         1.5280    1.5630   -8.8840 ca        1 IZ1     -0.115500
     24 C27         2.0880    0.4790   -8.1960 ca        1 IZ1     -0.136500
     25 C5          3.3990    0.0740   -8.4880 ca        1 IZ1     -0.115500
     26 C6          4.1370    0.7490   -9.4580 ca        1 IZ1     -0.127500
     27 C22        -1.7060   -1.6700   -5.7470 c3        1 IZ1      0.137200
     28 N45        -2.3660   -2.2010   -6.9860 n4        1 IZ1     -0.698900
     29 S1         -3.3250   -0.8990   -8.0320 sy        1 IZ1      1.486200
     30 O1         -4.5850   -1.4600   -7.9020 o         1 IZ1     -0.567800
     31 O2         -3.0470    0.3060   -7.4340 o         1 IZ1     -0.567800
     32 C24        -2.5540   -2.4430  -11.5380 ca        1 IZ1     -0.193300
     33 C26        -1.5260   -1.6160  -12.0160 ca        1 IZ1      0.037000
     34 C7         -3.1080   -2.2240  -10.2860 ca        1 IZ1      0.037000
     35 C8         -2.6400   -1.1770   -9.4600 ca        1 IZ1     -0.527500
     36 C9         -1.6110   -0.3500   -9.9610 ca        1 IZ1      0.068000
     37 C10        -1.0640   -0.5680  -11.2210 ca        1 IZ1     -0.154000
     38 F3         -4.4070   -3.8410  -12.2650 f         1 IZ1     -0.217300
     39 F1         -2.4660   -4.8030  -12.0850 f         1 IZ1     -0.217300
     40 F2         -2.8530   -3.4430  -13.7390 f         1 IZ1     -0.217300
     41 H1         -1.6250    0.2040    0.8720 h1        1 IZ1      0.131700
     42 H2C1        0.4060    1.2860    0.7400 hc        1 IZ1      0.100200
     43 H2C2        1.2650   -0.1460    0.0390 hc        1 IZ1      0.100200
     44 H4          0.6360   -1.4280    3.7400 hn        1 IZ1      0.369500
     45 H12         0.6140   -2.5330   -0.5790 ha        1 IZ1      0.159500
     46 H16        -2.7090    0.2020   -1.1070 ha        1 IZ1      0.159500
     47 H13         0.2390   -3.4260   -2.8540 ha        1 IZ1      0.139500
     48 H15        -3.0990   -0.7060   -3.3700 ha        1 IZ1      0.139500
     49 H211       -0.9400   -3.5070   -4.8420 hc        1 IZ1      0.076700
     50 H212       -2.7060   -3.2160   -4.5590 hc        1 IZ1      0.076700
     51 H22        -2.3240   -0.7720   -5.4150 hx        1 IZ1      0.127700
     52 HA          2.8170   -0.4820   -5.4500 h4        1 IZ1      0.206000
     53 HB          0.7740   -1.5470   -4.2940 hn        1 IZ1      0.328700
     54 H17         4.1650    2.3650  -10.9010 ha        1 IZ1      0.147000
     55 H19         1.8370    3.0970  -10.3790 ha        1 IZ1      0.144500
     56 H6          5.1660    0.4300   -9.6830 ha        1 IZ1      0.144500
     57 H20         0.5080    1.8990   -8.6430 ha        1 IZ1      0.135000
     58 H5          3.8430   -0.7760   -7.9490 ha        1 IZ1      0.135000
     59 H45        -1.6620   -2.6610   -7.5610 hn        1 IZ1      0.450300
     60 H26        -1.0970   -1.7950  -13.0200 ha        1 IZ1      0.186000
     61 H7         -3.9460   -2.8630   -9.9430 ha        1 IZ1      0.179000
     62 H10        -0.2600    0.0920  -11.5910 ha        1 IZ1      0.183000
     63 H9         -1.2370    0.4920   -9.3430 ha        1 IZ1      0.190000
     64 H452       -3.0380   -2.9170   -6.7020 hn        1 IZ1      0.450300
     65 C18        -3.0620   -3.6060  -12.3950 c3        1 IZ1      0.692200
@<TRIPOS>BOND
     1    1    2 1   
     2    1    5 1   
     3    1    9 1   
     4    1   41 1   
     5    2    3 1   
     6    2   42 1   
     7    2   43 1   
     8    3    4 1   
     9    3    8 2   
    10    4    5 1   
    11    4   44 1   
    12    5    6 2   
    13    5    7 2   
    14    9   10 ar  
    15    9   14 ar  
    16   10   11 ar  
    17   10   45 1   
    18   11   12 ar  
    19   11   47 1   
    20   12   13 ar  
    21   12   15 1   
    22   13   14 ar  
    23   13   48 1   
    24   14   46 1   
    25   15   27 1   
    26   15   49 1   
    27   15   50 1   
    28   16   17 2   
    29   16   18 1   
    30   16   24 1   
    31   17   20 1   
    32   17   52 1   
    33   18   19 2   
    34   19   20 1   
    35   19   27 1   
    36   20   53 1   
    37   21   22 ar  
    38   21   26 ar  
    39   21   54 1   
    40   22   23 ar  
    41   22   55 1   
    42   23   24 ar  
    43   23   57 1   
    44   24   25 ar  
    45   25   26 ar  
    46   25   58 1   
    47   26   56 1   
    48   27   28 1   
    49   27   51 1   
    50   28   29 1   
    51   28   59 1   
    52   28   64 1   
    53   29   30 2   
    54   29   31 2   
    55   29   35 1   
    56   32   33 ar  
    57   32   34 ar  
    58   32   65 1   
    59   33   37 ar  
    60   33   60 1   
    61   34   35 ar  
    62   34   61 1   
    63   35   36 ar  
    64   36   37 ar  
    65   36   63 1   
    66   37   62 1   
    67   38   65 1   
    68   39   65 1   
    69   40   65 1   
@<TRIPOS>SUBSTRUCTURE
     1 IZ1         1 TEMP              0 ****  ****    0 ROOT
