@<TRIPOS>MOLECULE
IZ1
   64    57     1     0     0
SMALL
bcc


@<TRIPOS>ATOM
      1 C1          4.5900    4.1790    1.9320 c3        1 IZ1     -0.705000
      2 C2          4.2880    5.7010    1.1310 c3        1 IZ1     -0.171000
      3 C3          5.5390    6.2810    1.0280 c2        1 IZ1      0.310000
      4 N4          6.5340    5.1550    0.9360 n         1 IZ1     -0.868000
      5 S5          5.7220    3.7140    1.3970 s6        1 IZ1      2.784000
      6 O6          6.4650    2.9560    2.3290 o         1 IZ1     -0.910000
      7 O7          5.4350    2.9090    0.2300 o         1 IZ1     -0.910000
      8 O9          5.7880    7.4200    1.1670 o         1 IZ1     -0.285000
      9 C11         3.4990    3.2520    1.3980 c2        1 IZ1     -0.048000
     10 C12         2.2170    3.7490    1.1730 c1        1 IZ1     -0.125000
     11 C13         1.1670    2.8630    0.6790 c1        1 IZ1     -0.123000
     12 C14         1.4360    1.5460    0.4350 c1        1 IZ1     -0.079000
     13 C15         2.7850    1.0170    0.6710 c1        1 IZ1     -0.122000
     14 C16         3.7870    1.8550    1.1410 c2        1 IZ1     -0.124000
     15 C21         0.4230    0.7120   -0.2580 c3        1 IZ1     -0.156000
     16 C23        -3.6110    0.0260    0.6090 c2        1 IZ1     -0.057000
     17 C4         -3.4200   -0.4900    1.9110 c1        1 IZ1     -0.151000
     18 N11        -2.4230    0.0520   -0.0050 n2        1 IZ1     -0.140000
     19 C25        -1.4800   -0.4350    0.8740 c1        1 IZ1     -0.096000
     20 N13        -2.1290   -0.7650    2.0620 n2        1 IZ1     -0.185000
     21 C17        -7.3390    1.1240   -0.7790 c1        1 IZ1     -0.131000
     22 C19        -6.5560    2.0400   -0.0790 c1        1 IZ1     -0.131000
     23 C20        -5.3240    1.6980    0.3280 c1        1 IZ1     -0.131000
     24 C27        -4.8220    0.4270    0.0540 c1        1 IZ1     -0.003000
     25 C5         -5.6060   -0.4950   -0.6470 c1        1 IZ1     -0.095000
     26 C6         -6.8460   -0.1480   -1.0570 c1        1 IZ1     -0.131000
     27 C22         0.0130   -0.4580    0.6520 c2        1 IZ1      0.140000
     28 N45         0.3930   -1.7220    0.0340 n3        1 IZ1     -0.870000
     29 S1         -0.1130   -2.0830   -1.5140 s4        1 IZ1      2.084800
     30 O1          0.5550   -1.2610   -2.4880 o         1 IZ1     -0.527900
     31 O2         -1.4830   -1.7090   -1.7280 o         1 IZ1     -0.527900
     32 C18        -1.4940   -7.0890   -0.9700 c3        1 IZ1      0.469000
     33 C24        -0.6000   -6.1070   -1.5690 c2        1 IZ1     -0.189000
     34 C26         0.4360   -6.5290   -2.4750 c2        1 IZ1     -0.028000
     35 C7         -0.7520   -4.7490   -1.2550 c1        1 IZ1      0.021000
     36 C8          0.1300   -3.7670   -1.8380 c1        1 IZ1     -0.810000
     37 C9          1.1400   -4.1740   -2.7200 c1        1 IZ1      0.005000
     38 C10         1.2940   -5.5880   -3.0440 c1        1 IZ1     -0.160000
     39 F3         -2.4220   -7.3960   -1.8110 f         1 IZ1     -0.163000
     40 F1         -2.0730   -6.5390    0.2020 f         1 IZ1     -0.163000
     41 F2         -0.8060   -8.1780   -0.6560 f         1 IZ1     -0.163000
     42 H1          4.4800    4.1340    2.9010 h1        1 IZ1      0.170000
     43 H2C1        3.8950    5.6420    0.3230 hc        1 IZ1      0.142500
     44 H2C2        3.6420    6.2370    1.6280 hc        1 IZ1      0.142500
     45 H4          7.3270    5.2170    0.7010 hn        1 IZ1      0.277000
     46 H12         2.0290    4.6550    1.3360 ha        1 IZ1      0.137000
     47 H16         4.7120    1.4900    1.3050 ha        1 IZ1      0.151000
     48 H13         0.2960    3.2000    0.5280 ha        1 IZ1      0.152000
     49 H15         2.9820    0.0660    0.4950 ha        1 IZ1      0.142000
     50 H211        0.8180    0.3510   -1.1230 hc        1 IZ1      0.122500
     51 H212       -0.3710    1.2650   -0.4580 hc        1 IZ1      0.122500
     52 H22         0.4710   -0.3660    1.5130 h4        1 IZ1      0.106000
     53 HA         -4.0940   -0.6160    2.5640 DU        1 IZ1      0.219500
     54 HB         -1.7270   -1.1190    2.8280 DU        1 IZ1      0.219500
     55 H17        -8.2730    1.3880   -1.0860 ha        1 IZ1      0.128500
     56 H19        -6.9310    2.9950    0.1310 ha        1 IZ1      0.128500
     57 H6         -7.3620   -0.7510   -1.5160 ha        1 IZ1      0.128500
     58 H20        -4.7800    2.3430    0.8140 ha        1 IZ1      0.128500
     59 H5         -5.2310   -1.4490   -0.8540 ha        1 IZ1      0.164000
     60 H45         0.9460   -2.3830    0.5440 hn        1 IZ1      0.244000
     61 H26         0.5380   -7.4990   -2.7020 ha        1 IZ1      0.155000
     62 H7         -1.4480   -4.4670   -0.5790 ha        1 IZ1      0.174000
     63 H10         1.9640   -5.8630   -3.6290 ha        1 IZ1      0.150000
     64 H9          1.7810   -3.4640   -3.1440 ha        1 IZ1      0.156000
@<TRIPOS>BOND
     1    1    2 1   
     2    1    5 1   
     3    1    9 1   
     4    1   42 1   
     5    2    3 1   
     6    2   43 1   
     7    2   44 1   
     8    3    4 1   
     9    3    8 1   
    10    4    5 1   
    11    4   45 1   
    12    5    6 1   
    13    5    7 1   
    14    9   10 1   
    15    9   14 1   
    16   10   46 1   
    17   11   12 1   
    18   11   48 1   
    19   12   15 1   
    20   13   14 1   
    21   13   49 1   
    22   14   47 1   
    23   15   27 1   
    24   15   50 1   
    25   15   51 1   
    26   16   17 1   
    27   16   18 1   
    28   16   24 1   
    29   17   20 1   
    30   18   19 1   
    31   19   20 1   
    32   21   26 1   
    33   21   55 1   
    34   22   23 1   
    35   22   56 1   
    36   23   58 1   
    37   24   25 1   
    38   25   59 1   
    39   26   57 1   
    40   27   28 1   
    41   27   52 1   
    42   28   29 1   
    43   28   60 1   
    44   29   30 1   
    45   29   31 1   
    46   32   33 1   
    47   32   39 1   
    48   32   40 1   
    49   32   41 1   
    50   33   34 1   
    51   33   35 1   
    52   34   38 1   
    53   34   61 1   
    54   35   62 1   
    55   36   37 1   
    56   37   64 1   
    57   38   63 1   
@<TRIPOS>SUBSTRUCTURE
     1 IZ1         1 TEMP              0 ****  ****    0 ROOT
