@<TRIPOS>MOLECULE
IZ2
   68    68     1     0     0
SMALL
bcc


@<TRIPOS>ATOM
      1 C1         -2.3940    1.4470    0.2930 c2        1 IZ2     -0.885000
      2 C2         -2.2880    1.7560    1.7580 c3        1 IZ2     -0.135000
      3 C3         -1.7230    0.5180    2.4430 c2        1 IZ2      0.311000
      4 N4         -1.4660   -0.4920    1.4920 n         1 IZ2     -0.873000
      5 S5         -1.8030   -0.0870   -0.0450 s6        1 IZ2      2.875000
      6 O6         -2.7280   -0.9500   -0.6580 o         1 IZ2     -0.982500
      7 O7         -0.6310   -0.0600   -0.8530 o         1 IZ2     -0.982500
      8 O9         -1.5090    0.3880    3.6460 o         1 IZ2     -0.249000
      9 C11        -2.9350    2.3620   -0.5360 c2        1 IZ2      0.215000
     10 C12         1.3230   -0.3870   -2.9270 c3        1 IZ2     -0.225000
     11 C13         0.1030   -0.9810   -3.2610 c1        1 IZ2      0.314000
     12 C14        -1.0650   -1.5010   -3.4310 c2        1 IZ2     -0.172000
     13 C15        -3.3180    2.1230   -3.0960 c1        1 IZ2     -0.042000
     14 C16        -3.1150    2.2020   -1.9140 c1        1 IZ2     -0.271000
     15 C21        -1.7110   -2.0600   -4.6450 c3        1 IZ2     -0.123000
     16 C22        -1.5210   -1.1340   -5.8780 c3        1 IZ2      0.100000
     17 N45        -2.5990   -1.2210   -6.8140 n3        1 IZ2     -0.875000
     18 S1         -3.8080   -0.1470   -6.9040 s6        1 IZ2      2.828000
     19 C23         2.0750   -1.6470   -6.5270 c2        1 IZ2     -0.090000
     20 C4          1.5230   -2.2800   -7.8120 c3        1 IZ2     -0.049000
     21 N11         0.9610   -1.1840   -5.7520 n2        1 IZ2     -0.270000
     22 C25        -0.1430   -1.4590   -6.4480 c2        1 IZ2      0.048000
     23 N13         0.0660   -2.1780   -7.6410 n3        1 IZ2     -0.301000
     24 C17         4.6390   -0.1360  -10.1080 c2        1 IZ2     -0.021000
     25 C18         4.2720   -0.5240   -8.8720 c2        1 IZ2     -0.146000
     26 C19         4.8870   -1.6110   -8.1440 c2        1 IZ2     -0.098000
     27 C20         4.4790   -2.0660   -6.9490 c2        1 IZ2     -0.155000
     28 C27         6.5110   -1.2140  -11.5550 c1        1 IZ2     -0.159000
     29 C6          5.6510   -0.7290  -10.8760 c1        1 IZ2     -0.166000
     30 O1         -5.0520   -0.7610   -6.7410 o         1 IZ2     -0.927000
     31 O2         -3.5310    0.9090   -6.0080 o         1 IZ2     -0.927000
     32 C24        -2.5430    2.7440   -8.8920 c1        1 IZ2     -0.126000
     33 C26        -3.2200    0.3110  -11.6330 c2        1 IZ2      0.012000
     34 C7         -3.1040    1.6970   -8.7490 c1        1 IZ2     -0.211000
     35 C8         -3.7870    0.4610   -8.5730 c3        1 IZ2     -0.641000
     36 C9         -3.3800   -0.6750   -9.3800 c1        1 IZ2     -0.068000
     37 C10        -2.9990   -0.6760  -10.7380 c2        1 IZ2     -0.240000
     38 C29        -2.3610   -1.9970  -11.1980 c3        1 IZ2      0.477000
     39 F4         -1.2990   -2.3910  -10.4190 f         1 IZ2     -0.159333
     40 F6         -1.8430   -1.9600  -12.4700 f         1 IZ2     -0.159333
     41 F5         -3.2110   -3.0690  -11.2000 f         1 IZ2     -0.159333
     42 H1         -3.2850    3.3350   -0.1280 ha        1 IZ2      0.165000
     43 H2C1       -3.2890    1.9940    2.2060 hc        1 IZ2      0.152000
     44 H2C2       -1.6060    2.6250    1.9520 hc        1 IZ2      0.152000
     45 H4         -1.1270   -1.3640    1.8250 hn        1 IZ2      0.284000
     46 H12         2.1880   -1.1010   -3.0160 hc        1 IZ2      0.197333
     47 H16         1.2460   -0.0510   -1.8340 hc        1 IZ2      0.197333
     48 H13         1.5230    0.5380   -3.5390 hc        1 IZ2      0.197333
     49 H15        -1.7180   -1.5490   -2.5050 ha        1 IZ2      0.281000
     50 H211       -3.5000    2.0400   -4.1490 ha        1 IZ2      0.276000
     51 H212       -1.2820   -3.0790   -4.8550 hc        1 IZ2      0.146000
     52 H22        -2.8070   -2.1990   -4.4300 hc        1 IZ2      0.146000
     53 H45        -1.4830   -0.0570   -5.5070 h1        1 IZ2      0.143000
     54 HA         -0.4920   -1.9970   -8.4430 hn        1 IZ2      0.242000
     55 H5C1        1.8060   -3.3640   -7.8850 h1        1 IZ2      0.125500
     56 H5C2        3.6490   -1.1330   -5.1880 ha        1 IZ2      0.133000
     57 HB          1.8880   -1.7380   -8.7260 h1        1 IZ2      0.125500
     58 H6          7.2730   -1.6400  -12.1590 ha        1 IZ2      0.233000
     59 H19         5.7710   -2.0710   -8.6250 ha        1 IZ2      0.145000
     60 H27         5.0430   -2.8780   -6.4530 ha        1 IZ2      0.142000
     61 H24        -2.0450    3.6770   -9.0040 ha        1 IZ2      0.242000
     62 H26        -2.9890    0.2040  -12.7060 ha        1 IZ2      0.156000
     63 H7         -3.6710    1.2700  -11.3260 ha        1 IZ2      0.156000
     64 H9         -4.8920    0.6200   -8.8460 h1        1 IZ2      0.226000
     65 H17         4.1270    0.7180  -10.5940 ha        1 IZ2      0.140000
     66 H452       -2.6030   -2.0330   -7.3950 hn        1 IZ2      0.279000
     67 C5          3.3670   -1.5670   -6.1650 c2        1 IZ2     -0.095000
     68 H18         3.4610    0.0150   -8.3520 ha        1 IZ2      0.125000
@<TRIPOS>BOND
     1    1    2 1   
     2    1    5 1   
     3    1    9 1   
     4    2    3 1   
     5    2   43 1   
     6    2   44 1   
     7    3    4 1   
     8    3    8 1   
     9    4    5 1   
    10    4   45 1   
    11    5    6 1   
    12    5    7 1   
    13    9   14 1   
    14    9   42 1   
    15   10   11 1   
    16   10   46 1   
    17   10   47 1   
    18   10   48 1   
    19   11   12 1   
    20   12   15 1   
    21   12   49 1   
    22   13   14 1   
    23   13   50 1   
    24   15   16 1   
    25   15   51 1   
    26   15   52 1   
    27   16   17 1   
    28   16   22 1   
    29   16   53 1   
    30   17   18 1   
    31   17   66 1   
    32   18   30 1   
    33   18   31 1   
    34   18   35 1   
    35   19   20 1   
    36   19   21 1   
    37   19   67 1   
    38   20   23 1   
    39   20   55 1   
    40   20   57 1   
    41   21   22 1   
    42   22   23 1   
    43   23   54 1   
    44   24   25 1   
    45   24   29 1   
    46   24   65 1   
    47   25   26 1   
    48   25   68 1   
    49   26   27 1   
    50   26   59 1   
    51   27   60 1   
    52   27   67 1   
    53   28   29 1   
    54   28   58 1   
    55   32   34 1   
    56   32   61 1   
    57   33   37 1   
    58   33   62 1   
    59   33   63 1   
    60   34   35 1   
    61   35   36 1   
    62   35   64 1   
    63   36   37 1   
    64   37   38 1   
    65   38   39 1   
    66   38   40 1   
    67   38   41 1   
    68   56   67 1   
@<TRIPOS>SUBSTRUCTURE
     1 IZ2         1 TEMP              0 ****  ****    0 ROOT
