@<TRIPOS>MOLECULE
IZ2
   67    71     1     0     0
SMALL
bcc


@<TRIPOS>ATOM
      1 C1         18.5750   16.8410   82.8140 c3        1 IZ2     -0.195600
      2 C2         19.6270   17.9390   82.6910 c3        1 IZ2     -0.135400
      3 C3         20.9800   17.3430   83.0460 c         1 IZ2      0.699500
      4 N4         20.9010   15.9540   83.2010 n         1 IZ2     -0.689300
      5 S5         19.4190   15.2870   82.9650 s6        1 IZ2      1.428600
      6 O6         18.9590   14.6440   84.1180 o         1 IZ2     -0.629300
      7 O7         19.3960   14.5450   81.7820 o         1 IZ2     -0.629300
      8 O9         22.0260   17.9860   83.1790 o         1 IZ2     -0.568500
      9 C11        17.5700   16.9070   81.7240 ca        1 IZ2     -0.075300
     10 C12        17.9330   16.6920   80.3890 ca        1 IZ2     -0.105000
     11 C13        16.9800   16.7800   79.3770 ca        1 IZ2     -0.116000
     12 C14        15.6500   17.0930   79.6800 ca        1 IZ2     -0.070300
     13 C15        15.2860   17.3040   81.0160 ca        1 IZ2     -0.116000
     14 C16        16.2370   17.2150   82.0280 ca        1 IZ2     -0.105000
     15 C21        14.6240   17.1630   78.6060 c3        1 IZ2     -0.045100
     16 C22        14.0900   18.6020   78.4250 c3        1 IZ2      0.218200
     17 N45        12.8810   18.6500   77.6430 n3        1 IZ2     -0.913100
     18 S1         11.4910   19.3200   78.1420 sy        1 IZ2      1.517200
     19 C23        16.5830   21.1370   77.4860 cc        1 IZ2      0.303600
     20 C4         16.7050   20.2580   76.3880 cd        1 IZ2     -0.234600
     21 N11        15.6160   20.6480   78.3730 nc        1 IZ2     -0.661000
     22 C25        15.1650   19.4880   77.8320 cd        1 IZ2      0.364800
     23 N13        15.8020   19.2240   76.6090 na        1 IZ2     -0.306900
     24 C17        20.8490   22.8010   75.3050 ca        1 IZ2     -0.129000
     25 C18        19.6390   23.3340   74.8610 ca        1 IZ2     -0.130500
     26 C19        18.4880   23.1980   75.6360 ca        1 IZ2     -0.125500
     27 C20        18.5380   22.5260   76.8640 ca        1 IZ2     -0.085300
     28 C27        19.7570   21.9970   77.3060 ca        1 IZ2     -0.125500
     29 C6         20.9060   22.1330   76.5280 ca        1 IZ2     -0.130500
     30 O1         10.4300   18.6760   77.4730 o         1 IZ2     -0.647300
     31 O2         11.4560   19.3460   79.5510 o         1 IZ2     -0.647300
     32 C24        12.3590   23.1990   77.8340 ca        1 IZ2     -0.157000
     33 C26        11.6900   23.5670   76.6680 ca        1 IZ2     -0.022000
     34 C7         12.3070   21.8790   78.2790 ca        1 IZ2      0.026000
     35 C8         11.5840   20.9090   77.5740 ca        1 IZ2     -0.389500
     36 C9         10.9080   21.2880   76.4080 ca        1 IZ2      0.027000
     37 C10        10.9650   22.6050   75.9570 ca        1 IZ2     -0.199300
     38 C29        10.2470   22.9980   74.6720 c3        1 IZ2      0.690200
     39 F4         11.0030   22.8270   73.5360 f         1 IZ2     -0.234300
     40 F6          9.8550   24.3130   74.6170 f         1 IZ2     -0.234300
     41 F5          9.0990   22.2890   74.4190 f         1 IZ2     -0.234300
     42 H1         18.0310   17.0000   83.7920 h1        1 IZ2      0.127700
     43 H2C1       19.6770   18.3450   81.6460 hc        1 IZ2      0.103200
     44 H2C2       19.4110   18.7950   83.3790 hc        1 IZ2      0.103200
     45 H4         21.7340   15.4720   83.4390 hn        1 IZ2      0.359500
     46 H12        18.9700   16.4210   80.1350 ha        1 IZ2      0.142000
     47 H16        15.9340   17.3880   83.0720 ha        1 IZ2      0.142000
     48 H13        17.2810   16.5990   78.3340 ha        1 IZ2      0.141000
     49 H15        14.2400   17.5430   81.2680 ha        1 IZ2      0.141000
     50 H211       15.0400   16.7790   77.6390 hc        1 IZ2      0.058700
     51 H212       13.7670   16.4910   78.8880 hc        1 IZ2      0.058700
     52 H22        13.8480   19.0050   79.4620 h1        1 IZ2      0.111700
     53 H45        12.9600   18.2320   76.7480 hn        1 IZ2      0.444800
     54 HA         17.3480   20.3050   75.5100 h4        1 IZ2      0.188000
     55 H5C1       16.6200   23.2640   77.4910 hc        1 IZ2      0.064200
     56 H5C2       17.6050   22.4850   78.7940 hc        1 IZ2      0.064200
     57 HB         15.6640   18.4350   76.0360 hn        1 IZ2      0.299700
     58 H18        19.5910   23.8650   73.8990 ha        1 IZ2      0.132500
     59 H6         21.8590   21.7160   76.8830 ha        1 IZ2      0.132500
     60 H19        17.5370   23.6250   75.2850 ha        1 IZ2      0.134000
     61 H27        19.8050   21.4730   78.2720 ha        1 IZ2      0.134000
     62 H24        12.9310   23.9490   78.4010 ha        1 IZ2      0.154000
     63 H26        11.7230   24.6080   76.3070 ha        1 IZ2      0.156000
     64 H7         12.8420   21.5930   79.2040 ha        1 IZ2      0.166000
     65 H9         10.3100   20.5400   75.8530 ha        1 IZ2      0.174000
     66 C5         17.3160   22.4060   77.7090 c3        1 IZ2     -0.055400
     67 H17        21.7560   22.9100   74.6940 ha        1 IZ2      0.133000
@<TRIPOS>BOND
     1    1    2 1   
     2    1    5 1   
     3    1    9 1   
     4    1   42 1   
     5    2    3 1   
     6    2   43 1   
     7    2   44 1   
     8    3    4 1   
     9    3    8 2   
    10    4    5 1   
    11    4   45 1   
    12    5    6 2   
    13    5    7 2   
    14    9   10 ar  
    15    9   14 ar  
    16   10   11 ar  
    17   10   46 1   
    18   11   12 ar  
    19   11   48 1   
    20   12   13 ar  
    21   12   15 1   
    22   13   14 ar  
    23   13   49 1   
    24   14   47 1   
    25   15   16 1   
    26   15   50 1   
    27   15   51 1   
    28   16   17 1   
    29   16   22 1   
    30   16   52 1   
    31   17   18 1   
    32   17   53 1   
    33   18   30 2   
    34   18   31 2   
    35   18   35 1   
    36   19   20 2   
    37   19   21 1   
    38   19   66 1   
    39   20   23 1   
    40   20   54 1   
    41   21   22 2   
    42   22   23 1   
    43   23   57 1   
    44   24   25 ar  
    45   24   29 ar  
    46   24   67 1   
    47   25   26 ar  
    48   25   58 1   
    49   26   27 ar  
    50   26   60 1   
    51   27   28 ar  
    52   27   66 1   
    53   28   29 ar  
    54   28   61 1   
    55   29   59 1   
    56   32   33 ar  
    57   32   34 ar  
    58   32   62 1   
    59   33   37 ar  
    60   33   63 1   
    61   34   35 ar  
    62   34   64 1   
    63   35   36 ar  
    64   36   37 ar  
    65   36   65 1   
    66   37   38 1   
    67   38   39 1   
    68   38   40 1   
    69   38   41 1   
    70   55   66 1   
    71   56   66 1   
@<TRIPOS>SUBSTRUCTURE
     1 IZ2         1 TEMP              0 ****  ****    0 ROOT
