@<TRIPOS>MOLECULE
IZ2
   67    59     1     0     0
SMALL
bcc


@<TRIPOS>ATOM
      1 C1         -4.8420   -0.0680   -1.0870 c3        1 IZ2     -0.703000
      2 C2         -5.4050   -0.7820    0.2560 c3        1 IZ2     -0.168000
      3 C3         -5.5990   -2.3360   -0.2160 c2        1 IZ2      0.308000
      4 N4         -5.5370   -2.3490   -1.5060 n         1 IZ2     -0.869000
      5 S5         -4.5030   -1.2130   -1.9760 s6        1 IZ2      2.781000
      6 O6         -3.1390   -1.6320   -1.8110 o         1 IZ2     -0.909000
      7 O7         -4.7420   -0.8620   -3.3490 o         1 IZ2     -0.909000
      8 O9         -5.9530   -3.2580    0.4910 o         1 IZ2     -0.290000
      9 C11        -3.5370    0.5030   -0.6920 c2        1 IZ2     -0.069000
     10 C12        -3.3570    1.0010    0.5880 c1        1 IZ2     -0.111000
     11 C13        -2.1350    1.5420    0.9560 c1        1 IZ2     -0.133000
     12 C14        -1.0930    1.5840    0.0430 c1        1 IZ2     -0.068000
     13 C15        -1.2730    1.0860   -1.2370 c1        1 IZ2     -0.113000
     14 C16        -2.4950    0.5450   -1.6050 c2        1 IZ2     -0.101000
     15 C21         0.2420    2.1720    0.4460 c3        1 IZ2     -0.125000
     16 C22         1.1620    1.0630    0.9070 c3        1 IZ2      0.128000
     17 N45         1.3890    1.1860    2.3030 n3        1 IZ2     -0.902000
     18 S1          1.6870   -0.1520    3.2070 s4        1 IZ2      2.086800
     19 C23         4.1270    0.7250   -1.1860 c1        1 IZ2     -0.135500
     20 C4          4.5110    1.7450   -0.3580 c1        1 IZ2     -0.135500
     21 N11         2.8810    0.3740   -0.8560 n2        1 IZ2     -0.157000
     22 C25         2.4800    1.1640    0.1710 c2        1 IZ2     -0.104000
     23 N13         3.4970    2.0080    0.4710 n2        1 IZ2     -0.157000
     24 C5          5.0060    0.0280   -2.2030 c2        1 IZ2     -0.044000
     25 C17         4.4640    1.5580   -6.1670 c1        1 IZ2     -0.110000
     26 C18         3.7460    0.4490   -5.7490 c1        1 IZ2     -0.110000
     27 C19         3.8900   -0.0210   -4.4530 c1        1 IZ2     -0.110000
     28 C20         4.7530    0.6170   -3.5750 c1        1 IZ2     -0.068000
     29 C27         5.4720    1.7260   -3.9950 c1        1 IZ2     -0.129000
     30 C6          5.3270    2.1960   -5.2910 c1        1 IZ2     -0.110000
     31 O1          2.3790   -1.1540    2.4440 o         1 IZ2     -0.551400
     32 O2          2.6440    0.1200    4.2430 o         1 IZ2     -0.551400
     33 C24        -1.6590   -0.5940    5.4190 c1        1 IZ2     -0.110000
     34 C26        -2.1420   -1.8240    4.9980 c1        1 IZ2     -0.016000
     35 C7         -0.5010   -0.0760    4.8600 c1        1 IZ2     -0.110000
     36 C8          0.1740   -0.7880    3.8800 c1        1 IZ2     -0.830000
     37 C9         -0.3090   -2.0170    3.4600 c1        1 IZ2      0.034000
     38 C10        -1.4670   -2.5350    4.0190 c1        1 IZ2     -0.189000
     39 C29        -2.0140   -3.8600    3.5330 c3        1 IZ2      0.471000
     40 F4         -3.3480   -3.8660    3.6600 f         1 IZ2     -0.162000
     41 F6         -1.4930   -4.8540    4.2640 f         1 IZ2     -0.162000
     42 F5         -1.6870   -4.0340    2.2460 f         1 IZ2     -0.162000
     43 H1         -5.3300    0.6930   -1.4590 h1        1 IZ2      0.166000
     44 H2C1       -4.9370   -0.6240    1.0990 hc        1 IZ2      0.145500
     45 H2C2       -6.2830   -0.4000    0.4610 hc        1 IZ2      0.145500
     46 H4         -6.0030   -2.9100   -2.0580 hn        1 IZ2      0.272000
     47 H12        -4.0900    0.9710    1.2310 ha        1 IZ2      0.136000
     48 H16        -2.6210    0.1940   -2.5070 ha        1 IZ2      0.149000
     49 H13        -2.0080    1.8930    1.8580 ha        1 IZ2      0.134000
     50 H15        -0.5390    1.1160   -1.8800 ha        1 IZ2      0.144000
     51 H211        0.1110    2.8100    1.1750 hc        1 IZ2      0.120000
     52 H212        0.6420    2.6300   -0.3200 hc        1 IZ2      0.120000
     53 H22         0.7490    0.1980    0.7180 h1        1 IZ2      0.116000
     54 H45         1.3870    2.0100    2.6950 hn        1 IZ2      0.251000
     55 HA          5.3740    2.2000   -0.3700 DU        1 IZ2      0.231000
     56 H5C1        4.7970   -0.9270   -2.2150 ha        1 IZ2      0.098500
     57 H5C2        5.9450    0.1540   -1.9630 ha        1 IZ2      0.098500
     58 HB          3.4890    2.6450    1.1240 DU        1 IZ2      0.231000
     59 H17         4.3630    1.8900   -7.0800 ha        1 IZ2      0.141833
     60 H18         3.1380   -0.0000   -6.3670 ha        1 IZ2      0.141833
     61 H6          5.8330    2.9770   -5.5860 ha        1 IZ2      0.141833
     62 H19         3.3840   -0.8020   -4.1580 ha        1 IZ2      0.141833
     63 H27         6.0800    2.1760   -3.3770 ha        1 IZ2      0.127000
     64 H24        -2.1340   -0.0930    6.1090 ha        1 IZ2      0.141833
     65 H26        -2.9570   -2.1880    5.3920 ha        1 IZ2      0.160000
     66 H7         -0.1610    0.7900    5.1560 ha        1 IZ2      0.141833
     67 H9          0.1670   -2.5180    2.7700 ha        1 IZ2      0.176000
@<TRIPOS>BOND
     1    1    2 1   
     2    1    5 1   
     3    1    9 1   
     4    1   43 1   
     5    2    3 1   
     6    2   44 1   
     7    2   45 1   
     8    3    4 1   
     9    3    8 1   
    10    4    5 1   
    11    4   46 1   
    12    5    6 1   
    13    5    7 1   
    14    9   10 1   
    15    9   14 1   
    16   10   47 1   
    17   11   12 1   
    18   11   49 1   
    19   12   15 1   
    20   13   14 1   
    21   13   50 1   
    22   14   48 1   
    23   15   16 1   
    24   15   51 1   
    25   15   52 1   
    26   16   17 1   
    27   16   22 1   
    28   16   53 1   
    29   17   18 1   
    30   17   54 1   
    31   18   31 1   
    32   18   32 1   
    33   19   20 1   
    34   19   21 1   
    35   20   23 1   
    36   21   22 1   
    37   22   23 1   
    38   24   28 1   
    39   24   56 1   
    40   24   57 1   
    41   25   30 1   
    42   25   59 1   
    43   26   27 1   
    44   26   60 1   
    45   27   62 1   
    46   28   29 1   
    47   29   63 1   
    48   30   61 1   
    49   33   35 1   
    50   33   64 1   
    51   34   38 1   
    52   34   65 1   
    53   35   66 1   
    54   36   37 1   
    55   37   67 1   
    56   38   39 1   
    57   39   40 1   
    58   39   41 1   
    59   39   42 1   
@<TRIPOS>SUBSTRUCTURE
     1 IZ2         1 TEMP              0 ****  ****    0 ROOT
