@<TRIPOS>MOLECULE
IZ2
   68    67     1     0     0
SMALL
bcc


@<TRIPOS>ATOM
      1 C1         -2.4740   -1.4030   -0.4410 c2        1 IZ2     -0.877000
      2 C2         -2.1330   -2.3570    0.6650 c3        1 IZ2     -0.135000
      3 C3         -0.6130   -2.4480    0.7320 c2        1 IZ2      0.311000
      4 N4         -0.0280   -1.5610   -0.1950 ns        1 IZ2     -0.872000
      5 S5         -1.0870   -0.6730   -1.0550 s6        1 IZ2      2.876000
      6 O6         -0.9310   -0.8410   -2.4480 o         1 IZ2     -0.977500
      7 O7         -1.0080    0.7000   -0.7270 o         1 IZ2     -0.977500
      8 O9          0.0370   -3.1790    1.4760 o         1 IZ2     -0.252000
      9 C11        -3.7590   -1.2500   -0.8160 c2        1 IZ2      0.205000
     10 C12        -0.7700    2.8410   -1.9420 c1        1 IZ2      0.220000
     11 C13        -0.6540    2.4640   -3.0940 c1        1 IZ2     -0.341000
     12 C14        -0.5170    1.9620   -4.3550 c2        1 IZ2      0.383000
     13 C15        -4.6280    0.2060   -2.7860 c1        1 IZ2     -0.052000
     14 C16        -4.1990   -0.4410   -1.8700 c1        1 IZ2     -0.263000
     15 C21        -1.4650    1.0140   -4.9020 c3        1 IZ2     -0.286000
     16 C22        -1.5360    0.9940   -6.4500 c3        1 IZ2      0.144000
     17 N45        -2.3500   -0.0750   -6.9440 n7        1 IZ2     -0.895000
     18 S1         -3.9760   -0.1420   -6.8750 s6        1 IZ2      2.878000
     19 C23         1.7340    1.4640   -8.0990 c2        1 IZ2     -0.129000
     20 C4          1.9900    0.1150   -7.4120 c3        1 IZ2     -0.069000
     21 N11         0.4000    1.8850   -7.7720 n2        1 IZ2     -0.135000
     22 C25        -0.1230    0.9390   -7.0100 c2        1 IZ2     -0.042000
     23 N13         0.7530   -0.1410   -6.6520 n7        1 IZ2     -0.305000
     24 C17         3.7930   -1.3790  -11.1490 c2        1 IZ2     -0.021000
     25 C18         3.4090   -0.2630  -10.5010 c2        1 IZ2     -0.146000
     26 C19         4.3200    0.6790   -9.8910 c2        1 IZ2     -0.095000
     27 C20         3.9530    1.7460   -9.1650 c2        1 IZ2     -0.162000
     28 C27         6.2420   -2.1900  -11.4740 c1        1 IZ2     -0.163000
     29 C6          5.1190   -1.8030  -11.3140 c1        1 IZ2     -0.163000
     30 O1         -4.3420   -1.5080   -6.8790 o         1 IZ2     -0.955500
     31 O2         -4.3930    0.6130   -5.7490 o         1 IZ2     -0.955500
     32 C24        -4.2830    2.9930   -9.1540 c2        1 IZ2     -0.190000
     33 C26        -2.2350   -3.6630   -7.0080 c2        1 IZ2     -0.084000
     34 C7         -4.3760    1.7840   -8.7000 c1        1 IZ2      0.063000
     35 C8         -4.4960    0.5550   -8.2790 c2        1 IZ2     -0.917000
     36 C9         -1.0330   -2.8660   -7.0320 c1        1 IZ2      0.009000
     37 C10        -1.0360   -4.2840   -6.8750 c2        1 IZ2     -0.239000
     38 C29        -0.2810   -5.5580   -6.6860 c3        1 IZ2      0.513000
     39 F4          0.7540   -5.7200   -7.5720 f         1 IZ2     -0.141667
     40 F6         -1.0420   -6.6910   -6.8230 f         1 IZ2     -0.141667
     41 F5          0.2930   -5.6680   -5.4430 f         1 IZ2     -0.141667
     42 H1         -4.5610   -1.8050   -0.2830 ha        1 IZ2      0.165000
     43 H2C1       -2.5500   -3.3810    0.4760 hc        1 IZ2      0.151500
     44 H2C2       -2.5220   -2.0020    1.6550 hc        1 IZ2      0.151500
     45 H4          0.9620   -1.5410   -0.2530 hn        1 IZ2      0.282000
     46 H12        -0.8860    3.1370   -0.9170 ha        1 IZ2      0.283000
     47 H16         1.0940    0.2820   -3.5860 ha        1 IZ2      0.002000
     48 H13         1.2780   -0.3650   -3.6710 ha        1 IZ2      0.002000
     49 H15         0.3690    2.2660   -4.9620 ha        1 IZ2      0.200000
     50 H211       -5.0010    0.7600   -3.6230 ha        1 IZ2      0.271000
     51 H212       -1.1050   -0.0070   -4.4990 hc        1 IZ2      0.222500
     52 H22        -2.5060    1.1360   -4.4750 hc        1 IZ2      0.222500
     53 H45        -2.0160    1.9750   -6.7640 h1        1 IZ2      0.123000
     54 HA          0.3650   -1.0620   -6.7620 hn        1 IZ2      0.232000
     55 H5C1        2.8450    0.1880   -6.6900 h1        1 IZ2      0.119500
     56 H5C2        2.3150    3.1520   -9.2610 ha        1 IZ2      0.153000
     57 HB          2.2120   -0.6880   -8.1650 h1        1 IZ2      0.119500
     58 H6          7.2360   -2.5350  -11.6200 ha        1 IZ2      0.232000
     59 H19         5.3960    0.4920  -10.0730 ha        1 IZ2      0.144000
     60 H27         4.7270    2.4350   -8.7770 ha        1 IZ2      0.143000
     61 H24        -3.4510    3.3170   -9.8020 ha        1 IZ2      0.179000
     62 H26        -5.0330    3.7680   -8.9200 ha        1 IZ2      0.179000
     63 H7         -3.3140   -3.7250   -7.0490 ha        1 IZ2      0.244000
     64 H9         -5.0580   -0.1380   -8.9500 h4        1 IZ2      0.216000
     65 H17         3.0330   -2.0440  -11.6040 ha        1 IZ2      0.142000
     66 H452       -1.8320   -0.8630   -7.2830 hn        1 IZ2      0.276000
     67 C5          2.6000    2.1620   -8.8550 c2        1 IZ2     -0.060000
     68 H18         2.3340   -0.0180  -10.4320 ha        1 IZ2      0.129000
@<TRIPOS>BOND
     1    1    2 1   
     2    1    5 1   
     3    1    9 1   
     4    2    3 1   
     5    2   43 1   
     6    2   44 1   
     7    3    4 1   
     8    3    8 1   
     9    4    5 1   
    10    4   45 1   
    11    5    6 1   
    12    5    7 1   
    13    9   14 1   
    14    9   42 1   
    15   10   11 1   
    16   10   46 1   
    17   11   12 1   
    18   12   15 1   
    19   12   49 1   
    20   13   14 1   
    21   13   50 1   
    22   15   16 1   
    23   15   51 1   
    24   15   52 1   
    25   16   17 1   
    26   16   22 1   
    27   16   53 1   
    28   17   18 1   
    29   17   66 1   
    30   18   30 1   
    31   18   31 1   
    32   18   35 1   
    33   19   20 1   
    34   19   21 1   
    35   19   67 1   
    36   20   23 1   
    37   20   55 1   
    38   20   57 1   
    39   21   22 1   
    40   22   23 1   
    41   23   54 1   
    42   24   25 1   
    43   24   29 1   
    44   24   65 1   
    45   25   26 1   
    46   25   68 1   
    47   26   27 1   
    48   26   59 1   
    49   27   60 1   
    50   27   67 1   
    51   28   29 1   
    52   28   58 1   
    53   32   34 1   
    54   32   61 1   
    55   32   62 1   
    56   33   36 1   
    57   33   37 1   
    58   33   63 1   
    59   34   35 1   
    60   35   64 1   
    61   36   37 1   
    62   37   38 1   
    63   38   39 1   
    64   38   40 1   
    65   38   41 1   
    66   47   48 1   
    67   56   67 1   
@<TRIPOS>SUBSTRUCTURE
     1 IZ2         1 TEMP              0 ****  ****    0 ROOT
