@<TRIPOS>MOLECULE
IZ3
   63    64     1     0     0
SMALL
bcc


@<TRIPOS>ATOM
      1 C1         -0.7960   -0.4720    0.4620 c3        1 IZ3     -0.712000
      2 C2          0.4610   -0.9750   -0.2380 c3        1 IZ3     -0.166000
      3 C3          1.2460   -1.8270    0.7510 c2        1 IZ3      0.308000
      4 N4          0.5040   -2.0700    1.9150 n         1 IZ3     -0.869000
      5 S5         -1.0040   -1.4370    1.9530 s6        1 IZ3      2.791000
      6 O6         -1.1780   -0.5570    3.0190 o         1 IZ3     -0.901500
      7 O7         -1.9680   -2.4280    1.7680 o         1 IZ3     -0.901500
      8 O9          2.3850   -2.2590    0.5600 o         1 IZ3     -0.276000
      9 C11        -1.9720   -0.4310   -0.4390 ca        1 IZ3     -0.054000
     10 C12        -2.5600   -1.6060   -0.9270 ca        1 IZ3     -0.108000
     11 C13        -3.6780   -1.5430   -1.7570 ca        1 IZ3     -0.158000
     12 C14        -4.2200   -0.3070   -2.1310 ca        1 IZ3     -0.101000
     13 C15        -3.6280    0.8670   -1.6490 ca        1 IZ3     -0.158000
     14 C16        -2.5180    0.8060   -0.8100 ca        1 IZ3     -0.108000
     15 C21        -5.4310   -0.2370   -2.9810 c3        1 IZ3     -0.203000
     16 C22        -1.7580   -1.2370   -5.5230 c2        1 IZ3     -0.312000
     17 N45        -2.4640   -1.1530   -4.4450 n3        1 IZ3     -0.061000
     18 S1         -2.5100   -0.5790   -7.2930 s6        1 IZ3      2.990000
     19 O1         -3.7240   -0.1670   -6.7800 o         1 IZ3     -0.881000
     20 O2         -1.5850    0.3570   -7.6540 o         1 IZ3     -0.881000
     21 C23         1.4540   -2.4840   -6.4900 c2        1 IZ3     -0.069000
     22 C4          1.5910   -2.5500   -4.8530 c1        1 IZ3      0.229000
     23 N11         0.2610   -2.0390   -6.8170 n2        1 IZ3     -0.193000
     24 C25        -0.3800   -1.7850   -5.5200 c2        1 IZ3      0.108000
     25 N13         0.3530   -2.0550   -4.4340 n2        1 IZ3     -0.280000
     26 C24        -0.2210   -2.7490  -12.7850 c2        1 IZ3      0.116000
     27 C26        -1.3260   -1.7410  -12.9630 c3        1 IZ3     -0.067000
     28 C7         -2.5080   -2.9510   -8.6610 c1        1 IZ3      0.374000
     29 C8         -2.5180   -1.9170   -8.0150 c1        1 IZ3     -1.146000
     30 C9         -2.6520   -2.4020  -10.9310 c1        1 IZ3      0.081000
     31 C10        -2.5480   -2.0870  -12.1910 c2        1 IZ3     -0.383000
     32 C17         0.7340   -2.5900  -11.8930 c1        1 IZ3     -0.211000
     33 C19         4.6300   -1.5970   -9.8540 c2        1 IZ3     -0.174000
     34 C20         3.6140   -1.4240   -9.0090 c2        1 IZ3     -0.159000
     35 C27         2.5890   -2.4210   -8.7210 c2        1 IZ3     -0.106000
     36 C5          1.7040   -2.8720   -9.6530 c2        1 IZ3      0.100000
     37 C6          1.6950   -2.3890  -11.0380 c2        1 IZ3     -0.038000
     38 F2          0.7690   -3.8020   -9.3230 f         1 IZ3     -0.117000
     39 H1         -0.5910    0.5850    0.8080 h1        1 IZ3      0.170000
     40 H2C1        0.2150   -1.6060   -1.1310 hc        1 IZ3      0.137000
     41 H2C2        1.1100   -0.1300   -0.5810 hc        1 IZ3      0.137000
     42 H4          0.9430   -2.5990    2.6320 hn        1 IZ3      0.281000
     43 H12        -2.1760   -2.5900   -0.6070 ha        1 IZ3      0.158500
     44 H16        -2.0780    1.7410   -0.4260 ha        1 IZ3      0.158500
     45 H13        -4.1700   -2.4760   -2.0740 ha        1 IZ3      0.149000
     46 H15        -4.0590    1.8450   -1.9170 ha        1 IZ3      0.149000
     47 H211       -6.3280   -0.0290   -2.3400 hc        1 IZ3      0.098000
     48 H212       -5.3510    0.5870   -3.7320 hc        1 IZ3      0.098000
     49 H22        -5.6120   -1.2010   -3.5170 hc        1 IZ3      0.098000
     50 H45        -3.4010   -0.7520   -4.4730 hn        1 IZ3      0.294000
     51 H181        3.5340   -2.6190   -6.7900 hc        1 IZ3      0.157500
     52 H182        2.5640   -4.0590   -7.3210 hc        1 IZ3      0.157500
     53 H26        -0.9620   -0.7280  -12.6370 hc        1 IZ3      0.133000
     54 H7         -2.4840   -3.9230   -9.1170 ha        1 IZ3      0.260000
     55 H10        -1.5780   -1.6800  -14.0580 hc        1 IZ3      0.133000
     56 H9         -3.4920   -2.0520  -12.7870 ha        1 IZ3      0.225000
     57 H6          2.5910   -1.8030  -11.3290 ha        1 IZ3      0.176000
     58 H20         3.5060   -0.4890   -8.4300 ha        1 IZ3      0.141000
     59 F1         -0.2610   -3.8110  -13.6270 f         1 IZ3     -0.082000
     60 H17         4.7800   -2.5190  -10.4340 ha        1 IZ3      0.130500
     61 H452       -2.1520   -1.4510   -3.5260 hn        1 IZ3      0.294000
     62 C18         2.5830   -2.9260   -7.3180 c3        1 IZ3     -0.086000
     63 H19         5.3900   -0.8190  -10.0110 ha        1 IZ3      0.130500
@<TRIPOS>BOND
     1    1    2 1   
     2    1    5 1   
     3    1    9 1   
     4    1   39 1   
     5    2    3 1   
     6    2   40 1   
     7    2   41 1   
     8    3    4 1   
     9    3    8 1   
    10    4    5 1   
    11    4   42 1   
    12    5    6 1   
    13    5    7 1   
    14    9   10 1   
    15    9   14 1   
    16   10   11 1   
    17   10   43 1   
    18   11   12 1   
    19   11   45 1   
    20   12   13 1   
    21   12   15 1   
    22   13   14 1   
    23   13   46 1   
    24   14   44 1   
    25   15   47 1   
    26   15   48 1   
    27   15   49 1   
    28   16   17 1   
    29   16   18 1   
    30   16   24 1   
    31   17   50 1   
    32   17   61 1   
    33   18   19 1   
    34   18   20 1   
    35   18   29 1   
    36   21   22 1   
    37   21   23 1   
    38   21   62 1   
    39   22   25 1   
    40   23   24 1   
    41   24   25 1   
    42   26   27 1   
    43   26   32 1   
    44   26   59 1   
    45   27   31 1   
    46   27   53 1   
    47   27   55 1   
    48   28   29 1   
    49   28   54 1   
    50   30   31 1   
    51   31   56 1   
    52   32   37 1   
    53   33   34 1   
    54   33   60 1   
    55   33   63 1   
    56   34   35 1   
    57   34   58 1   
    58   35   36 1   
    59   35   62 1   
    60   36   37 1   
    61   36   38 1   
    62   37   57 1   
    63   51   62 1   
    64   52   62 1   
@<TRIPOS>SUBSTRUCTURE
     1 IZ3         1 TEMP              0 ****  ****    0 ROOT
