@<TRIPOS>MOLECULE
IZ3
   62    57     1     0     0
SMALL
bcc


@<TRIPOS>ATOM
      1 C1         -3.1750    1.1110    4.9040 c3        1 IZ3     -0.704000
      2 C2         -4.7090    0.5750    4.2450 c3        1 IZ3     -0.165000
      3 C3         -5.6200    1.4170    4.7970 c2        1 IZ3      0.307000
      4 N4         -4.9080    2.7330    5.0420 n         1 IZ3     -0.870000
      5 S5         -3.2420    2.4500    4.9050 s6        1 IZ3      2.781000
      6 O6         -2.4880    3.0370    6.0420 o         1 IZ3     -0.909500
      7 O7         -2.7380    2.9900    3.6470 o         1 IZ3     -0.909500
      8 O9         -6.8500    1.2290    4.8600 o         1 IZ3     -0.290000
      9 C11        -2.1430    0.7750    3.8050 c2        1 IZ3     -0.061000
     10 C12        -0.9330    0.1640    4.1450 c1        1 IZ3     -0.102000
     11 C13        -0.0060   -0.1580    3.1420 c1        1 IZ3     -0.118000
     12 C14        -0.2950    0.1340    1.7990 c1        1 IZ3     -0.073000
     13 C15        -1.4980    0.7410    1.4620 c1        1 IZ3     -0.117000
     14 C16        -2.4280    1.0640    2.4640 c2        1 IZ3     -0.100000
     15 C21         0.6920   -0.2960    0.6840 c3        1 IZ3     -0.127000
     16 C22         0.5130    0.5970   -0.5220 c3        1 IZ3      0.080000
     17 N45        -0.4200   -0.0240   -1.4620 n3        1 IZ3     -0.866000
     18 S1         -1.6960    0.8770   -2.1040 s4        1 IZ3      2.076800
     19 O1         -2.2700    1.7830   -1.0950 o         1 IZ3     -0.538400
     20 O2         -1.2300    1.8090   -3.0840 o         1 IZ3     -0.538400
     21 C23         3.9380   -0.0210   -1.4120 c1        1 IZ3     -0.087000
     22 C4          4.1210    1.3970   -0.8620 c1        1 IZ3      0.106000
     23 N11         2.5780   -0.2930   -1.5810 n1        1 IZ3     -0.209000
     24 C25         1.8380    0.7940   -1.1950 c2        1 IZ3      0.158000
     25 N13         2.7040    1.8350   -0.7620 n2        1 IZ3     -0.313000
     26 F1         -5.2520   -2.7570   -1.6950 f         1 IZ3     -0.101000
     27 C24        -4.5610   -1.9580   -2.4930 c2        1 IZ3      0.063000
     28 C26        -4.8800   -1.8820   -3.8460 c2        1 IZ3     -0.098000
     29 C7         -3.5920   -1.1210   -1.9670 c1        1 IZ3     -0.061000
     30 C8         -2.9460   -0.2130   -2.7850 c1        1 IZ3     -0.807000
     31 C9         -3.2710   -0.1420   -4.1370 c1        1 IZ3     -0.005000
     32 C10        -4.2330   -0.9740   -4.6610 c1        1 IZ3     -0.132000
     33 C17         8.3490   -1.4020   -3.6040 c1        1 IZ3     -0.124250
     34 C19         8.1390   -0.2600   -2.8740 c1        1 IZ3     -0.124250
     35 C20         7.0220   -0.1550   -2.0540 c1        1 IZ3     -0.124250
     36 C27         6.1070   -1.2210   -1.9730 c1        1 IZ3     -0.118000
     37 C5          6.3200   -2.3610   -2.7050 c1        1 IZ3      0.094000
     38 C6          7.4400   -2.4620   -3.5250 c1        1 IZ3     -0.124250
     39 C18         4.9030   -1.1470   -0.9760 c3        1 IZ3     -0.073000
     40 F2          5.4770   -3.4090   -2.5860 f         1 IZ3     -0.112000
     41 H1         -2.8250    0.6610    5.6950 h1        1 IZ3      0.166000
     42 H2C1       -4.9110   -0.3860    4.4660 hc        1 IZ3      0.146500
     43 H2C2       -4.7240    0.5680    3.2440 hc        1 IZ3      0.146500
     44 H4         -5.3190    3.5700    5.1730 hn        1 IZ3      0.273000
     45 H12        -0.7250   -0.0440    5.1140 ha        1 IZ3      0.138000
     46 H16        -3.2930    1.4980    2.2200 ha        1 IZ3      0.149000
     47 H13         0.8680   -0.6000    3.3860 ha        1 IZ3      0.134000
     48 H15        -1.7010    0.9470    0.5120 ha        1 IZ3      0.143000
     49 H211        0.5190   -1.2080    0.4360 hc        1 IZ3      0.118000
     50 H212        1.6420   -0.2120    1.0260 hc        1 IZ3      0.118000
     51 H22         0.1490    1.4890   -0.2280 h1        1 IZ3      0.167000
     52 H45        -0.2810   -0.9170   -1.7480 hn        1 IZ3      0.245000
     53 H181        5.2320   -0.9630   -0.0850 hc        1 IZ3      0.126000
     54 H182        4.4270   -2.0030   -0.9770 hc        1 IZ3      0.126000
     55 H26        -5.5630   -2.4720   -4.2210 ha        1 IZ3      0.155000
     56 H7         -3.3380   -1.1960   -1.0130 ha        1 IZ3      0.170000
     57 H10        -4.4640   -0.9200   -5.6290 ha        1 IZ3      0.156000
     58 H9         -2.8290    0.4780   -4.6970 ha        1 IZ3      0.158000
     59 H17         9.1160   -1.4740   -4.1670 ha        1 IZ3      0.151250
     60 H19         8.8010    0.5080   -2.9330 ha        1 IZ3      0.151250
     61 H6          7.5900   -3.2610   -4.0380 ha        1 IZ3      0.151250
     62 H20         6.8690    0.6810   -1.5190 ha        1 IZ3      0.151250
@<TRIPOS>BOND
     1    1    2 1   
     2    1    5 1   
     3    1    9 1   
     4    1   41 1   
     5    2    3 1   
     6    2   42 1   
     7    2   43 1   
     8    3    4 1   
     9    3    8 1   
    10    4    5 1   
    11    4   44 1   
    12    5    6 1   
    13    5    7 1   
    14    9   10 1   
    15    9   14 1   
    16   10   45 1   
    17   11   12 1   
    18   11   47 1   
    19   12   15 1   
    20   13   14 1   
    21   13   48 1   
    22   14   46 1   
    23   15   16 1   
    24   15   49 1   
    25   15   50 1   
    26   16   17 1   
    27   16   24 1   
    28   16   51 1   
    29   17   18 1   
    30   17   52 1   
    31   18   19 1   
    32   18   20 1   
    33   21   22 1   
    34   21   39 1   
    35   22   25 1   
    36   23   24 1   
    37   24   25 1   
    38   26   27 1   
    39   27   28 1   
    40   27   29 1   
    41   28   32 1   
    42   28   55 1   
    43   29   56 1   
    44   30   31 1   
    45   31   58 1   
    46   32   57 1   
    47   33   38 1   
    48   33   59 1   
    49   34   35 1   
    50   34   60 1   
    51   35   62 1   
    52   36   37 1   
    53   36   39 1   
    54   37   40 1   
    55   38   61 1   
    56   39   53 1   
    57   39   54 1   
@<TRIPOS>SUBSTRUCTURE
     1 IZ3         1 TEMP              0 ****  ****    0 ROOT
