@<TRIPOS>MOLECULE
IZ3
   62    66     1     0     0
SMALL
bcc


@<TRIPOS>ATOM
      1 C1         18.7520   16.5720   82.6160 c3        1 IZ3     -0.196600
      2 C2         19.9760   17.3880   82.2130 c3        1 IZ3     -0.135400
      3 C3         21.2140   16.5400   82.4620 c         1 IZ3      0.699500
      4 N4         20.8720   15.2240   82.8000 n         1 IZ3     -0.690300
      5 S5         19.2670   14.8890   82.8490 s6        1 IZ3      1.429600
      6 O6         18.8690   14.4790   84.1260 o         1 IZ3     -0.629800
      7 O7         18.9000   14.0640   81.7840 o         1 IZ3     -0.629800
      8 O9         22.3780   16.9400   82.3760 o         1 IZ3     -0.566500
      9 C11        17.6210   16.7600   81.6730 ca        1 IZ3     -0.069300
     10 C12        17.7160   16.3510   80.3370 ca        1 IZ3     -0.104000
     11 C13        16.6540   16.5600   79.4600 ca        1 IZ3     -0.115000
     12 C14        15.4830   17.1870   79.9010 ca        1 IZ3     -0.087300
     13 C15        15.3830   17.5850   81.2390 ca        1 IZ3     -0.115000
     14 C16        16.4440   17.3770   82.1170 ca        1 IZ3     -0.104000
     15 C21        14.3410   17.3860   78.9700 c3        1 IZ3     -0.050100
     16 C22        14.0450   18.8870   78.7350 c3        1 IZ3      0.207200
     17 N45        12.8070   19.1200   78.0530 n3        1 IZ3     -0.908100
     18 S1         11.5950   20.0510   78.6120 sy        1 IZ3      1.516200
     19 O1         10.3970   19.6080   78.0210 o         1 IZ3     -0.644300
     20 O2         11.6570   20.1040   80.0190 o         1 IZ3     -0.644300
     21 C23        16.4950   19.7800   76.2070 ce        1 IZ3     -0.020700
     22 C4         17.0600   20.6150   77.5050 c1        1 IZ3      0.397500
     23 N11        15.4030   19.1370   76.5440 ne        1 IZ3     -0.631300
     24 C25        15.2230   19.4720   77.9650 cf        1 IZ3      0.744300
     25 N13        16.1600   20.3000   78.4830 nf        1 IZ3     -0.748700
     26 C24        11.8250   23.2340   76.2270 ca        1 IZ3      0.100900
     27 C26        12.5670   24.1450   77.0050 ca        1 IZ3     -0.101000
     28 C7         11.5290   21.9550   76.7270 ca        1 IZ3     -0.056000
     29 C8         11.9730   21.5790   77.9970 ca        1 IZ3     -0.364500
     30 C9         12.7020   22.4950   78.7640 ca        1 IZ3     -0.029000
     31 C10        12.9970   23.7650   78.2720 ca        1 IZ3     -0.128000
     32 C17        15.4630   17.7400   71.6380 ca        1 IZ3     -0.099000
     33 C19        15.0680   19.0450   71.9310 ca        1 IZ3     -0.141000
     34 C20        15.6400   19.7250   73.0040 ca        1 IZ3     -0.093000
     35 C27        16.6140   19.1160   73.8020 ca        1 IZ3     -0.123300
     36 C5         17.0100   17.7960   73.4970 ca        1 IZ3      0.135900
     37 C6         16.4320   17.1100   72.4120 ca        1 IZ3     -0.162000
     38 F2         17.9580   17.1760   74.2420 f         1 IZ3     -0.141900
     39 H1         18.4170   16.9420   83.6310 h1        1 IZ3      0.127700
     40 H2C1       19.9450   17.6680   81.1270 hc        1 IZ3      0.104700
     41 H2C2       20.0550   18.3340   82.8060 hc        1 IZ3      0.104700
     42 H4         21.6130   14.5920   82.9830 hn        1 IZ3      0.359500
     43 H12        18.6210   15.8350   79.9800 ha        1 IZ3      0.143000
     44 H16        16.3510   17.7030   83.1650 ha        1 IZ3      0.143000
     45 H13        16.7400   16.2210   78.4160 ha        1 IZ3      0.144000
     46 H15        14.4610   18.0640   81.6030 ha        1 IZ3      0.144000
     47 H211       14.5350   16.8790   77.9880 hc        1 IZ3      0.077700
     48 H212       13.4240   16.9130   79.4170 hc        1 IZ3      0.077700
     49 H22        13.9930   19.3950   79.7530 h1        1 IZ3      0.113700
     50 H45        12.7290   18.6360   77.1860 hn        1 IZ3      0.463800
     51 H181       17.3320   20.9500   74.6750 hc        1 IZ3      0.100700
     52 H182       18.2700   19.4680   75.1350 hc        1 IZ3      0.100700
     53 H26        12.7930   25.1450   76.6050 ha        1 IZ3      0.156000
     54 H7         10.9260   21.2590   76.1180 ha        1 IZ3      0.169000
     55 H10        13.5720   24.4730   78.8890 ha        1 IZ3      0.153000
     56 H9         13.0360   22.2080   79.7780 ha        1 IZ3      0.163000
     57 H19        14.3020   19.5400   71.3150 ha        1 IZ3      0.140000
     58 H6         16.7530   16.0820   72.1900 ha        1 IZ3      0.151000
     59 H20        15.3250   20.7550   73.2300 ha        1 IZ3      0.137000
     60 C18        17.2280   19.8570   74.9350 c3        1 IZ3      0.016100
     61 F1         11.3970   23.5930   74.9930 f         1 IZ3     -0.133900
     62 H17        15.0090   17.2030   70.7910 ha        1 IZ3      0.141000
@<TRIPOS>BOND
     1    1    2 1   
     2    1    5 1   
     3    1    9 1   
     4    1   39 1   
     5    2    3 1   
     6    2   40 1   
     7    2   41 1   
     8    3    4 1   
     9    3    8 2   
    10    4    5 1   
    11    4   42 1   
    12    5    6 2   
    13    5    7 2   
    14    9   10 ar  
    15    9   14 ar  
    16   10   11 ar  
    17   10   43 1   
    18   11   12 ar  
    19   11   45 1   
    20   12   13 ar  
    21   12   15 1   
    22   13   14 ar  
    23   13   46 1   
    24   14   44 1   
    25   15   16 1   
    26   15   47 1   
    27   15   48 1   
    28   16   17 1   
    29   16   24 1   
    30   16   49 1   
    31   17   18 1   
    32   17   50 1   
    33   18   19 2   
    34   18   20 2   
    35   18   29 1   
    36   21   22 2   
    37   21   23 1   
    38   21   60 1   
    39   22   25 2   
    40   23   24 2   
    41   24   25 1   
    42   26   27 ar  
    43   26   28 ar  
    44   26   61 1   
    45   27   31 ar  
    46   27   53 1   
    47   28   29 ar  
    48   28   54 1   
    49   29   30 ar  
    50   30   31 ar  
    51   30   56 1   
    52   31   55 1   
    53   32   33 ar  
    54   32   37 ar  
    55   32   62 1   
    56   33   34 ar  
    57   33   57 1   
    58   34   35 ar  
    59   34   59 1   
    60   35   36 ar  
    61   35   60 1   
    62   36   37 ar  
    63   36   38 1   
    64   37   58 1   
    65   51   60 1   
    66   52   60 1   
@<TRIPOS>SUBSTRUCTURE
     1 IZ3         1 TEMP              0 ****  ****    0 ROOT
