@<TRIPOS>MOLECULE
IZ3
   63    63     1     0     0
SMALL
bcc


@<TRIPOS>ATOM
      1 C1          0.1080   -0.2910   -0.1990 c3        1 IZ3     -0.715000
      2 C2          1.2350    0.6550   -0.6020 c3        1 IZ3     -0.164000
      3 C3          2.5030    0.2220    0.1200 c2        1 IZ3      0.307000
      4 N4          2.3160   -0.9920    0.7960 n         1 IZ3     -0.870000
      5 S5          0.8450   -1.6890    0.6320 s6        1 IZ3      2.790000
      6 O6          0.2010   -1.8570    1.8560 o         1 IZ3     -0.904000
      7 O7          0.9090   -2.7950   -0.2170 o         1 IZ3     -0.904000
      8 O9          3.5670    0.8440    0.1100 o         1 IZ3     -0.278000
      9 C11        -0.7810   -0.6150   -1.3410 ca        1 IZ3     -0.030000
     10 C12        -0.3350   -1.4020   -2.4110 ca        1 IZ3     -0.110500
     11 C13        -1.1850   -1.6930   -3.4750 ca        1 IZ3     -0.105500
     12 C14        -2.4950   -1.1970   -3.4960 ca        1 IZ3     -0.082000
     13 C15        -2.9440   -0.4140   -2.4200 ca        1 IZ3     -0.105500
     14 C16        -2.0930   -0.1210   -1.3590 ca        1 IZ3     -0.110500
     15 C21        -3.4290   -1.5260   -4.5560 c2        1 IZ3     -0.053000
     16 C22        -3.1840   -1.5510   -5.8860 c2        1 IZ3     -0.060000
     17 N45        -4.1820   -1.8290   -6.8670 n3        1 IZ3     -0.362000
     18 S1         -4.9870    0.0430   -8.4650 s4        1 IZ3      2.189800
     19 O1         -6.0280   -0.7890   -8.7590 o         1 IZ3     -0.477900
     20 O2         -5.1200    0.9160   -7.4210 o         1 IZ3     -0.477900
     21 C23        -0.0930   -1.8330   -8.0670 c3        1 IZ3     -0.029000
     22 C4         -1.0010    1.1330   -5.7500 c1        1 IZ3      0.246000
     23 N11        -1.2830   -2.0430   -7.2950 n2        1 IZ3     -0.206000
     24 C25        -1.8350   -1.2000   -6.4730 c2        1 IZ3      0.259000
     25 N13        -1.3460    0.0550   -6.1170 n2        1 IZ3     -0.392000
     26 C24        -1.6650    0.1350  -10.7160 c2        1 IZ3     -0.168000
     27 C26        -0.5570    1.0670  -10.3700 c3        1 IZ3     -0.050000
     28 C7         -2.8120    0.1260  -10.0350 c1        1 IZ3      0.302000
     29 C8         -3.8230    0.0940   -9.2970 c1        1 IZ3     -1.342000
     30 C9          0.1400   -0.5490   -8.6300 c1        1 IZ3      0.164000
     31 C10         0.2620    0.6020   -9.1950 c2        1 IZ3     -0.116000
     32 C17         0.6890   -6.9730   -5.5060 c1        1 IZ3      0.337000
     33 C19         2.7680   -5.3210   -8.8290 c2        1 IZ3     -0.170000
     34 C20         1.8000   -4.4080   -8.7390 c2        1 IZ3     -0.155000
     35 C27         1.2760   -3.8630   -7.4960 c2        1 IZ3     -0.194000
     36 C5          0.8550   -4.6430   -6.4550 c2        1 IZ3      0.229000
     37 C6          0.8630   -6.0920   -6.4780 c2        1 IZ3     -0.525000
     38 F2          0.3880   -4.0680   -5.3190 f         1 IZ3     -0.102000
     39 H1         -0.5160    0.2380    0.5830 h1        1 IZ3      0.172000
     40 H2C1        1.4240    0.6240   -1.7060 hc        1 IZ3      0.139500
     41 H2C2        1.0030    1.7150   -0.3240 hc        1 IZ3      0.139500
     42 H4          3.0800   -1.3390    1.3280 hn        1 IZ3      0.281000
     43 H12         0.6790   -1.8340   -2.3950 ha        1 IZ3      0.155500
     44 H16        -2.4620    0.4970   -0.5250 ha        1 IZ3      0.155500
     45 H13        -0.8310   -2.3480   -4.2870 ha        1 IZ3      0.144000
     46 H15        -3.9760   -0.0270   -2.4150 ha        1 IZ3      0.144000
     47 H211       -4.4520   -1.7640   -4.1910 ha        1 IZ3      0.162000
     48 H212       -6.4370   -2.5460   -4.8060 ha        1 IZ3      0.001500
     49 H22        -7.0110   -2.5070   -5.1640 ha        1 IZ3      0.001500
     50 H45        -5.0560   -2.0680   -6.4220 hn        1 IZ3      0.198500
     51 H181        2.1030   -1.9490   -7.9750 hc        1 IZ3      0.122500
     52 H182        1.2700   -2.0310   -6.3500 hc        1 IZ3      0.122500
     53 H26         0.1380    1.1820  -11.2510 hc        1 IZ3      0.162000
     54 H7         -0.2470   -2.5130   -9.0010 h1        1 IZ3      0.242000
     55 H10        -0.9620    2.0840  -10.1020 hc        1 IZ3      0.162000
     56 H9          1.0020    1.3560   -8.8300 ha        1 IZ3      0.256000
     57 H6          1.0470   -6.5380   -7.4870 ha        1 IZ3      0.225000
     58 H20         1.3430   -3.9860   -9.6520 ha        1 IZ3      0.119000
     59 F1         -1.4680   -0.6600  -11.8040 f         1 IZ3     -0.078000
     60 H17         3.2670   -5.7540   -7.9500 ha        1 IZ3      0.133500
     61 H452       -3.8970   -2.5950   -7.4570 hn        1 IZ3      0.198500
     62 C18         1.2330   -2.3830   -7.4150 c3        1 IZ3     -0.059000
     63 H19         3.1310   -5.6870   -9.8000 ha        1 IZ3      0.133500
@<TRIPOS>BOND
     1    1    2 1   
     2    1    5 1   
     3    1    9 1   
     4    1   39 1   
     5    2    3 1   
     6    2   40 1   
     7    2   41 1   
     8    3    4 1   
     9    3    8 1   
    10    4    5 1   
    11    4   42 1   
    12    5    6 1   
    13    5    7 1   
    14    9   10 1   
    15    9   14 1   
    16   10   11 1   
    17   10   43 1   
    18   11   12 1   
    19   11   45 1   
    20   12   13 1   
    21   12   15 1   
    22   13   14 1   
    23   13   46 1   
    24   14   44 1   
    25   15   16 1   
    26   15   47 1   
    27   16   17 1   
    28   16   24 1   
    29   17   50 1   
    30   17   61 1   
    31   18   19 1   
    32   18   20 1   
    33   18   29 1   
    34   21   23 1   
    35   21   30 1   
    36   21   54 1   
    37   21   62 1   
    38   22   25 1   
    39   23   24 1   
    40   24   25 1   
    41   26   27 1   
    42   26   28 1   
    43   26   59 1   
    44   27   31 1   
    45   27   53 1   
    46   27   55 1   
    47   28   29 1   
    48   30   31 1   
    49   31   56 1   
    50   32   37 1   
    51   33   34 1   
    52   33   60 1   
    53   33   63 1   
    54   34   35 1   
    55   34   58 1   
    56   35   36 1   
    57   35   62 1   
    58   36   37 1   
    59   36   38 1   
    60   37   57 1   
    61   48   49 1   
    62   51   62 1   
    63   52   62 1   
@<TRIPOS>SUBSTRUCTURE
     1 IZ3         1 TEMP              0 ****  ****    0 ROOT
