@<TRIPOS>MOLECULE
IZ4
   70    66     1     0     0
SMALL
bcc


@<TRIPOS>ATOM
      1 C1         -0.6290   -0.7500   -0.5840 c2        1 IZ4     -0.636000
      2 C2          3.1950   -1.8900   -0.3780 c3        1 IZ4     -0.250000
      3 C3          2.7740   -0.7680    0.5260 c2        1 IZ4      0.325000
      4 N4          1.4340   -0.7250    0.9980 ns        1 IZ4     -0.907000
      5 S5          0.1870   -1.6810    0.6740 s6        1 IZ4      2.821000
      6 O6         -0.7280   -1.6830    1.7290 o         1 IZ4     -0.893000
      7 O7          0.5690   -2.8960    0.0960 o         1 IZ4     -0.893000
      8 O9          3.5320    0.1310    0.8990 o         1 IZ4     -0.265000
      9 C11        -1.0560   -1.0950   -1.8190 ca        1 IZ4     -0.030000
     10 C12        -0.8410   -2.4060   -2.4170 ca        1 IZ4      0.016000
     11 C13        -1.3010   -2.6910   -3.6690 ca        1 IZ4     -0.204000
     12 C14        -2.0090   -1.7230   -4.4410 ca        1 IZ4      0.216000
     13 C15        -2.2360   -0.4360   -3.8780 ca        1 IZ4     -0.204000
     14 C16        -1.7840   -0.1250   -2.6300 ca        1 IZ4      0.016000
     15 C21        -2.4350   -2.0840   -5.8100 c3        1 IZ4     -0.071000
     16 C22        -3.0980   -1.0360   -6.6000 c2        1 IZ4     -0.582000
     17 N45        -4.5180   -1.0240   -6.7710 ny        1 IZ4     -0.324000
     18 S1         -4.8680   -2.2730   -8.0740 s6        1 IZ4      2.768000
     19 O1         -4.9520   -3.4450   -7.3220 o         1 IZ4     -0.880500
     20 O2         -6.0240   -1.7570   -8.6490 o         1 IZ4     -0.880500
     21 C23         2.0040   -0.9820   -7.3880 c2        1 IZ4     -0.005000
     22 C4          1.5380    1.2020   -6.6410 c1        1 IZ4     -0.069000
     23 N11         0.7300   -1.1050   -7.5400 n2        1 IZ4     -0.325000
     24 C25        -2.3550    0.0630   -7.0340 c1        1 IZ4     -0.041000
     25 N13        -1.7000    0.9530   -7.4140 n1        1 IZ4     -0.143000
     26 C24        -3.2470   -1.3310  -11.4850 c2        1 IZ4      0.144000
     27 C26        -2.6190    0.0020  -11.7960 c3        1 IZ4     -0.058000
     28 C7         -3.4500   -1.7750  -10.2540 c1        1 IZ4     -0.016000
     29 C8         -3.5630   -2.2580   -9.0510 c2        1 IZ4     -0.825000
     30 C9         -0.7050    0.3130  -10.1930 c1        1 IZ4      0.238000
     31 C10        -1.9110    0.5880  -10.6400 c2        1 IZ4     -0.508000
     32 C18         2.7410   -1.5260   -6.1950 c3        1 IZ4     -0.143000
     33 C17         5.2940   -3.3620   -4.6450 c1        1 IZ4     -0.207000
     34 C19         4.6680   -2.8910   -5.5500 c1        1 IZ4     -0.174000
     35 C20         0.0070   -4.5560   -6.2540 c1        1 IZ4     -0.244000
     36 C28        -0.6120   -5.4760   -5.8010 c1        1 IZ4     -0.244000
     37 C5         -2.3290   -8.0140   -4.5160 c1        1 IZ4      0.121000
     38 C6         -2.8330   -9.1860   -4.2680 c2        1 IZ4     -0.522000
     39 H1          3.0540   -2.8790    0.1260 hc        1 IZ4      0.129333
     40 H2C1        4.2780   -1.7570   -0.6280 hc        1 IZ4      0.129333
     41 H2C2        2.6010   -1.8850   -1.3240 hc        1 IZ4      0.129333
     42 H4          1.3150    0.0170    1.6680 hn        1 IZ4      0.279000
     43 H12        -0.2920   -3.1770   -1.8360 ha        1 IZ4      0.192000
     44 H16        -0.8710    0.2820   -0.2500 h4        1 IZ4      0.183000
     45 H13        -1.1140   -3.6870   -4.1240 ha        1 IZ4      0.196000
     46 H15        -1.9600    0.8780   -2.2000 ha        1 IZ4      0.192000
     47 H211       -1.4750   -2.3810   -6.3570 hc        1 IZ4      0.169500
     48 H212       -2.7690    0.3140   -4.4930 ha        1 IZ4      0.196000
     49 H22        -3.0510   -3.0330   -5.7500 hc        1 IZ4      0.169500
     50 H45        -4.8360   -0.0890   -7.0290 hn        1 IZ4      0.227000
     51 H23         0.3650   -0.7200   -8.3890 hn        1 IZ4      0.164000
     52 H4C1        1.2080    1.7320   -7.5470 ha        1 IZ4      0.021500
     53 H4C2        2.6830   -0.5100   -8.1370 h4        1 IZ4      0.117000
     54 H181        2.0810   -2.1610   -5.5490 hc        1 IZ4      0.106000
     55 H182        3.0820   -0.6460   -5.5840 hc        1 IZ4      0.106000
     56 HA          0.7580    1.2100   -5.8630 ha        1 IZ4      0.021500
     57 H26        -1.9130   -0.1440  -12.6610 hc        1 IZ4      0.136000
     58 H7         -2.6600   -2.7780   -8.6400 h4        1 IZ4      0.224000
     59 H10        -3.4340    0.6950  -12.1490 hc        1 IZ4      0.136000
     60 H9         -2.4550    1.3990  -10.1050 ha        1 IZ4      0.209000
     61 H6          5.8600   -3.7840   -3.8540 ha        1 IZ4      0.225000
     62 H20         0.5750   -3.7560   -6.6650 ha        1 IZ4      0.243000
     63 H28        -2.3170   -9.9650   -3.6800 ha        1 IZ4      0.204500
     64 H5         -1.1620   -6.3050   -5.4040 ha        1 IZ4      0.243000
     65 C27         3.9420   -2.3390   -6.6540 c3        1 IZ4     -0.054000
     66 H17        -3.8240   -9.5170   -4.6240 ha        1 IZ4      0.204500
     67 H452       -4.9830   -1.2720   -5.8960 hn        1 IZ4      0.227000
     68 F1         -3.6210   -2.0550  -12.5650 f         1 IZ4     -0.061000
     69 H271        4.6300   -1.6850   -7.2620 hc        1 IZ4      0.106500
     70 H272        3.5970   -3.1760   -7.3260 hc        1 IZ4      0.106500
@<TRIPOS>BOND
     1    1    5 1   
     2    1    9 1   
     3    1   44 1   
     4    2    3 1   
     5    2   39 1   
     6    2   40 1   
     7    2   41 1   
     8    3    4 1   
     9    3    8 1   
    10    4    5 1   
    11    4   42 1   
    12    5    6 1   
    13    5    7 1   
    14    9   10 1   
    15    9   14 1   
    16   10   11 1   
    17   10   43 1   
    18   11   12 1   
    19   11   45 1   
    20   12   13 1   
    21   12   15 1   
    22   13   14 1   
    23   13   48 1   
    24   14   46 1   
    25   15   16 1   
    26   15   47 1   
    27   15   49 1   
    28   16   17 1   
    29   16   24 1   
    30   17   18 1   
    31   17   50 1   
    32   17   67 1   
    33   18   19 1   
    34   18   20 1   
    35   18   29 1   
    36   21   23 1   
    37   21   32 1   
    38   21   53 1   
    39   22   52 1   
    40   22   56 1   
    41   23   51 1   
    42   24   25 1   
    43   26   27 1   
    44   26   28 1   
    45   26   68 1   
    46   27   31 1   
    47   27   57 1   
    48   27   59 1   
    49   28   29 1   
    50   29   58 1   
    51   30   31 1   
    52   31   60 1   
    53   32   54 1   
    54   32   55 1   
    55   32   65 1   
    56   33   34 1   
    57   33   61 1   
    58   34   65 1   
    59   35   36 1   
    60   35   62 1   
    61   36   64 1   
    62   37   38 1   
    63   38   63 1   
    64   38   66 1   
    65   65   69 1   
    66   65   70 1   
@<TRIPOS>SUBSTRUCTURE
     1 IZ4         1 TEMP              0 ****  ****    0 ROOT
