@<TRIPOS>MOLECULE
IZ4
   69    73     1     0     0
SMALL
bcc


@<TRIPOS>ATOM
      1 C1         18.4100   17.1700   82.9950 c3        1 IZ4     -0.196600
      2 C2         19.6320   17.9720   82.5590 c3        1 IZ4     -0.135400
      3 C3         20.8770   17.1880   82.9480 c         1 IZ4      0.699500
      4 N4         20.5490   15.9060   83.4070 n         1 IZ4     -0.688300
      5 S5         18.9510   15.5320   83.4180 s6        1 IZ4      1.430600
      6 O6         18.5040   15.2380   84.7090 o         1 IZ4     -0.627300
      7 O7         18.6560   14.6000   82.4210 o         1 IZ4     -0.627300
      8 O9         22.0330   17.6110   82.8690 o         1 IZ4     -0.566500
      9 C11        17.3130   17.2340   81.9980 ca        1 IZ4     -0.076300
     10 C12        17.4630   16.6850   80.7180 ca        1 IZ4     -0.107500
     11 C13        16.4270   16.7670   79.7910 ca        1 IZ4     -0.126500
     12 C14        15.2240   17.4000   80.1240 ca        1 IZ4     -0.082300
     13 C15        15.0730   17.9480   81.4040 ca        1 IZ4     -0.126500
     14 C16        16.1080   17.8670   82.3320 ca        1 IZ4     -0.107500
     15 C21        14.1000   17.4560   79.1510 c3        1 IZ4     -0.056100
     16 C22        13.8360   18.9070   78.6790 c3        1 IZ4      0.231200
     17 N45        12.5090   19.0950   78.1660 n3        1 IZ4     -0.903100
     18 S1         11.4260   20.1340   78.7720 sy        1 IZ4      1.514200
     19 O1         10.1330   19.6400   78.5040 o         1 IZ4     -0.650800
     20 O2         11.7480   20.4170   80.1190 o         1 IZ4     -0.650800
     21 C23        16.0730   19.6000   75.7490 c3        1 IZ4      0.089500
     22 C4         17.0100   19.9680   76.9640 c3        1 IZ4      0.123800
     23 N11        14.8040   19.1650   76.3580 n2        1 IZ4     -0.604900
     24 C25        14.9210   19.2630   77.6620 c2        1 IZ4      0.510200
     25 N13        16.1690   19.7940   78.1530 nh        1 IZ4     -0.801200
     26 C24        11.1460   22.9000   75.9150 ca        1 IZ4      0.102900
     27 C26        12.0270   23.9000   76.3720 ca        1 IZ4     -0.104000
     28 C7         10.9650   21.7240   76.6620 ca        1 IZ4     -0.052000
     29 C8         11.6590   21.5400   77.8590 ca        1 IZ4     -0.354500
     30 C9         12.5270   22.5420   78.3060 ca        1 IZ4     -0.028000
     31 C10        12.7080   23.7110   77.5700 ca        1 IZ4     -0.131000
     32 C18        16.7300   18.5650   74.8460 c3        1 IZ4     -0.064400
     33 C17        17.7010   17.8260   71.9120 ca        1 IZ4     -0.128000
     34 C19        16.6120   17.3770   72.6690 ca        1 IZ4     -0.081300
     35 C20        16.1870   16.0510   72.5360 ca        1 IZ4     -0.128000
     36 C28        16.8430   15.1860   71.6600 ca        1 IZ4     -0.128000
     37 C5         17.9270   15.6390   70.9100 ca        1 IZ4     -0.132000
     38 C6         18.3550   16.9610   71.0370 ca        1 IZ4     -0.128000
     39 H1         18.0260   17.6310   83.9550 h1        1 IZ4      0.128700
     40 H2C1       19.6430   18.1330   81.4500 hc        1 IZ4      0.101200
     41 H2C2       19.6640   18.9770   83.0520 hc        1 IZ4      0.101200
     42 H4         21.2960   15.3180   83.6900 hn        1 IZ4      0.360500
     43 H12        18.3900   16.1540   80.4500 ha        1 IZ4      0.144500
     44 H16        15.9720   18.3020   83.3340 ha        1 IZ4      0.144500
     45 H13        16.5520   16.3120   78.7960 ha        1 IZ4      0.148000
     46 H15        14.1270   18.4420   81.6810 ha        1 IZ4      0.148000
     47 H211       14.3100   16.8060   78.2610 hc        1 IZ4      0.072700
     48 H212       13.1760   17.0530   79.6500 hc        1 IZ4      0.072700
     49 H22        13.9550   19.5940   79.5770 h1        1 IZ4      0.096700
     50 H45        12.3160   18.5600   77.3500 hn        1 IZ4      0.462800
     51 H23        15.8610   20.5280   75.1490 h1        1 IZ4      0.078700
     52 H4C1       17.9250   19.3220   76.9820 h1        1 IZ4      0.056700
     53 H4C2       17.3210   21.0430   76.9080 h1        1 IZ4      0.056700
     54 H181       17.7430   18.9540   74.5550 hc        1 IZ4      0.047200
     55 H182       16.8860   17.6030   75.4000 hc        1 IZ4      0.047200
     56 HA         16.5760   19.2400   78.8790 hn        1 IZ4      0.397800
     57 H26        12.1620   24.8180   75.7800 ha        1 IZ4      0.153000
     58 H7         10.2560   20.9560   76.3050 ha        1 IZ4      0.169000
     59 H10        13.3940   24.4910   77.9370 ha        1 IZ4      0.147000
     60 H9         13.0620   22.4070   79.2630 ha        1 IZ4      0.158000
     61 H271       14.9110   17.8830   73.8840 hc        1 IZ4      0.057700
     62 H272       15.7170   19.2810   73.0700 hc        1 IZ4      0.057700
     63 H6         19.2090   17.3220   70.4440 ha        1 IZ4      0.130500
     64 H20        15.3300   15.6890   73.1240 ha        1 IZ4      0.130500
     65 H28        16.5010   14.1460   71.5610 ha        1 IZ4      0.130500
     66 H5         18.4430   14.9570   70.2180 ha        1 IZ4      0.131000
     67 C27        15.9100   18.3070   73.5970 c3        1 IZ4     -0.035100
     68 F1         10.4720   23.0740   74.7530 f         1 IZ4     -0.134900
     69 H17        18.0380   18.8690   72.0090 ha        1 IZ4      0.130500
@<TRIPOS>BOND
     1    1    2 1   
     2    1    5 1   
     3    1    9 1   
     4    1   39 1   
     5    2    3 1   
     6    2   40 1   
     7    2   41 1   
     8    3    4 1   
     9    3    8 2   
    10    4    5 1   
    11    4   42 1   
    12    5    6 2   
    13    5    7 2   
    14    9   10 ar  
    15    9   14 ar  
    16   10   11 ar  
    17   10   43 1   
    18   11   12 ar  
    19   11   45 1   
    20   12   13 ar  
    21   12   15 1   
    22   13   14 ar  
    23   13   46 1   
    24   14   44 1   
    25   15   16 1   
    26   15   47 1   
    27   15   48 1   
    28   16   17 1   
    29   16   24 1   
    30   16   49 1   
    31   17   18 1   
    32   17   50 1   
    33   18   19 2   
    34   18   20 2   
    35   18   29 1   
    36   21   22 1   
    37   21   23 1   
    38   21   32 1   
    39   21   51 1   
    40   22   25 1   
    41   22   52 1   
    42   22   53 1   
    43   23   24 2   
    44   24   25 1   
    45   25   56 1   
    46   26   27 ar  
    47   26   28 ar  
    48   26   68 1   
    49   27   31 ar  
    50   27   57 1   
    51   28   29 ar  
    52   28   58 1   
    53   29   30 ar  
    54   30   31 ar  
    55   30   60 1   
    56   31   59 1   
    57   32   54 1   
    58   32   55 1   
    59   32   67 1   
    60   33   34 ar  
    61   33   38 ar  
    62   33   69 1   
    63   34   35 ar  
    64   34   67 1   
    65   35   36 ar  
    66   35   64 1   
    67   36   37 ar  
    68   36   65 1   
    69   37   38 ar  
    70   37   66 1   
    71   38   63 1   
    72   61   67 1   
    73   62   67 1   
@<TRIPOS>SUBSTRUCTURE
     1 IZ4         1 TEMP              0 ****  ****    0 ROOT
