@<TRIPOS>MOLECULE
IZ4
   69    65     1     0     0
SMALL
bcc


@<TRIPOS>ATOM
      1 C1         -3.6390    2.6240    4.4420 c3        1 IZ4     -0.702000
      2 C2         -5.2240    2.1110    3.8390 c3        1 IZ4     -0.165000
      3 C3         -6.0210    3.1230    4.1770 c2        1 IZ4      0.307000
      4 N4         -5.1660    4.3840    4.1750 n         1 IZ4     -0.869000
      5 S5         -3.5620    3.9130    4.1680 s6        1 IZ4      2.780000
      6 O6         -2.7820    4.6270    5.1550 o         1 IZ4     -0.909000
      7 O7         -3.0000    4.1100    2.8750 o         1 IZ4     -0.909000
      8 O9         -7.2560    3.0690    4.3530 o         1 IZ4     -0.291000
      9 C11        -2.6310    1.9760    3.4920 c2        1 IZ4     -0.069000
     10 C12        -1.4780    1.3960    3.9900 c1        1 IZ4     -0.106000
     11 C13        -0.5370    0.8450    3.1120 c1        1 IZ4     -0.126000
     12 C14        -0.7630    0.8820    1.7460 c1        1 IZ4     -0.065000
     13 C15        -1.9250    1.4670    1.2480 c1        1 IZ4     -0.117000
     14 C16        -2.8540    2.0110    2.1160 c2        1 IZ4     -0.100000
     15 C21         0.2290    0.1300    0.7580 c3        1 IZ4     -0.128000
     16 C22         0.3930    0.9510   -0.5130 c3        1 IZ4      0.111000
     17 N45        -0.6450    0.5960   -1.4490 n3        1 IZ4     -0.890000
     18 S1         -1.5840    1.7820   -2.1320 s4        1 IZ4      2.083800
     19 O1         -2.1280    2.6400   -1.1420 o         1 IZ4     -0.548400
     20 O2         -0.7740    2.7170   -2.9040 o         1 IZ4     -0.548400
     21 C23         3.2490   -0.8620   -1.9090 c3        1 IZ4     -0.074000
     22 C4          4.0060    0.2690   -1.0080 c3        1 IZ4     -0.107000
     23 N11         1.9410   -0.4370   -1.8260 n2        1 IZ4     -0.198000
     24 C25         1.7530    0.6650   -1.1300 c2        1 IZ4     -0.005000
     25 N13         2.8900    1.2050   -0.5780 n3        1 IZ4     -0.295000
     26 F1         -5.3520   -1.6550   -3.0090 f         1 IZ4     -0.097000
     27 C24        -4.6640   -0.5830   -3.4530 c2        1 IZ4      0.068000
     28 C26        -4.9360   -0.0540   -4.7080 c2        1 IZ4     -0.100000
     29 C7         -3.6520   -0.0400   -2.6800 c1        1 IZ4     -0.059000
     30 C8         -2.9110    1.0330   -3.1640 c1        1 IZ4     -0.801000
     31 C9         -3.1890    1.5570   -4.4210 c1        1 IZ4     -0.027000
     32 C10        -4.1930    1.0180   -5.1860 c1        1 IZ4     -0.130000
     33 C27         4.7710   -2.8390   -2.1210 c3        1 IZ4     -0.124000
     34 C18         3.4790   -2.2760   -1.4490 c3        1 IZ4     -0.144000
     35 C17         5.3550   -5.2430   -1.3560 c1        1 IZ4     -0.128000
     36 C19         5.4770   -3.8460   -1.1440 c1        1 IZ4     -0.072000
     37 C20         6.2540   -3.3670   -0.0900 c1        1 IZ4     -0.127000
     38 C28         6.9110   -4.2650    0.7590 c1        1 IZ4     -0.128000
     39 C5          6.7880   -5.6530    0.5470 c1        1 IZ4     -0.128000
     40 C6          6.0070   -6.1340   -0.5140 c1        1 IZ4     -0.128000
     41 H1         -3.3630    2.3220    5.3080 h1        1 IZ4      0.165000
     42 H2C1       -5.3090    1.7950    2.9410 hc        1 IZ4      0.144500
     43 H2C2       -5.4850    1.2970    4.3440 hc        1 IZ4      0.144500
     44 H4         -5.4730    5.2400    4.2510 hn        1 IZ4      0.273000
     45 H12        -1.3190    1.3690    4.9750 ha        1 IZ4      0.135000
     46 H16        -3.7010    2.4390    1.7500 ha        1 IZ4      0.146000
     47 H13         0.2780    0.4370    3.4610 ha        1 IZ4      0.135000
     48 H15        -2.0810    1.4920    0.3020 ha        1 IZ4      0.141000
     49 H211       -0.1370   -0.7520    0.5310 hc        1 IZ4      0.117500
     50 H212        1.1030    0.0170    1.1950 hc        1 IZ4      0.117500
     51 H22         0.3240    1.9120   -0.2970 h1        1 IZ4      0.117000
     52 H45        -0.8430   -0.2940   -1.6020 hn        1 IZ4      0.251000
     53 H23         3.5790   -0.8910   -2.8410 h1        1 IZ4      0.103000
     54 H4C1        4.5930    0.7750   -1.6180 h1        1 IZ4      0.095000
     55 H4C2        4.3420   -0.1950   -0.1690 h1        1 IZ4      0.095000
     56 H181        3.5870   -2.2890   -0.4840 hc        1 IZ4      0.099000
     57 H182        2.6950   -2.8410   -1.7050 hc        1 IZ4      0.099000
     58 HA          2.9940    2.0920   -0.2680 hn        1 IZ4      0.223000
     59 H26        -5.6020   -0.4090   -5.2200 ha        1 IZ4      0.157000
     60 H7         -3.4750   -0.3920   -1.7920 ha        1 IZ4      0.174000
     61 H10        -4.3900    1.4000   -6.0940 ha        1 IZ4      0.150000
     62 H9         -2.6770    2.3040   -4.7580 ha        1 IZ4      0.157000
     63 H271        4.5390   -3.2890   -2.9270 hc        1 IZ4      0.086500
     64 H272        5.3810   -2.0990   -2.3220 hc        1 IZ4      0.086500
     65 H17         4.8270   -5.5690   -2.0750 ha        1 IZ4      0.130750
     66 H6          5.9170   -7.1320   -0.6660 ha        1 IZ4      0.130750
     67 H20         6.3410   -2.3760    0.0620 ha        1 IZ4      0.131000
     68 H28         7.4670   -3.9230    1.5110 ha        1 IZ4      0.130750
     69 H5          7.2460   -6.2790    1.1380 ha        1 IZ4      0.130750
@<TRIPOS>BOND
     1    1    2 1   
     2    1    5 1   
     3    1    9 1   
     4    1   41 1   
     5    2    3 1   
     6    2   42 1   
     7    2   43 1   
     8    3    4 1   
     9    3    8 1   
    10    4    5 1   
    11    4   44 1   
    12    5    6 1   
    13    5    7 1   
    14    9   10 1   
    15    9   14 1   
    16   10   45 1   
    17   11   12 1   
    18   11   47 1   
    19   12   15 1   
    20   13   14 1   
    21   13   48 1   
    22   14   46 1   
    23   15   16 1   
    24   15   49 1   
    25   15   50 1   
    26   16   17 1   
    27   16   24 1   
    28   16   51 1   
    29   17   18 1   
    30   17   52 1   
    31   18   19 1   
    32   18   20 1   
    33   21   22 1   
    34   21   23 1   
    35   21   34 1   
    36   21   53 1   
    37   22   25 1   
    38   22   54 1   
    39   22   55 1   
    40   23   24 1   
    41   24   25 1   
    42   25   58 1   
    43   26   27 1   
    44   27   28 1   
    45   27   29 1   
    46   28   32 1   
    47   28   59 1   
    48   29   60 1   
    49   30   31 1   
    50   31   62 1   
    51   32   61 1   
    52   33   34 1   
    53   33   36 1   
    54   33   63 1   
    55   33   64 1   
    56   34   56 1   
    57   34   57 1   
    58   35   40 1   
    59   35   65 1   
    60   36   37 1   
    61   37   67 1   
    62   38   39 1   
    63   38   68 1   
    64   39   69 1   
    65   40   66 1   
@<TRIPOS>SUBSTRUCTURE
     1 IZ4         1 TEMP              0 ****  ****    0 ROOT
