@<TRIPOS>MOLECULE
IZ4
   70    68     1     0     0
SMALL
bcc


@<TRIPOS>ATOM
      1 C1          0.7020   -1.0910   -0.8140 c3        1 IZ4     -0.699000
      2 C2          0.7500   -1.6310   -2.2390 c3        1 IZ4     -0.177000
      3 C3          1.9180   -0.9750   -2.9590 c2        1 IZ4      0.329000
      4 N4          2.4910    0.0360   -2.1890 n         1 IZ4     -0.854000
      5 S5          1.7670    0.3290   -0.7350 s6        1 IZ4      2.781000
      6 O6          1.0580    1.5290   -0.7800 o         1 IZ4     -0.900000
      7 O7          2.6640    0.1520    0.3180 o         1 IZ4     -0.900000
      8 O9          2.3020   -1.2800   -4.0960 o         1 IZ4     -0.348000
      9 C11        -0.6900   -0.8570   -0.3570 ca        1 IZ4     -0.073000
     10 C12        -1.2060   -1.5930    0.7180 ca        1 IZ4     -0.106500
     11 C13        -2.5180   -1.3970    1.1410 ca        1 IZ4     -0.144500
     12 C14        -3.3400   -0.4620    0.5000 ca        1 IZ4     -0.048000
     13 C15        -2.8240    0.2710   -0.5750 ca        1 IZ4     -0.144500
     14 C16        -1.5120    0.0770   -0.9990 ca        1 IZ4     -0.106500
     15 C21        -4.7240   -0.2380    0.9750 c3        1 IZ4     -0.187000
     16 C22        -4.4990    0.0220   -5.8790 c1        1 IZ4     -0.238000
     17 N45        -5.4790    0.1240   -6.8270 n3        1 IZ4     -0.286000
     18 S1         -5.4210   -1.5680   -8.4450 s4        1 IZ4      2.071800
     19 O1         -6.4640   -2.2080   -7.8560 o         1 IZ4     -0.421900
     20 O2         -5.5890   -0.6810   -9.4590 o         1 IZ4     -0.421900
     21 C23         1.8780   -2.4110   -6.8980 c2        1 IZ4     -0.032000
     22 C4         -1.3610   -0.0830   -4.3280 c1        1 IZ4     -0.125000
     23 N11         0.8710   -1.6320   -6.7530 n2        1 IZ4     -0.320000
     24 C25        -3.6560   -0.0220   -5.0240 c1        1 IZ4     -0.014000
     25 N13        -2.6460   -0.1420   -4.1100 n3        1 IZ4     -0.074000
     26 C24        -1.8680   -2.2380   -9.7640 c2        1 IZ4      0.200000
     27 C26        -0.7700   -1.2090   -9.7110 c3        1 IZ4     -0.067000
     28 C7         -2.9600   -2.1690   -9.0120 c1        1 IZ4      0.013000
     29 C8         -3.9890   -2.1720   -8.1990 c2        1 IZ4     -0.964000
     30 C9         -0.8310    0.2710   -7.6730 c1        1 IZ4      0.272000
     31 C10        -1.1440   -0.0240   -8.9190 c2        1 IZ4     -0.528000
     32 C18         2.0700   -3.2910   -8.0980 c3        1 IZ4     -0.149000
     33 C17         2.3980   -6.6500   -8.9690 c2        1 IZ4     -0.064000
     34 C19         3.0040   -5.4470   -8.9080 c2        1 IZ4     -0.095000
     35 C20         3.9150   -4.9210   -9.9140 c2        1 IZ4     -0.137000
     36 C28         3.7550   -5.0310  -11.2340 c2        1 IZ4     -0.209000
     37 C5          1.7760   -8.6210  -10.3370 c1        1 IZ4      0.219000
     38 C6          2.5650   -7.6120  -10.0310 c2        1 IZ4     -0.462000
     39 H1          1.1610   -1.8700   -0.1350 h1        1 IZ4      0.168000
     40 H2C1        0.8790   -2.7410   -2.2570 hc        1 IZ4      0.148000
     41 H2C2       -0.1890   -1.3710   -2.8060 hc        1 IZ4      0.148000
     42 H4          3.2760    0.5150   -2.5620 hn        1 IZ4      0.273000
     43 H12        -0.5730   -2.3290    1.2380 ha        1 IZ4      0.148000
     44 H16        -1.1050    0.6840   -1.8260 ha        1 IZ4      0.148000
     45 H13        -2.9100   -1.9760    1.9920 ha        1 IZ4      0.136500
     46 H15        -3.4500    1.0320   -1.0650 ha        1 IZ4      0.136500
     47 H211       -4.7130    0.4520    1.8580 hc        1 IZ4      0.091000
     48 H212       -5.3560    0.2260    0.1790 hc        1 IZ4      0.091000
     49 H22        -5.1980   -1.2000    1.2910 hc        1 IZ4      0.091000
     50 H45        -5.4240    1.0280   -7.2870 hn        1 IZ4      0.225500
     51 H23         0.8800   -1.0870   -5.9120 hn        1 IZ4      0.167000
     52 H4C1       -0.9670    0.0920   -5.3490 ha        1 IZ4      0.116000
     53 H4C2        2.7030   -2.4910   -6.1510 h4        1 IZ4      0.129000
     54 H181        1.0920   -3.5550   -8.5800 hc        1 IZ4      0.096000
     55 H182        2.6780   -2.7250   -8.8560 hc        1 IZ4      0.096000
     56 HA         -2.9680   -0.2630   -3.1570 hn        1 IZ4      0.288000
     57 H26         0.1430   -1.7190   -9.2820 hc        1 IZ4      0.158500
     58 H7         -3.8250   -2.7180   -7.2300 h4        1 IZ4      0.241000
     59 H10        -0.5190   -0.9110  -10.7680 hc        1 IZ4      0.158500
     60 H9         -1.6940    0.7660   -9.4800 ha        1 IZ4      0.200000
     61 H6          1.7340   -6.9690   -8.1460 ha        1 IZ4      0.126000
     62 H20         4.7900   -4.3860   -9.5000 ha        1 IZ4      0.130000
     63 H28         2.8930   -5.5320  -11.6940 ha        1 IZ4      0.119500
     64 H5          4.4830   -4.6130  -11.9430 ha        1 IZ4      0.119500
     65 C27         2.8000   -4.5670   -7.7170 c3        1 IZ4     -0.121000
     66 H17         3.4820   -7.4870  -10.6570 ha        1 IZ4      0.207000
     67 H452       -6.3880    0.0420   -6.3790 hn        1 IZ4      0.225500
     68 F1         -1.6910   -3.2410  -10.6480 f         1 IZ4     -0.041000
     69 H271        3.8020   -4.3110   -7.2760 hc        1 IZ4      0.096000
     70 H272        2.2170   -5.1060   -6.9240 hc        1 IZ4      0.096000
@<TRIPOS>BOND
     1    1    2 1   
     2    1    5 1   
     3    1    9 1   
     4    1   39 1   
     5    2    3 1   
     6    2   40 1   
     7    2   41 1   
     8    3    4 1   
     9    3    8 1   
    10    4    5 1   
    11    4   42 1   
    12    5    6 1   
    13    5    7 1   
    14    9   10 1   
    15    9   14 1   
    16   10   11 1   
    17   10   43 1   
    18   11   12 1   
    19   11   45 1   
    20   12   13 1   
    21   12   15 1   
    22   13   14 1   
    23   13   46 1   
    24   14   44 1   
    25   15   47 1   
    26   15   48 1   
    27   15   49 1   
    28   16   17 1   
    29   16   24 1   
    30   17   50 1   
    31   17   67 1   
    32   18   19 1   
    33   18   20 1   
    34   18   29 1   
    35   21   23 1   
    36   21   32 1   
    37   21   53 1   
    38   22   25 1   
    39   22   52 1   
    40   23   51 1   
    41   24   25 1   
    42   25   56 1   
    43   26   27 1   
    44   26   28 1   
    45   26   68 1   
    46   27   31 1   
    47   27   57 1   
    48   27   59 1   
    49   28   29 1   
    50   29   58 1   
    51   30   31 1   
    52   31   60 1   
    53   32   54 1   
    54   32   55 1   
    55   32   65 1   
    56   33   34 1   
    57   33   38 1   
    58   33   61 1   
    59   34   35 1   
    60   34   65 1   
    61   35   36 1   
    62   35   62 1   
    63   36   63 1   
    64   36   64 1   
    65   37   38 1   
    66   38   66 1   
    67   65   69 1   
    68   65   70 1   
@<TRIPOS>SUBSTRUCTURE
     1 IZ4         1 TEMP              0 ****  ****    0 ROOT
