@<TRIPOS>MOLECULE
IZ5
   71    71     1     0     0
SMALL
bcc


@<TRIPOS>ATOM
      1 C1         -1.5440    0.8860   -0.5170 c2        1 IZ5     -0.878000
      2 C2         -1.0050    1.0850    0.8670 c3        1 IZ5     -0.132000
      3 C3         -0.8230   -0.2940    1.4880 c2        1 IZ5      0.312000
      4 N4         -1.2150   -1.2960    0.5870 n         1 IZ5     -0.868000
      5 S5         -1.7340   -0.7520   -0.8740 s6        1 IZ5      2.868000
      6 O6         -3.0600   -1.1230   -1.1150 o         1 IZ5     -0.952500
      7 O7         -0.8560   -1.1830   -1.8950 o         1 IZ5     -0.952500
      8 O9         -0.3910   -0.5230    2.6190 o         1 IZ5     -0.278000
      9 C11        -1.8200    1.9580   -1.2840 c2        1 IZ5      0.203000
     10 C12         0.3350   -5.2550   -3.3510 c2        1 IZ5     -0.218000
     11 C13        -0.0970   -4.0890   -3.8560 c1        1 IZ5      0.071000
     12 C14        -0.5210   -2.9520   -4.3060 c2        1 IZ5     -0.052000
     13 C15        -2.7420    1.9120   -3.7130 c1        1 IZ5     -0.037000
     14 C16        -2.3160    1.9050   -2.5900 c1        1 IZ5     -0.275000
     15 C21        -1.3830   -2.7760   -5.5040 c3        1 IZ5     -0.118000
     16 C22        -0.9350   -1.5600   -6.3450 c3        1 IZ5      0.131000
     17 N45        -1.8710   -1.2640   -7.3930 n3        1 IZ5     -0.890000
     18 S1         -2.2980    0.2760   -7.7800 s6        1 IZ5      2.970000
     19 O1         -2.7140    0.9450   -6.6140 o         1 IZ5     -0.961500
     20 O2         -1.1900    0.8720   -8.4170 o         1 IZ5     -0.961500
     21 C23         2.5620   -2.4420   -7.0890 c2        1 IZ5     -0.139000
     22 C4          2.3730   -1.3680   -7.9900 c2        1 IZ5     -0.127000
     23 N11         1.3710   -2.6840   -6.4020 n2        1 IZ5     -0.194000
     24 C25         0.4780   -1.7660   -6.8600 c2        1 IZ5     -0.105000
     25 N13         1.0600   -0.9500   -7.8410 na        1 IZ5     -0.165000
     26 C24        -5.4990   -0.1690  -10.4820 c3        1 IZ5     -0.231000
     27 C26        -5.4890    2.2790  -12.6230 c1        1 IZ5      0.017000
     28 C7         -4.4200   -0.0610   -9.5670 c1        1 IZ5      0.232000
     29 C8         -3.4990    0.0430   -8.7910 c1        1 IZ5     -1.008000
     30 C9         -6.0180    3.4800  -13.1950 c2        1 IZ5     -0.212000
     31 C10        -4.9170    2.9220  -13.7760 c2        1 IZ5      0.010000
     32 C17         1.4790   -5.9210   -3.8100 c2        1 IZ5      0.272000
     33 C18         1.8830   -7.1530   -3.1650 c2        1 IZ5     -0.273000
     34 C19         1.9440   -8.3640   -3.7470 c2        1 IZ5     -0.043000
     35 C20         3.7510   -7.3940   -4.8350 c1        1 IZ5      0.163000
     36 C27         3.4870   -6.1760   -5.2940 c2        1 IZ5     -0.399000
     37 C6          2.2880   -5.3830   -4.9200 c3        1 IZ5     -0.138000
     38 F1         -4.0310    3.0050  -14.7290 f         1 IZ5     -0.007000
     39 C30         3.8240   -4.6100   -7.2660 c3        1 IZ5     -0.158000
     40 C29         4.4580   -5.5290   -6.2370 c3        1 IZ5     -0.091000
     41 H1         -1.6500    2.9820   -0.8850 ha        1 IZ5      0.156000
     42 H2C1       -1.7100    1.6790    1.5060 hc        1 IZ5      0.145000
     43 H2C2       -0.0170    1.6150    0.8560 hc        1 IZ5      0.145000
     44 H4         -1.1830   -2.2360    0.8980 hn        1 IZ5      0.270000
     45 H12        -0.2570   -5.7330   -2.5430 ha        1 IZ5      0.184000
     46 H16         0.5240   -0.0070   -3.8790 ha        1 IZ5      0.003000
     47 H13         0.8310   -0.1150   -3.2840 ha        1 IZ5      0.003000
     48 H15        -0.2390   -2.0110   -3.7520 ha        1 IZ5      0.268000
     49 H211       -3.1050    1.8970   -4.7210 ha        1 IZ5      0.275000
     50 H212       -1.3810   -3.6990   -6.1420 hc        1 IZ5      0.125000
     51 H22        -2.4360   -2.6030   -5.1400 hc        1 IZ5      0.125000
     52 H45        -0.8950   -0.6580   -5.6490 h1        1 IZ5      0.131000
     53 HA          0.6250   -0.1900   -8.3160 hn        1 IZ5      0.298000
     54 H5C1        4.0780   -3.0700   -5.7380 hc        1 IZ5      0.095000
     55 H5C2        4.6540   -2.6120   -7.3850 hc        1 IZ5      0.095000
     56 HB          3.0620   -0.8990   -8.6930 h4        1 IZ5      0.193000
     57 H24        -6.4810   -0.1520   -9.9400 hc        1 IZ5      0.157333
     58 H26        -5.4270   -1.1210  -11.0710 hc        1 IZ5      0.157333
     59 H7         -5.4840    0.7030  -11.2150 hc        1 IZ5      0.157333
     60 H9         -6.7440    4.2720  -13.2000 ha        1 IZ5      0.208000
     61 H301        2.7820   -4.9470   -7.5030 hc        1 IZ5      0.096000
     62 H302        4.4070   -4.7020   -8.2220 hc        1 IZ5      0.096000
     63 H6          1.6190   -5.2580   -5.8270 hc        1 IZ5      0.180500
     64 H19         1.6100   -8.5680   -4.7770 ha        1 IZ5      0.156500
     65 H20         2.2900   -9.2460   -3.1840 ha        1 IZ5      0.156500
     66 H291        5.0240   -6.3370   -6.7790 hc        1 IZ5      0.104000
     67 H292        5.2090   -4.9590   -5.6240 hc        1 IZ5      0.104000
     68 H17         2.6150   -4.3300   -4.6520 hc        1 IZ5      0.180500
     69 H452       -2.1650   -2.0550   -7.9100 hn        1 IZ5      0.243000
     70 C5          3.8350   -3.1510   -6.8340 c3        1 IZ5     -0.084000
     71 H18         2.1310   -7.0320   -2.0900 ha        1 IZ5      0.190000
@<TRIPOS>BOND
     1    1    2 1   
     2    1    5 1   
     3    1    9 1   
     4    2    3 1   
     5    2   42 1   
     6    2   43 1   
     7    3    4 1   
     8    3    8 1   
     9    4    5 1   
    10    4   44 1   
    11    5    6 1   
    12    5    7 1   
    13    9   14 1   
    14    9   41 1   
    15   10   11 1   
    16   10   32 1   
    17   10   45 1   
    18   11   12 1   
    19   12   15 1   
    20   12   48 1   
    21   13   14 1   
    22   13   49 1   
    23   15   16 1   
    24   15   50 1   
    25   15   51 1   
    26   16   17 1   
    27   16   24 1   
    28   16   52 1   
    29   17   18 1   
    30   17   69 1   
    31   18   19 1   
    32   18   20 1   
    33   18   29 1   
    34   21   22 1   
    35   21   23 1   
    36   21   70 1   
    37   22   25 1   
    38   22   56 1   
    39   23   24 1   
    40   24   25 1   
    41   25   53 1   
    42   26   28 1   
    43   26   57 1   
    44   26   58 1   
    45   26   59 1   
    46   27   30 1   
    47   27   31 1   
    48   28   29 1   
    49   30   31 1   
    50   30   60 1   
    51   31   38 1   
    52   32   33 1   
    53   32   37 1   
    54   33   34 1   
    55   33   71 1   
    56   34   64 1   
    57   34   65 1   
    58   35   36 1   
    59   36   37 1   
    60   36   40 1   
    61   37   63 1   
    62   37   68 1   
    63   39   40 1   
    64   39   61 1   
    65   39   62 1   
    66   39   70 1   
    67   40   66 1   
    68   40   67 1   
    69   46   47 1   
    70   54   70 1   
    71   55   70 1   
@<TRIPOS>SUBSTRUCTURE
     1 IZ5         1 TEMP              0 ****  ****    0 ROOT
