@<TRIPOS>MOLECULE
IZ5
   70    62     1     0     0
SMALL
bcc


@<TRIPOS>ATOM
      1 C1         -5.1940    1.6980    4.1860 c3        1 IZ5     -0.702000
      2 C2         -6.5690    0.8770    3.4750 c3        1 IZ5     -0.165000
      3 C3         -7.5780    1.7010    3.6840 c2        1 IZ5      0.307000
      4 N4         -7.0060    3.0900    3.7040 n         1 IZ5     -0.869000
      5 S5         -5.3440    2.9530    3.8660 s6        1 IZ5      2.780000
      6 O6         -4.8310    3.8290    4.8830 o         1 IZ5     -0.909000
      7 O7         -4.6990    3.2280    2.6160 o         1 IZ5     -0.909000
      8 O9         -8.7550    1.4150    3.6270 o         1 IZ5     -0.291000
      9 C11        -3.9860    1.2270    3.3460 c2        1 IZ5     -0.068000
     10 C12        -2.8920    0.6470    3.9710 c1        1 IZ5     -0.105000
     11 C13        -1.8280    0.1780    3.2130 c1        1 IZ5     -0.125000
     12 C14        -1.8580    0.2880    1.8310 c1        1 IZ5     -0.065000
     13 C15        -2.9530    0.8680    1.2060 c1        1 IZ5     -0.120000
     14 C16        -4.0180    1.3370    1.9640 c2        1 IZ5     -0.100000
     15 C21        -0.7640   -0.3580    0.9960 c3        1 IZ5     -0.125000
     16 C22        -0.5830    0.4180   -0.2830 c3        1 IZ5      0.135000
     17 N45        -1.1390   -0.3170   -1.3670 n3        1 IZ5     -0.893000
     18 S1         -2.7020   -0.0630   -1.8160 s4        1 IZ5      2.083800
     19 O1         -3.5460    0.1390   -0.6740 o         1 IZ5     -0.551400
     20 O2         -2.8510    1.1930   -2.4990 o         1 IZ5     -0.551400
     21 C23         2.9680    0.3150   -1.1340 c1        1 IZ5     -0.142500
     22 C4          2.8280    1.6280   -0.7720 c1        1 IZ5     -0.142500
     23 N11         1.7800   -0.2830   -0.9850 n2        1 IZ5     -0.155500
     24 C25         0.8980    0.6440   -0.5330 c2        1 IZ5     -0.108000
     25 N13         1.5570    1.8230   -0.4050 n2        1 IZ5     -0.155500
     26 C24        -4.3580   -2.2050   -4.8110 c1        1 IZ5     -0.112500
     27 C26        -4.3500   -3.4950   -4.3030 c1        1 IZ5     -0.100000
     28 C7         -3.8240   -1.1640   -4.0670 c1        1 IZ5     -0.112500
     29 C8         -3.2820   -1.4130   -2.8160 c1        1 IZ5     -0.802000
     30 C9         -3.2740   -2.7030   -2.3090 c1        1 IZ5     -0.058000
     31 C10        -3.8080   -3.7440   -3.0520 c1        1 IZ5      0.068000
     32 C5          4.2230   -0.3260   -1.7000 c2        1 IZ5     -0.079000
     33 C17         9.9210   -0.3270   -0.2790 c1        1 IZ5     -0.112500
     34 C18         9.8180   -1.6270    0.1890 c1        1 IZ5     -0.112500
     35 C19         8.6680   -2.3610   -0.0510 c1        1 IZ5     -0.112500
     36 C20         7.6200   -1.7950   -0.7600 c1        1 IZ5     -0.127000
     37 C27         7.7230   -0.4930   -1.2290 c1        1 IZ5     -0.069000
     38 C6          8.8730    0.2400   -0.9890 c1        1 IZ5     -0.112500
     39 F1         -3.9420   -4.9860   -2.5680 f         1 IZ5     -0.097000
     40 C30         5.4380    0.4570   -1.2470 c3        1 IZ5     -0.152000
     41 C29         6.6280    0.0830   -2.1050 c3        1 IZ5     -0.124000
     42 H1         -4.9400    1.4760    5.1030 h1        1 IZ5      0.165000
     43 H2C1       -6.4490    0.6640    2.5270 hc        1 IZ5      0.145500
     44 H2C2       -6.7150   -0.0090    3.8640 hc        1 IZ5      0.145500
     45 H4         -7.4700    3.8630    3.5770 hn        1 IZ5      0.272000
     46 H12        -2.8700    0.5700    4.9440 ha        1 IZ5      0.135000
     47 H16        -4.7900    1.7460    1.5230 ha        1 IZ5      0.146000
     48 H13        -1.0570   -0.2300    3.6540 ha        1 IZ5      0.135000
     49 H15        -2.9750    0.9450    0.2390 ha        1 IZ5      0.139000
     50 H211        0.0740   -0.3560    1.4990 hc        1 IZ5      0.119500
     51 H212       -1.0160   -1.2790    0.7850 hc        1 IZ5      0.119500
     52 H22        -1.0360    1.2820   -0.2080 h1        1 IZ5      0.107000
     53 H45        -0.6310   -0.9250   -1.8140 hn        1 IZ5      0.250000
     54 HA          3.5340    2.3040   -0.7800 DU        1 IZ5      0.232000
     55 H5C1        4.2910   -1.2470   -1.3800 ha        1 IZ5      0.087000
     56 H5C2        4.1790   -0.3220   -2.6770 ha        1 IZ5      0.087000
     57 HB          1.1960    2.6100   -0.1180 DU        1 IZ5      0.232000
     58 H24        -4.7400   -2.0300   -5.6930 ha        1 IZ5      0.136833
     59 H26        -4.7250   -4.2280   -4.8270 ha        1 IZ5      0.157000
     60 H7         -3.8300   -0.2570   -4.4250 ha        1 IZ5      0.136833
     61 H9         -2.8920   -2.8790   -1.4280 ha        1 IZ5      0.177000
     62 H301        5.2610    1.4150   -1.3350 hc        1 IZ5      0.093500
     63 H302        5.6320    0.2450   -0.3120 hc        1 IZ5      0.093500
     64 H17        10.7300    0.1890   -0.1110 ha        1 IZ5      0.136833
     65 H18        10.5550   -2.0260    0.6880 ha        1 IZ5      0.136833
     66 H6          8.9460    1.1540   -1.3180 ha        1 IZ5      0.136833
     67 H19         8.5950   -3.2770    0.2790 ha        1 IZ5      0.136833
     68 H20         6.8110   -2.3110   -0.9280 ha        1 IZ5      0.133000
     69 H291        6.9630    0.8800   -2.5640 hc        1 IZ5      0.085000
     70 H292        6.3560   -0.5830   -2.7670 hc        1 IZ5      0.085000
@<TRIPOS>BOND
     1    1    2 1   
     2    1    5 1   
     3    1    9 1   
     4    1   42 1   
     5    2    3 1   
     6    2   43 1   
     7    2   44 1   
     8    3    4 1   
     9    3    8 1   
    10    4    5 1   
    11    4   45 1   
    12    5    6 1   
    13    5    7 1   
    14    9   10 1   
    15    9   14 1   
    16   10   46 1   
    17   11   12 1   
    18   11   48 1   
    19   12   15 1   
    20   13   14 1   
    21   13   49 1   
    22   14   47 1   
    23   15   16 1   
    24   15   50 1   
    25   15   51 1   
    26   16   17 1   
    27   16   24 1   
    28   16   52 1   
    29   17   18 1   
    30   17   53 1   
    31   18   19 1   
    32   18   20 1   
    33   21   22 1   
    34   21   23 1   
    35   22   25 1   
    36   23   24 1   
    37   24   25 1   
    38   26   28 1   
    39   26   58 1   
    40   27   31 1   
    41   27   59 1   
    42   28   60 1   
    43   29   30 1   
    44   30   61 1   
    45   31   39 1   
    46   32   40 1   
    47   32   55 1   
    48   32   56 1   
    49   33   38 1   
    50   33   64 1   
    51   34   35 1   
    52   34   65 1   
    53   35   67 1   
    54   36   37 1   
    55   36   68 1   
    56   37   41 1   
    57   38   66 1   
    58   40   41 1   
    59   40   62 1   
    60   40   63 1   
    61   41   69 1   
    62   41   70 1   
@<TRIPOS>SUBSTRUCTURE
     1 IZ5         1 TEMP              0 ****  ****    0 ROOT
