@<TRIPOS>MOLECULE
IZ5
   71    71     1     0     0
SMALL
bcc


@<TRIPOS>ATOM
      1 C1         -0.3190    2.4260   -0.2030 c2        1 IZ5     -0.893000
      2 C2          0.4270    2.6570    1.0790 c3        1 IZ5     -0.133000
      3 C3         -0.3150    1.9050    2.1770 c2        1 IZ5      0.311000
      4 N4         -1.4420    1.2490    1.6430 ns        1 IZ5     -0.872000
      5 S5         -1.6500    1.4370    0.0400 s6        1 IZ5      2.878000
      6 O6         -2.8840    2.0220   -0.2880 o         1 IZ5     -0.982500
      7 O7         -1.5540    0.1910   -0.6460 o         1 IZ5     -0.982500
      8 O9          0.0010    1.8580    3.3640 o         1 IZ5     -0.255000
      9 C11         0.1200    3.0120   -1.3350 c2        1 IZ5      0.224000
     10 C12        -3.8740   -0.2840   -2.3170 c2        1 IZ5     -0.189000
     11 C13        -2.9420   -1.1540   -2.2720 c1        1 IZ5      0.268000
     12 C14        -1.9370   -2.1430   -2.2200 c3        1 IZ5     -0.171000
     13 C15        -0.9310    2.8170   -3.7030 c1        1 IZ5     -0.024000
     14 C16        -0.4710    2.8840   -2.5950 c1        1 IZ5     -0.285000
     15 C21        -1.4260   -2.6350   -3.5670 c3        1 IZ5     -0.167000
     16 C22        -0.8500   -1.4980   -4.4480 c3        1 IZ5      0.126000
     17 N45        -1.5230   -1.3510   -5.7080 n7        1 IZ5     -0.885000
     18 S1         -2.7000   -0.2390   -5.9180 s6        1 IZ5      2.984000
     19 O1         -3.6860   -0.4780   -4.9190 o         1 IZ5     -0.991500
     20 O2         -2.1690    1.0600   -5.8080 o         1 IZ5     -0.991500
     21 C23         2.4540   -2.6340   -5.4780 c2        1 IZ5     -0.024000
     22 C4          2.8490   -1.7200   -4.2880 c3        1 IZ5     -0.167000
     23 N11         1.1460   -2.6290   -5.6340 n2        1 IZ5     -0.166000
     24 C25         0.6440   -1.7420   -4.5940 c2        1 IZ5     -0.050000
     25 N13         1.5640   -1.2070   -3.8070 n2        1 IZ5     -0.161000
     26 C24        -4.1770   -0.9990   -9.7810 c3        1 IZ5     -0.243000
     27 C26        -2.7890   -3.3670  -11.4110 c1        1 IZ5     -0.010000
     28 C7         -3.6660   -0.7620   -8.4800 c1        1 IZ5      0.255000
     29 C8         -3.2290   -0.5610   -7.3700 c1        1 IZ5     -1.026000
     30 C9         -2.8350   -4.6280  -12.0800 c2        1 IZ5     -0.195000
     31 C10        -1.8410   -3.7560  -12.4180 c2        1 IZ5      0.030000
     32 C17         0.1240   -5.7590  -10.4890 c1        1 IZ5     -0.030000
     33 C18         0.6700   -6.9810  -10.9480 c2        1 IZ5     -0.230000
     34 C19         1.9140   -7.1480  -11.4500 c2        1 IZ5     -0.142000
     35 C20         2.5390   -6.8110   -9.2930 c1        1 IZ5      0.138000
     36 C27         1.8900   -5.7980   -8.7280 c2        1 IZ5     -0.442000
     37 C6          0.6770   -5.1340   -9.3060 c3        1 IZ5     -0.137000
     38 F1         -0.7970   -3.5300  -13.1650 f         1 IZ5     -0.009000
     39 C30         3.0520   -3.9280   -7.5680 c3        1 IZ5     -0.154000
     40 C29         2.3460   -5.2610   -7.4100 c3        1 IZ5     -0.078000
     41 H1          1.0260    3.6560   -1.3050 ha        1 IZ5      0.162000
     42 H2C1        0.4660    3.7460    1.3470 hc        1 IZ5      0.150000
     43 H2C2        1.4800    2.2760    1.0210 hc        1 IZ5      0.150000
     44 H4         -2.0260    0.7500    2.2710 hn        1 IZ5      0.282000
     45 H12        -4.7470   -0.3900   -3.0170 ha        1 IZ5      0.291000
     46 H16        -1.0740   -1.6480   -1.6390 hc        1 IZ5      0.201500
     47 H13        -3.8860    0.6800   -1.7490 ha        1 IZ5      0.291000
     48 H15        -2.2700   -3.0280   -1.6010 hc        1 IZ5      0.201500
     49 H211       -1.3490    2.7290   -4.6880 ha        1 IZ5      0.279000
     50 H212       -2.2580   -3.1680   -4.0980 hc        1 IZ5      0.124000
     51 H22        -0.6290   -3.3990   -3.3610 hc        1 IZ5      0.124000
     52 H45        -0.9790   -0.5160   -3.8870 h1        1 IZ5      0.115000
     53 HA          3.5020   -0.8720   -4.6220 h1        1 IZ5      0.156000
     54 H5C1        3.8980   -4.1760   -5.5830 hc        1 IZ5      0.115000
     55 H5C2        4.3420   -2.6290   -6.4190 hc        1 IZ5      0.115000
     56 HB          3.3700   -2.2960   -3.4810 h1        1 IZ5      0.156000
     57 H24        -4.0450   -0.0900  -10.4280 hc        1 IZ5      0.163000
     58 H26        -5.2690   -1.2540   -9.7360 hc        1 IZ5      0.163000
     59 H7         -3.6280   -1.8690  -10.2770 hc        1 IZ5      0.163000
     60 H9         -3.2840   -5.5920  -12.2330 ha        1 IZ5      0.205000
     61 H301        2.3810   -3.2000   -8.0960 hc        1 IZ5      0.096000
     62 H302        3.9590   -4.0710   -8.2150 hc        1 IZ5      0.096000
     63 H6          0.8990   -4.0520   -9.5450 hc        1 IZ5      0.146500
     64 H19         2.6030   -6.3130  -11.6490 ha        1 IZ5      0.138500
     65 H20         2.2580   -8.1270  -11.8120 ha        1 IZ5      0.138500
     66 H291        3.0420   -5.9930   -6.9180 hc        1 IZ5      0.091000
     67 H292        1.4540   -5.1470   -6.7390 hc        1 IZ5      0.091000
     68 H17        -0.1460   -5.1180   -8.5280 hc        1 IZ5      0.146500
     69 H452       -1.2290   -1.9820   -6.4140 hn        1 IZ5      0.264000
     70 C5          3.4980   -3.3530   -6.2400 c3        1 IZ5     -0.119000
     71 H18        -0.0360   -7.8350  -10.9040 ha        1 IZ5      0.177000
@<TRIPOS>BOND
     1    1    2 1   
     2    1    5 1   
     3    1    9 1   
     4    2    3 1   
     5    2   42 1   
     6    2   43 1   
     7    3    4 1   
     8    3    8 1   
     9    4    5 1   
    10    4   44 1   
    11    5    6 1   
    12    5    7 1   
    13    9   14 1   
    14    9   41 1   
    15   10   11 1   
    16   10   45 1   
    17   10   47 1   
    18   11   12 1   
    19   12   15 1   
    20   12   46 1   
    21   12   48 1   
    22   13   14 1   
    23   13   49 1   
    24   15   16 1   
    25   15   50 1   
    26   15   51 1   
    27   16   17 1   
    28   16   24 1   
    29   16   52 1   
    30   17   18 1   
    31   17   69 1   
    32   18   19 1   
    33   18   20 1   
    34   18   29 1   
    35   21   22 1   
    36   21   23 1   
    37   21   70 1   
    38   22   25 1   
    39   22   53 1   
    40   22   56 1   
    41   23   24 1   
    42   24   25 1   
    43   26   28 1   
    44   26   57 1   
    45   26   58 1   
    46   26   59 1   
    47   27   30 1   
    48   27   31 1   
    49   28   29 1   
    50   30   31 1   
    51   30   60 1   
    52   31   38 1   
    53   32   33 1   
    54   32   37 1   
    55   33   34 1   
    56   33   71 1   
    57   34   64 1   
    58   34   65 1   
    59   35   36 1   
    60   36   37 1   
    61   36   40 1   
    62   37   63 1   
    63   37   68 1   
    64   39   40 1   
    65   39   61 1   
    66   39   62 1   
    67   39   70 1   
    68   40   66 1   
    69   40   67 1   
    70   54   70 1   
    71   55   70 1   
@<TRIPOS>SUBSTRUCTURE
     1 IZ5         1 TEMP              0 ****  ****    0 ROOT
