@<TRIPOS>MOLECULE
IZ5
   70    74     1     0     0
SMALL
bcc


@<TRIPOS>ATOM
      1 C1         18.4620   15.5770   80.7140 c3        1 IZ5     -0.193600
      2 C2         19.6910   16.4780   80.6350 c3        1 IZ5     -0.137400
      3 C3         20.9130   15.5890   80.4560 c         1 IZ5      0.700500
      4 N4         20.5400   14.2690   80.1720 n         1 IZ5     -0.689300
      5 S5         18.9260   13.9820   80.0920 s6        1 IZ5      1.430600
      6 O6         18.5350   13.0110   81.0190 o         1 IZ5     -0.632800
      7 O7         18.5310   13.7740   78.7670 o         1 IZ5     -0.632800
      8 O9         22.0850   15.9640   80.5430 o         1 IZ5     -0.565500
      9 C11        17.2730   16.2150   80.0940 ca        1 IZ5     -0.074300
     10 C12        17.1380   16.3170   78.7050 ca        1 IZ5     -0.117000
     11 C13        16.0240   16.9420   78.1480 ca        1 IZ5     -0.117500
     12 C14        15.0380   17.4970   78.9700 ca        1 IZ5     -0.074300
     13 C15        15.1730   17.3970   80.3600 ca        1 IZ5     -0.117500
     14 C16        16.2780   16.7590   80.9170 ca        1 IZ5     -0.117000
     15 C21        13.8420   18.1620   78.3820 c3        1 IZ5     -0.037100
     16 C22        14.0210   19.6940   78.3470 c3        1 IZ5      0.235200
     17 N45        12.7600   20.3980   78.2940 n3        1 IZ5     -0.924100
     18 S1         12.5110   21.8000   79.0630 sy        1 IZ5      1.528200
     19 O1         11.8850   21.5990   80.3020 o         1 IZ5     -0.664800
     20 O2         13.7260   22.5250   79.1020 o         1 IZ5     -0.664800
     21 C23        16.0220   20.2690   75.3050 cc        1 IZ5      0.295600
     22 C4         16.3220   21.4370   76.0470 cd        1 IZ5     -0.249600
     23 N11        15.1460   19.4630   76.0360 nc        1 IZ5     -0.658000
     24 C25        14.9220   20.1190   77.2040 cd        1 IZ5      0.346800
     25 N13        15.6250   21.3350   77.2420 na        1 IZ5     -0.296900
     26 C24        10.9830   23.8840   76.0300 ca        1 IZ5     -0.130000
     27 C26         9.6200   23.8870   76.3110 ca        1 IZ5     -0.099000
     28 C7         11.8740   23.2280   76.8760 ca        1 IZ5     -0.027000
     29 C8         11.4200   22.5620   78.0200 ca        1 IZ5     -0.360500
     30 C9         10.0540   22.5660   78.3150 ca        1 IZ5     -0.057000
     31 C10         9.1520   23.2250   77.4630 ca        1 IZ5      0.103900
     32 C17        19.4700   15.2750   75.7030 ca        1 IZ5     -0.131000
     33 C18        20.6530   15.0100   75.0120 ca        1 IZ5     -0.135000
     34 C19        21.1860   15.9700   74.1520 ca        1 IZ5     -0.131000
     35 C20        20.5430   17.1960   73.9820 ca        1 IZ5     -0.135500
     36 C27        19.3560   17.4700   74.6710 ca        1 IZ5     -0.076300
     37 C6         18.8250   16.4970   75.5270 ca        1 IZ5     -0.135500
     38 F1          7.8290   23.2250   77.7500 f         1 IZ5     -0.130900
     39 C30        17.3030   18.6510   73.8870 c3        1 IZ5     -0.071400
     40 C29        18.6730   18.7840   74.5250 c3        1 IZ5     -0.038100
     41 H1         18.2250   15.4210   81.8100 h1        1 IZ5      0.125700
     42 H2C1       19.6270   17.1810   79.7630 hc        1 IZ5      0.104200
     43 H2C2       19.8140   17.0920   81.5630 hc        1 IZ5      0.104200
     44 H4         21.2660   13.6080   80.0340 hn        1 IZ5      0.359500
     45 H12        17.9010   15.8800   78.0370 ha        1 IZ5      0.147000
     46 H16        16.3660   16.6850   82.0120 ha        1 IZ5      0.147000
     47 H13        15.9220   17.0040   77.0520 ha        1 IZ5      0.148000
     48 H15        14.3990   17.8210   81.0180 ha        1 IZ5      0.148000
     49 H211       13.6430   17.7710   77.3500 hc        1 IZ5      0.072700
     50 H212       12.9450   17.9120   79.0130 hc        1 IZ5      0.072700
     51 H22        14.5350   19.9970   79.3160 h1        1 IZ5      0.070700
     52 H45        12.1000   19.9800   77.6840 hn        1 IZ5      0.456800
     53 HA         16.9620   22.2840   75.8100 h4        1 IZ5      0.180000
     54 H5C1       15.6450   19.8750   73.2480 hc        1 IZ5      0.048200
     55 H5C2       17.1680   20.7970   73.5960 hc        1 IZ5      0.048200
     56 HB         15.5730   22.0110   77.9680 hn        1 IZ5      0.332700
     57 H24        11.3570   24.4030   75.1340 ha        1 IZ5      0.151000
     58 H26         8.9050   24.4010   75.6500 ha        1 IZ5      0.157000
     59 H7         12.9550   23.2420   76.6510 ha        1 IZ5      0.155000
     60 H9          9.6800   22.0660   79.2270 ha        1 IZ5      0.177000
     61 H301       16.7260   17.8350   74.3950 hc        1 IZ5      0.051700
     62 H302       17.4240   18.3540   72.8110 hc        1 IZ5      0.051700
     63 H18        21.1630   14.0450   75.1450 ha        1 IZ5      0.129000
     64 H6         17.8850   16.7070   76.0610 ha        1 IZ5      0.130500
     65 H19        22.1180   15.7620   73.6060 ha        1 IZ5      0.141000
     66 H20        20.9710   17.9500   73.3050 ha        1 IZ5      0.130500
     67 H291       18.5600   19.2500   75.5420 hc        1 IZ5      0.047200
     68 H292       19.3030   19.4820   73.9100 hc        1 IZ5      0.047200
     69 C5         16.5210   19.9490   73.9500 c3        1 IZ5     -0.094700
     70 H17        19.0460   14.5230   76.3890 ha        1 IZ5      0.141000
@<TRIPOS>BOND
     1    1    2 1   
     2    1    5 1   
     3    1    9 1   
     4    1   41 1   
     5    2    3 1   
     6    2   42 1   
     7    2   43 1   
     8    3    4 1   
     9    3    8 2   
    10    4    5 1   
    11    4   44 1   
    12    5    6 2   
    13    5    7 2   
    14    9   10 ar  
    15    9   14 ar  
    16   10   11 ar  
    17   10   45 1   
    18   11   12 ar  
    19   11   47 1   
    20   12   13 ar  
    21   12   15 1   
    22   13   14 ar  
    23   13   48 1   
    24   14   46 1   
    25   15   16 1   
    26   15   49 1   
    27   15   50 1   
    28   16   17 1   
    29   16   24 1   
    30   16   51 1   
    31   17   18 1   
    32   17   52 1   
    33   18   19 2   
    34   18   20 2   
    35   18   29 1   
    36   21   22 2   
    37   21   23 1   
    38   21   69 1   
    39   22   25 1   
    40   22   53 1   
    41   23   24 2   
    42   24   25 1   
    43   25   56 1   
    44   26   27 ar  
    45   26   28 ar  
    46   26   57 1   
    47   27   31 ar  
    48   27   58 1   
    49   28   29 ar  
    50   28   59 1   
    51   29   30 ar  
    52   30   31 ar  
    53   30   60 1   
    54   31   38 1   
    55   32   33 ar  
    56   32   37 ar  
    57   32   70 1   
    58   33   34 ar  
    59   33   63 1   
    60   34   35 ar  
    61   34   65 1   
    62   35   36 ar  
    63   35   66 1   
    64   36   37 ar  
    65   36   40 1   
    66   37   64 1   
    67   39   40 1   
    68   39   61 1   
    69   39   62 1   
    70   39   69 1   
    71   40   67 1   
    72   40   68 1   
    73   54   69 1   
    74   55   69 1   
@<TRIPOS>SUBSTRUCTURE
     1 IZ5         1 TEMP              0 ****  ****    0 ROOT
