@<TRIPOS>MOLECULE
IZ5
   71    70     1     0     0
SMALL
bcc


@<TRIPOS>ATOM
      1 C1          0.0430    3.0440   -2.1380 c2        1 IZ5     -0.897000
      2 C2          1.4350    2.4950   -2.1930 c3        1 IZ5     -0.128000
      3 C3          1.3390    1.0050   -1.8700 c2        1 IZ5      0.329000
      4 N4          0.0000    0.6240   -1.6880 n         1 IZ5     -0.854000
      5 S5         -1.0880    1.7980   -2.0230 s6        1 IZ5      2.874000
      6 O6         -2.0110    2.0210   -0.9980 o         1 IZ5     -0.956500
      7 O7         -1.7180    1.5600   -3.2690 o         1 IZ5     -0.956500
      8 O9          2.2950    0.2300   -1.7890 o         1 IZ5     -0.302000
      9 C11        -0.1670    4.3730   -2.1260 c2        1 IZ5      0.164000
     10 C12        -1.3960   -5.7180   -4.2920 c2        1 IZ5     -0.189000
     11 C13        -2.5250   -5.0840   -4.2070 c1        1 IZ5     -0.175000
     12 C14        -3.6670   -4.4640   -4.0970 c2        1 IZ5     -0.111000
     13 C15        -1.8350    6.2140   -2.2720 c1        1 IZ5      0.335000
     14 C16        -1.4560    4.9860   -1.9590 c2        1 IZ5     -0.545000
     15 C21        -4.6490   -4.3110   -5.1900 c3        1 IZ5     -0.191000
     16 C22        -1.2430   -0.3820   -5.8050 c2        1 IZ5      0.243000
     17 N45        -1.9690   -0.6440   -6.8990 n3        1 IZ5     -0.713000
     18 S1         -3.6310   -0.3020   -7.2250 s6        1 IZ5      2.859000
     19 O1         -3.7070   -0.4780   -8.6110 o         1 IZ5     -0.896500
     20 O2         -4.3860   -1.1490   -6.4180 o         1 IZ5     -0.896500
     21 C23         2.0490   -1.8300   -5.8500 c2        1 IZ5      0.024000
     22 C4          1.9950   -1.1080   -4.5630 c2        1 IZ5     -0.146000
     23 N11         0.8610   -1.6270   -6.4610 na        1 IZ5     -0.141000
     24 C25         0.0740   -0.8120   -5.5870 c2        1 IZ5     -0.228000
     25 N13         0.8130   -0.5040   -4.4200 n2        1 IZ5     -0.049000
     26 C24        -4.5430    2.2310   -4.5120 c2        1 IZ5     -0.167000
     27 C26        -0.1350   -3.7290   -9.6380 c2        1 IZ5     -0.116000
     28 C7         -4.1590    1.7470   -5.6480 c1        1 IZ5      0.099000
     29 C8         -3.7520    1.2600   -6.7950 c2        1 IZ5     -0.981000
     30 C9          0.0180   -2.5860   -8.8210 c1        1 IZ5     -0.119000
     31 C10        -0.3220   -2.4860  -10.1980 c2        1 IZ5      0.088000
     32 C17         0.3160   -6.8860   -8.4440 c1        1 IZ5     -0.187000
     33 C18         0.0970   -7.4600   -9.4720 c1        1 IZ5     -0.199000
     34 C19         3.5750   -8.2250   -7.1280 c2        1 IZ5     -0.150000
     35 C20         2.7860   -7.2110   -6.9560 c1        1 IZ5     -0.135000
     36 C27         1.9870   -6.1910   -6.7760 c2        1 IZ5     -0.094000
     37 C6          0.5540   -6.1980   -7.2090 c3        1 IZ5     -0.010000
     38 F1         -0.6040   -1.7860  -11.2520 f         1 IZ5      0.030000
     39 C30         2.8760   -3.8860   -7.0480 c3        1 IZ5     -0.157000
     40 C29         2.4380   -4.9560   -6.0660 c3        1 IZ5     -0.116000
     41 H1          0.6920    5.0660   -2.2340 ha        1 IZ5      0.147000
     42 H2C1        2.1090    2.9850   -1.4430 hc        1 IZ5      0.142500
     43 H2C2        1.8940    2.6200   -3.2080 hc        1 IZ5      0.142500
     44 H4         -0.1850   -0.3170   -1.4350 hn        1 IZ5      0.279000
     45 H12        -1.3070   -6.7920   -4.0740 ha        1 IZ5      0.125000
     46 H16        -2.2410    4.3640   -1.4530 ha        1 IZ5      0.232000
     47 H13        -0.4580   -5.2180   -4.5770 ha        1 IZ5      0.125000
     48 H15        -3.9580   -4.0140   -3.1300 ha        1 IZ5      0.139000
     49 H211       -4.7810   -3.2250   -5.4380 hc        1 IZ5      0.093000
     50 H212       -5.6400   -4.7180   -4.8660 hc        1 IZ5      0.093000
     51 H22        -4.3340   -4.8510   -6.1150 hc        1 IZ5      0.093000
     52 H45        -1.7210    0.2360   -4.9940 h4        1 IZ5      0.240000
     53 HA          0.5290   -2.0140   -7.4140 hn        1 IZ5      0.356000
     54 H5C1        3.7740   -1.9150   -7.0740 hc        1 IZ5      0.128000
     55 H5C2        3.9030   -2.7840   -5.4870 hc        1 IZ5      0.128000
     56 HB          2.7910   -1.0650   -3.8080 h4        1 IZ5      0.227000
     57 H24        -3.8120    2.4410   -3.7080 ha        1 IZ5      0.197000
     58 H26        -5.6010    2.4310   -4.2730 ha        1 IZ5      0.197000
     59 H7         -0.1170   -4.8060   -9.7560 ha        1 IZ5      0.244000
     60 H9         -3.5090    2.0080   -7.5860 h4        1 IZ5      0.218000
     61 H301        2.0750   -3.7230   -7.8170 hc        1 IZ5      0.093000
     62 H302        3.7900   -4.2440   -7.5950 hc        1 IZ5      0.093000
     63 H6          0.1950   -5.1320   -7.3130 hc        1 IZ5      0.103500
     64 H19         4.2090   -8.3350   -8.0210 ha        1 IZ5      0.145500
     65 H20         3.6550   -9.0390   -6.3900 ha        1 IZ5      0.145500
     66 H291        3.2910   -5.1990   -5.3770 hc        1 IZ5      0.094000
     67 H292        1.5970   -4.5680   -5.4290 hc        1 IZ5      0.094000
     68 H17        -0.0650   -6.6730   -6.3900 hc        1 IZ5      0.103500
     69 H452       -1.5030   -1.1440   -7.6360 hn        1 IZ5      0.247000
     70 C5          3.2170   -2.5820   -6.3560 c3        1 IZ5     -0.131000
     71 H18        -0.0960   -7.9910  -10.3710 ha        1 IZ5      0.233000
@<TRIPOS>BOND
     1    1    2 1   
     2    1    5 1   
     3    1    9 1   
     4    2    3 1   
     5    2   42 1   
     6    2   43 1   
     7    3    4 1   
     8    3    8 1   
     9    4    5 1   
    10    4   44 1   
    11    5    6 1   
    12    5    7 1   
    13    9   14 1   
    14    9   41 1   
    15   10   11 1   
    16   10   45 1   
    17   10   47 1   
    18   11   12 1   
    19   12   15 1   
    20   12   48 1   
    21   13   14 1   
    22   14   46 1   
    23   15   49 1   
    24   15   50 1   
    25   15   51 1   
    26   16   17 1   
    27   16   24 1   
    28   16   52 1   
    29   17   18 1   
    30   17   69 1   
    31   18   19 1   
    32   18   20 1   
    33   18   29 1   
    34   21   22 1   
    35   21   23 1   
    36   21   70 1   
    37   22   25 1   
    38   22   56 1   
    39   23   24 1   
    40   23   53 1   
    41   24   25 1   
    42   26   28 1   
    43   26   57 1   
    44   26   58 1   
    45   27   30 1   
    46   27   31 1   
    47   27   59 1   
    48   28   29 1   
    49   29   60 1   
    50   30   31 1   
    51   31   38 1   
    52   32   33 1   
    53   32   37 1   
    54   33   71 1   
    55   34   35 1   
    56   34   64 1   
    57   34   65 1   
    58   35   36 1   
    59   36   37 1   
    60   36   40 1   
    61   37   63 1   
    62   37   68 1   
    63   39   40 1   
    64   39   61 1   
    65   39   62 1   
    66   39   70 1   
    67   40   66 1   
    68   40   67 1   
    69   54   70 1   
    70   55   70 1   
@<TRIPOS>SUBSTRUCTURE
     1 IZ5         1 TEMP              0 ****  ****    0 ROOT
