@<TRIPOS>MOLECULE
IZ9
   36    37     1     0     0
SMALL
bcc


@<TRIPOS>ATOM
      1 NAB        -1.7790   -1.2110    0.7670 n1        1 IZ9     -0.056000
      2 CAE        -0.8550   -0.8050    0.1850 c1        1 IZ9     -0.068000
      3 CAS         0.2560   -0.3150   -0.5160 c2        1 IZ9     -0.043000
      4 C5          1.6120   -0.2380   -0.0390 c2        1 IZ9     -0.253000
      5 C6          2.3160   -0.5850    1.1580 c2        1 IZ9      0.255000
      6 NAD         1.6540   -1.2040    2.1940 nv        1 IZ9     -0.354000
      7 N1          3.6560   -0.3470    1.2610 n2        1 IZ9     -0.312000
      8 C2          4.3030    0.2310    0.1700 c2        1 IZ9      0.207000
      9 NAC         5.6520    0.5500    0.3520 nv        1 IZ9     -0.327000
     10 N3          3.7410    0.5710   -1.0500 n2        1 IZ9     -0.276000
     11 C4          2.4010    0.3360   -1.1100 c2        1 IZ9      0.135000
     12 NAN         1.5430    0.5890   -2.1890 na        1 IZ9     -0.200000
     13 CAT         0.2430    0.1950   -1.8270 c2        1 IZ9      0.085000
     14 CAG        -0.8880    0.3190   -2.7060 c2        1 IZ9     -0.428000
     15 CAF        -0.9520    0.7870   -3.9380 c1        1 IZ9      0.218000
     16 CAQ        -3.8610    0.6360   -4.9890 ca        1 IZ9     -0.154000
     17 CAJ        -4.2860   -0.6750   -5.2070 ca        1 IZ9     -0.129000
     18 CAH        -5.5520   -1.0790   -4.7890 ca        1 IZ9     -0.131000
     19 CAO        -6.4080   -0.1740   -4.1490 ca        1 IZ9     -0.067000
     20 CAA        -7.7600   -0.5990   -3.7170 c3        1 IZ9     -0.180000
     21 CAI        -5.9770    1.1410   -3.9360 ca        1 IZ9     -0.131000
     22 CAK        -4.7100    1.5430   -4.3550 ca        1 IZ9     -0.129000
     23 HAD1        0.6650   -1.2100    2.1750 hn        1 IZ9      0.236500
     24 HAD2        2.1130   -1.3410    3.0620 hn        1 IZ9      0.236500
     25 HAC1        6.1860    0.7270   -0.4670 hn        1 IZ9      0.225000
     26 HAC2        6.1230    0.0990    1.1000 hn        1 IZ9      0.225000
     27 HAN         1.8100    0.9840   -3.0540 hn        1 IZ9      0.268000
     28 HAG        -1.8470   -0.0430   -2.2610 ha        1 IZ9      0.222000
     29 HAF        -2.8600    0.9560   -5.3230 ha        1 IZ9      0.146000
     30 HAJ        -3.6210   -1.3910   -5.7120 ha        1 IZ9      0.131000
     31 HAK        -4.3820    2.5790   -4.1880 ha        1 IZ9      0.131000
     32 HAH        -5.8830   -2.1140   -4.9600 ha        1 IZ9      0.132000
     33 HAA1       -8.0950   -0.0190   -2.8230 hc        1 IZ9      0.084333
     34 HAA2       -7.7740   -1.6870   -3.4590 hc        1 IZ9      0.084333
     35 HAA3       -8.4950   -0.4250   -4.5430 hc        1 IZ9      0.084333
     36 HAI        -6.6440    1.8580   -3.4360 ha        1 IZ9      0.132000
@<TRIPOS>BOND
     1    1    2 1   
     2    2    3 1   
     3    3    4 1   
     4    3   13 1   
     5    4    5 1   
     6    4   11 1   
     7    5    6 1   
     8    5    7 1   
     9    6   23 1   
    10    6   24 1   
    11    7    8 1   
    12    8    9 1   
    13    8   10 1   
    14    9   25 1   
    15    9   26 1   
    16   10   11 1   
    17   11   12 1   
    18   12   13 1   
    19   12   27 1   
    20   13   14 1   
    21   14   15 1   
    22   14   28 1   
    23   16   17 1   
    24   16   22 1   
    25   16   29 1   
    26   17   18 1   
    27   17   30 1   
    28   18   19 1   
    29   18   32 1   
    30   19   20 1   
    31   19   21 1   
    32   20   33 1   
    33   20   34 1   
    34   20   35 1   
    35   21   22 1   
    36   21   36 1   
    37   22   31 1   
@<TRIPOS>SUBSTRUCTURE
     1 IZ9         1 TEMP              0 ****  ****    0 ROOT
