@<TRIPOS>MOLECULE
IZ9
   36    37     1     0     0
SMALL
bcc


@<TRIPOS>ATOM
      1 NAB        -2.0020    1.3340    0.3870 n1        1 IZ9     -0.066000
      2 CAE        -1.1240    0.8130   -0.1750 c1        1 IZ9     -0.061000
      3 CAS        -0.0690    0.1850   -0.8500 c2        1 IZ9     -0.051000
      4 C5          1.2900    0.0570   -0.3900 c2        1 IZ9     -0.251000
      5 C6          2.0440    0.4640    0.7550 c2        1 IZ9      0.252000
      6 NAD         1.4520    1.2280    1.7370 nh        1 IZ9     -0.352000
      7 N1          3.3660    0.1420    0.8580 n2        1 IZ9     -0.310000
      8 C2          3.9460   -0.5790   -0.1840 c2        1 IZ9      0.205000
      9 NAC         5.2750   -0.9750    0.0050 nh        1 IZ9     -0.326000
     10 N3          3.3330   -0.9910   -1.3560 n2        1 IZ9     -0.274000
     11 C4          2.0110   -0.6700   -1.4140 c2        1 IZ9      0.133000
     12 NAN         1.1120   -0.9660   -2.4470 na        1 IZ9     -0.201000
     13 CAT        -0.1490   -0.4450   -2.1060 c2        1 IZ9      0.094000
     14 CAG        -1.3000   -0.5770   -2.9570 c2        1 IZ9     -0.444000
     15 CAF        -1.4710   -1.3150   -4.0360 c1        1 IZ9      0.234000
     16 CAQ        -4.0920    1.7600   -3.2540 ca        1 IZ9     -0.148000
     17 CAJ        -4.3980    1.5980   -4.6060 ca        1 IZ9     -0.135000
     18 CAH        -5.2180    0.5490   -5.0160 ca        1 IZ9     -0.132000
     19 CAO        -5.7440   -0.3480   -4.0780 ca        1 IZ9     -0.068000
     20 CAA        -6.6280   -1.4520   -4.5140 c3        1 IZ9     -0.181000
     21 CAI        -5.4340   -0.1790   -2.7230 ca        1 IZ9     -0.132000
     22 CAK        -4.6120    0.8700   -2.3140 ca        1 IZ9     -0.135000
     23 HAD1        0.4640    1.2840    1.7440 hn        1 IZ9      0.234500
     24 HAD2        1.9380    1.4020    2.5830 hn        1 IZ9      0.234500
     25 HAC1        5.7940   -0.4860    0.6960 hn        1 IZ9      0.224000
     26 HAC2        5.7750   -1.2630   -0.8040 hn        1 IZ9      0.224000
     27 HAN         1.3340   -1.4420   -3.2830 hn        1 IZ9      0.268000
     28 HAG        -2.1840    0.0400   -2.6440 ha        1 IZ9      0.229000
     29 HAF        -3.4520    2.5930   -2.9290 ha        1 IZ9      0.136000
     30 HAJ        -3.9940    2.3010   -5.3490 ha        1 IZ9      0.138000
     31 HAK        -4.3830    1.0030   -1.2450 ha        1 IZ9      0.138000
     32 HAH        -5.4570    0.4220   -6.0830 ha        1 IZ9      0.133500
     33 HAA1       -6.3270   -1.8310   -5.5220 hc        1 IZ9      0.085000
     34 HAA2       -7.6860   -1.0900   -4.5790 hc        1 IZ9      0.085000
     35 HAA3       -6.5950   -2.3040   -3.7910 hc        1 IZ9      0.085000
     36 HAI        -5.8450   -0.8770   -1.9780 ha        1 IZ9      0.133500
@<TRIPOS>BOND
     1    1    2 1   
     2    2    3 1   
     3    3    4 1   
     4    3   13 1   
     5    4    5 1   
     6    4   11 1   
     7    5    6 1   
     8    5    7 1   
     9    6   23 1   
    10    6   24 1   
    11    7    8 1   
    12    8    9 1   
    13    8   10 1   
    14    9   25 1   
    15    9   26 1   
    16   10   11 1   
    17   11   12 1   
    18   12   13 1   
    19   12   27 1   
    20   13   14 1   
    21   14   15 1   
    22   14   28 1   
    23   16   17 1   
    24   16   22 1   
    25   16   29 1   
    26   17   18 1   
    27   17   30 1   
    28   18   19 1   
    29   18   32 1   
    30   19   20 1   
    31   19   21 1   
    32   20   33 1   
    33   20   34 1   
    34   20   35 1   
    35   21   22 1   
    36   21   36 1   
    37   22   31 1   
@<TRIPOS>SUBSTRUCTURE
     1 IZ9         1 TEMP              0 ****  ****    0 ROOT
