@<TRIPOS>MOLECULE
IZA
   39    42     1     0     0
SMALL
bcc


@<TRIPOS>ATOM
      1 O0         -3.8830    1.6920    0.0590 o         1 IZA     -0.641500
      2 C11        -2.6710    1.9830    0.0800 c         1 IZA      0.704100
      3 N2         -2.3990    3.3650    0.1520 n         1 IZA     -0.447100
      4 C12        -1.1220    3.8610    0.1840 cc        1 IZA      0.018600
      5 C13        -0.0380    3.0290    0.1470 cd        1 IZA     -0.236200
      6 C9         -0.2370    1.6110    0.0730 ca        1 IZA      0.065200
      7 C1          0.8710    0.7260    0.0340 ca        1 IZA     -0.125200
      8 C10        -1.5230    1.0550    0.0380 ca        1 IZA     -0.140600
      9 C8         -1.7210   -0.3740   -0.0360 ca        1 IZA      0.026000
     10 C7         -3.0100   -0.9590   -0.0730 ca        1 IZA     -0.164000
     11 C6         -3.1680   -2.3400   -0.1440 ca        1 IZA      0.126900
     12 F1         -4.4120   -2.8770   -0.1780 f         1 IZA     -0.140900
     13 C5         -2.0440   -3.2050   -0.1830 ca        1 IZA     -0.166000
     14 C4         -0.7840   -2.6550   -0.1480 ca        1 IZA     -0.082000
     15 C3         -0.6040   -1.2550   -0.0750 ca        1 IZA     -0.019000
     16 C0          0.7070   -0.6950   -0.0400 ca        1 IZA      0.113400
     17 N1          1.9600   -1.3160   -0.0650 nc        1 IZA     -0.565100
     18 C2          2.8690   -0.3090   -0.0090 cd        1 IZA      0.416800
     19 N0          2.2480    0.9550    0.0530 na        1 IZA     -0.247300
     20 C14         4.3730   -0.4490   -0.0080 c3        1 IZA     -0.061300
     21 C17         4.9300    0.1560    1.2750 c3        1 IZA     -0.089100
     22 C16         4.9440    0.2840   -1.2160 c3        1 IZA     -0.089100
     23 C15         4.7690   -1.9180   -0.0810 c3        1 IZA     -0.089100
     24 HN2        -3.1780    3.9870    0.1800 hn        1 IZA      0.337500
     25 H12        -1.0220    4.9600    0.2410 h4        1 IZA      0.153000
     26 H13         0.9770    3.4410    0.1740 ha        1 IZA      0.141000
     27 H7         -3.9200   -0.3380   -0.0460 ha        1 IZA      0.189000
     28 H5         -2.1990   -4.2920   -0.2390 ha        1 IZA      0.149000
     29 H4          0.1050   -3.3060   -0.1770 ha        1 IZA      0.157000
     30 HN0         2.6970    1.8290    0.1000 hn        1 IZA      0.305700
     31 H171        4.7380    1.2540    1.3180 hc        1 IZA      0.044367
     32 H172        4.4640   -0.3270    2.1670 hc        1 IZA      0.044367
     33 H173        6.0340   -0.0080    1.3170 hc        1 IZA      0.044367
     34 H161        6.0480    0.1240   -1.2630 hc        1 IZA      0.044367
     35 H162        4.4870   -0.1050   -2.1580 hc        1 IZA      0.044367
     36 H163        4.7510    1.3810   -1.1490 hc        1 IZA      0.044367
     37 H151        4.3650   -2.4770    0.7970 hc        1 IZA      0.044367
     38 H152        4.3750   -2.3840   -1.0150 hc        1 IZA      0.044367
     39 H153        5.8830   -2.0030   -0.0800 hc        1 IZA      0.044367
@<TRIPOS>BOND
     1    1    2 2   
     2    2    3 1   
     3    2    8 1   
     4    3    4 1   
     5    3   24 1   
     6    4    5 2   
     7    4   25 1   
     8    5    6 1   
     9    5   26 1   
    10    6    7 ar  
    11    6    8 ar  
    12    7   16 ar  
    13    7   19 1   
    14    8    9 ar  
    15    9   10 ar  
    16    9   15 ar  
    17   10   11 ar  
    18   10   27 1   
    19   11   12 1   
    20   11   13 ar  
    21   13   14 ar  
    22   13   28 1   
    23   14   15 ar  
    24   14   29 1   
    25   15   16 ar  
    26   16   17 1   
    27   17   18 2   
    28   18   19 1   
    29   18   20 1   
    30   19   30 1   
    31   20   21 1   
    32   20   22 1   
    33   20   23 1   
    34   21   31 1   
    35   21   32 1   
    36   21   33 1   
    37   22   34 1   
    38   22   35 1   
    39   22   36 1   
    40   23   37 1   
    41   23   38 1   
    42   23   39 1   
@<TRIPOS>SUBSTRUCTURE
     1 IZA         1 TEMP              0 ****  ****    0 ROOT
