@<TRIPOS>MOLECULE
IZA
   39    32     1     0     0
SMALL
bcc


@<TRIPOS>ATOM
      1 O0         -3.8010    0.0910    3.1670 o         1 IZA     -0.366000
      2 C11        -2.5790   -0.0230    3.1540 c1        1 IZA      0.341000
      3 N2         -1.8880   -0.0660    4.3340 n2        1 IZA     -0.291000
      4 C12        -0.5090   -0.0870    4.3240 c1        1 IZA      0.016000
      5 C13         0.1820   -0.0660    3.1140 c1        1 IZA     -0.248000
      6 C9         -0.5130   -0.0230    1.9210 c1        1 IZA      0.077000
      7 C1          0.1990   -0.0010    0.6700 c1        1 IZA     -0.052500
      8 C10        -1.8830   -0.0020    1.9300 c2        1 IZA     -0.120000
      9 C8         -2.6040    0.0430    0.6940 c2        1 IZA      0.026000
     10 C7         -4.0190    0.0520    0.7000 c1        1 IZA     -0.164000
     11 C6         -4.7210    0.0820   -0.5040 c1        1 IZA      0.092000
     12 F1         -6.0740    0.1670   -0.4450 f         1 IZA     -0.106000
     13 C5         -4.0280    0.1040   -1.7170 c1        1 IZA     -0.166000
     14 C4         -2.6360    0.0950   -1.7250 c1        1 IZA     -0.082000
     15 C3         -1.9220    0.0640   -0.5010 c1        1 IZA     -0.019000
     16 C0         -0.4930    0.0420   -0.5100 c1        1 IZA     -0.052500
     17 N1          0.4020   -0.0240   -1.5220 n1        1 IZA     -0.171000
     18 C2          1.6480   -0.1070   -0.9810 c1        1 IZA      0.015000
     19 N0          1.5210   -0.0930    0.3740 n1        1 IZA     -0.171000
     20 C14         2.9190   -0.0320   -1.8090 c2        1 IZA      0.014000
     21 C17         3.8010   -1.2220   -1.4820 c3        1 IZA     -0.207000
     22 C16         3.6650    1.2680   -1.4810 c3        1 IZA     -0.207000
     23 C15         2.5690   -0.0510   -3.2600 c3        1 IZA     -0.207000
     24 HN2        -2.3470   -0.0790    5.1390 hn        1 IZA      0.251000
     25 H12        -0.0180   -0.1170    5.1620 ha        1 IZA      0.153000
     26 H13         1.1780   -0.0820    3.1090 ha        1 IZA      0.141000
     27 H7         -4.4990   -0.0620    1.5380 ha        1 IZA      0.189000
     28 H5         -4.5180    0.1250   -2.5560 ha        1 IZA      0.149000
     29 H4         -2.1470    0.1110   -2.5800 ha        1 IZA      0.157000
     30 HN0         2.2080   -0.1380    0.9790 DU        1 IZA      0.256000
     31 H171        4.1690   -1.1130   -0.6010 hc        1 IZA      0.083667
     32 H172        4.5380   -1.2810   -2.1440 hc        1 IZA      0.083667
     33 H173        3.2690   -2.0400   -1.5130 hc        1 IZA      0.083667
     34 H161        3.0390    2.0230   -1.5300 hc        1 IZA      0.083667
     35 H162        4.0380    1.2110   -0.5780 hc        1 IZA      0.083667
     36 H163        4.3860    1.4010   -2.1220 hc        1 IZA      0.083667
     37 H151        2.1670   -0.9370   -3.4950 hc        1 IZA      0.083667
     38 H152        1.9130    0.6710   -3.4510 hc        1 IZA      0.083667
     39 H153        3.3890    0.0940   -3.8020 hc        1 IZA      0.083667
@<TRIPOS>BOND
     1    1    2 1   
     2    2    8 1   
     3    3    4 1   
     4    3   24 1   
     5    4   25 1   
     6    5    6 1   
     7    5   26 1   
     8    6    8 1   
     9    7   16 1   
    10    8    9 1   
    11    9   10 1   
    12    9   15 1   
    13   10   27 1   
    14   11   12 1   
    15   11   13 1   
    16   13   28 1   
    17   14   15 1   
    18   14   29 1   
    19   17   18 1   
    20   18   19 1   
    21   20   21 1   
    22   20   22 1   
    23   20   23 1   
    24   21   31 1   
    25   21   32 1   
    26   21   33 1   
    27   22   34 1   
    28   22   35 1   
    29   22   36 1   
    30   23   37 1   
    31   23   38 1   
    32   23   39 1   
@<TRIPOS>SUBSTRUCTURE
     1 IZA         1 TEMP              0 ****  ****    0 ROOT
