@<TRIPOS>MOLECULE
IZA
   39    42     1     0     0
SMALL
bcc


@<TRIPOS>ATOM
      1 O0         -0.0410   -0.0580    0.2080 o         1 IZA     -0.641500
      2 C11         1.1950   -0.0790    0.0440 c         1 IZA      0.704100
      3 N2          1.9460   -0.1530    1.2360 n         1 IZA     -0.447100
      4 C12         3.3160   -0.1860    1.2390 cc        1 IZA      0.018600
      5 C13         4.0280   -0.1460    0.0730 cd        1 IZA     -0.236200
      6 C9          3.3320   -0.0700   -1.1780 ca        1 IZA      0.065200
      7 C1          4.0470   -0.0290   -2.4020 ca        1 IZA     -0.125200
      8 C10         1.9320   -0.0350   -1.2340 ca        1 IZA     -0.140600
      9 C8          1.2330    0.0420   -2.4970 ca        1 IZA      0.026000
     10 C7         -0.1790    0.0790   -2.5790 ca        1 IZA     -0.164000
     11 C6         -0.8240    0.1520   -3.8110 ca        1 IZA      0.126900
     12 F1         -2.1780    0.1870   -3.8640 f         1 IZA     -0.140900
     13 C5         -0.0870    0.1930   -5.0220 ca        1 IZA     -0.166000
     14 C4          1.2870    0.1580   -4.9620 ca        1 IZA     -0.082000
     15 C3          1.9590    0.0830   -3.7210 ca        1 IZA     -0.019000
     16 C0          3.3830    0.0470   -3.6690 ca        1 IZA      0.114400
     17 N1          4.3290    0.0740   -4.6990 nc        1 IZA     -0.565100
     18 C2          5.5400    0.0170   -4.0870 cd        1 IZA      0.416800
     19 N0          5.4140   -0.0470   -2.6840 na        1 IZA     -0.247300
     20 C14         6.8930    0.0170   -4.7580 c3        1 IZA     -0.061300
     21 C17         7.6300   -1.2660   -4.3970 c3        1 IZA     -0.089100
     22 C16         7.6880    1.2250   -4.2780 c3        1 IZA     -0.089100
     23 C15         6.7340    0.0930   -6.2710 c3        1 IZA     -0.089100
     24 HN2         1.4420   -0.1830    2.0960 hn        1 IZA      0.337500
     25 H12         3.8040   -0.2440    2.2290 h4        1 IZA      0.153000
     26 H13         5.1230   -0.1730    0.0920 ha        1 IZA      0.141000
     27 H7         -0.8060    0.0500   -1.6720 ha        1 IZA      0.189000
     28 H5         -0.6220    0.2510   -5.9800 ha        1 IZA      0.149000
     29 H4          1.8830    0.1880   -5.8880 ha        1 IZA      0.157000
     30 HN0         6.1480   -0.0960   -2.0300 hn        1 IZA      0.305700
     31 H171        7.8460   -1.3110   -3.3020 hc        1 IZA      0.044367
     32 H172        7.0210   -2.1580   -4.6810 hc        1 IZA      0.044367
     33 H173        8.6010   -1.3070   -4.9470 hc        1 IZA      0.044367
     34 H161        8.6610    1.2720   -4.8240 hc        1 IZA      0.044367
     35 H162        7.1220    2.1670   -4.4750 hc        1 IZA      0.044367
     36 H163        7.9030    1.1560   -3.1850 hc        1 IZA      0.044367
     37 H151        6.1980    1.0280   -6.5630 hc        1 IZA      0.044367
     38 H152        7.7420    0.0930   -6.7510 hc        1 IZA      0.044367
     39 H153        6.1560   -0.7840   -6.6490 hc        1 IZA      0.044367
@<TRIPOS>BOND
     1    1    2 2   
     2    2    3 1   
     3    2    8 1   
     4    3    4 1   
     5    3   24 1   
     6    4    5 2   
     7    4   25 1   
     8    5    6 1   
     9    5   26 1   
    10    6    7 ar  
    11    6    8 ar  
    12    7   16 ar  
    13    7   19 1   
    14    8    9 ar  
    15    9   10 ar  
    16    9   15 ar  
    17   10   11 ar  
    18   10   27 1   
    19   11   12 1   
    20   11   13 ar  
    21   13   14 ar  
    22   13   28 1   
    23   14   15 ar  
    24   14   29 1   
    25   15   16 ar  
    26   16   17 1   
    27   17   18 2   
    28   18   19 1   
    29   18   20 1   
    30   19   30 1   
    31   20   21 1   
    32   20   22 1   
    33   20   23 1   
    34   21   31 1   
    35   21   32 1   
    36   21   33 1   
    37   22   34 1   
    38   22   35 1   
    39   22   36 1   
    40   23   37 1   
    41   23   38 1   
    42   23   39 1   
@<TRIPOS>SUBSTRUCTURE
     1 IZA         1 TEMP              0 ****  ****    0 ROOT
