@<TRIPOS>MOLECULE
IZB
   68    72     1     0     0
SMALL
bcc


@<TRIPOS>ATOM
      1 C1         -0.0250   -0.3260    0.3760 c3        1 IZB     -0.718000
      2 C2          1.2880   -0.0410   -0.3440 c3        1 IZB     -0.171000
      3 C3          2.1840    0.7590    0.5920 c2        1 IZB      0.308000
      4 N4          1.6310    0.8460    1.8840 n         1 IZB     -0.880000
      5 S5          0.2210    0.0850    2.1140 s6        1 IZB      2.802000
      6 O6         -0.8120    0.9270    2.5040 o         1 IZB     -0.905000
      7 O7          0.3700   -1.1240    2.8010 o         1 IZB     -0.905000
      8 O9          3.2600    1.2660    0.2800 o         1 IZB     -0.245000
      9 C11        -0.5260   -1.6990    0.1350 c2        1 IZB     -0.126000
     10 C12        -1.7110   -1.8800   -0.6170 c2        1 IZB      0.120000
     11 C13        -2.2380   -3.1540   -0.8560 c2        1 IZB     -0.217000
     12 C14        -1.6100   -4.2910   -0.3760 c2        1 IZB      0.128000
     13 C15        -0.3540   -4.1690    0.3760 c3        1 IZB     -0.244000
     14 C16         0.1260   -2.8130    0.6270 c2        1 IZB      0.067000
     15 C21        -2.1880   -5.6370   -0.5960 c3        1 IZB     -0.195000
     16 C22        -1.2720   -6.5620   -1.4420 c3        1 IZB      0.129000
     17 N45        -1.0020   -6.0300   -2.7450 n3        1 IZB     -0.878000
     18 S1          0.4470   -5.5120   -3.2590 s6        1 IZB      2.813000
     19 O1          0.2760   -4.5010   -4.2190 o         1 IZB     -0.943000
     20 O2          1.1650   -5.1040   -2.0970 o         1 IZB     -0.943000
     21 C17        -3.9020  -12.0730   -2.6920 c2        1 IZB     -0.415000
     22 C19        -3.3250  -10.8110   -3.0550 c2        1 IZB     -0.101000
     23 C23        -2.8620   -9.8730   -2.1980 c2        1 IZB     -0.016000
     24 C4         -2.7830   -9.8550   -0.7020 c2        1 IZB     -0.061000
     25 C5         -3.1950  -10.7830    0.1730 c2        1 IZB     -0.165000
     26 C6         -4.0970  -12.6140   -1.5020 c1        1 IZB      0.172000
     27 N11        -2.3630   -8.5940   -2.6260 na        1 IZB     -0.254000
     28 C25        -1.9140   -7.9450   -1.4400 c2        1 IZB      0.005000
     29 N13        -2.1720   -8.6060   -0.3170 n2        1 IZB     -0.168000
     30 C18        -0.5070  -11.2610   -5.1700 c3        1 IZB     -0.033000
     31 O3         -0.6700   -9.8740   -4.9180 os        1 IZB     -0.264000
     32 C24         0.5590   -9.1260   -4.9120 c3        1 IZB      0.064000
     33 C26         1.5920   -9.7430   -4.0100 c2        1 IZB     -0.396000
     34 N5          1.7350  -11.1110   -4.0510 n3        1 IZB      0.147000
     35 C27         0.9330  -11.7730   -5.0920 c3        1 IZB     -0.114000
     36 C7          0.2040   -7.7480   -4.5510 c1        1 IZB     -0.001000
     37 C8          1.2280   -6.8600   -4.0170 c3        1 IZB     -0.771000
     38 C9          2.2250   -7.5430   -3.1600 c2        1 IZB     -0.289000
     39 C10         2.3780   -8.8830   -3.1790 c2        1 IZB      0.006000
     40 H1         -0.7920    0.4070   -0.0120 h1        1 IZB      0.173000
     41 H2C1        1.1270    0.5530   -1.2810 hc        1 IZB      0.148000
     42 H2C2        1.8240   -0.9840   -0.6300 hc        1 IZB      0.148000
     43 H4          2.1370    1.3810    2.5540 hn        1 IZB      0.292000
     44 H12        -2.2400   -0.9940   -1.0210 ha        1 IZB      0.181000
     45 H13        -3.1740   -3.2430   -1.4390 ha        1 IZB      0.187000
     46 H15         0.4830   -4.7070   -0.2200 hc        1 IZB      0.248000
     47 H16         1.0440   -2.7170    1.2420 ha        1 IZB      0.198000
     48 H211       -0.4040   -4.7540    1.3480 hc        1 IZB      0.248000
     49 H212       -2.3450   -6.1250    0.4090 hc        1 IZB      0.153000
     50 H22        -3.1930   -5.5610   -1.0930 hc        1 IZB      0.153000
     51 H45        -0.2810   -6.6630   -0.8920 h1        1 IZB      0.129000
     52 H19        -3.2740  -10.6140   -4.1430 ha        1 IZB      0.146000
     53 H5         -3.6720  -11.7500   -0.1070 ha        1 IZB      0.160000
     54 H6         -3.0940  -10.6460    1.2600 ha        1 IZB      0.160000
     55 H11        -1.8210   -8.5530   -3.4660 hn        1 IZB      0.259000
     56 H181       -1.1590  -11.7720   -4.4070 h1        1 IZB      0.111500
     57 H182       -0.9000  -11.4660   -6.2030 h1        1 IZB      0.111500
     58 H271        0.9150  -12.8830   -4.9080 h1        1 IZB      0.133500
     59 H272        1.4540  -11.5790   -6.0750 h1        1 IZB      0.133500
     60 H7          0.9410   -9.0850   -5.9860 h1        1 IZB      0.126000
     61 H9          1.7870   -6.4560   -4.9300 h1        1 IZB      0.225000
     62 H10         2.8590   -6.8960   -2.5370 ha        1 IZB      0.158000
     63 H201        3.1490   -9.3350   -2.5300 ha        1 IZB      0.136000
     64 H202        2.5670  -12.9240   -3.4040 h4        1 IZB      0.166500
     65 H203        3.1200  -11.3660   -2.4870 h4        1 IZB      0.166500
     66 C20         2.5130  -11.8340   -3.2730 c2        1 IZB     -0.260000
     67 H452       -1.7580   -6.1200   -3.3910 hn        1 IZB      0.272000
     68 H17        -4.2550  -12.6900   -3.5510 ha        1 IZB      0.195000
@<TRIPOS>BOND
     1    1    2 1   
     2    1    5 1   
     3    1    9 1   
     4    1   40 1   
     5    2    3 1   
     6    2   41 1   
     7    2   42 1   
     8    3    4 1   
     9    3    8 1   
    10    4    5 1   
    11    4   43 1   
    12    5    6 1   
    13    5    7 1   
    14    9   10 1   
    15    9   14 1   
    16   10   11 1   
    17   10   44 1   
    18   11   12 1   
    19   11   45 1   
    20   12   13 1   
    21   12   15 1   
    22   13   14 1   
    23   13   46 1   
    24   13   48 1   
    25   14   47 1   
    26   15   16 1   
    27   15   49 1   
    28   15   50 1   
    29   16   17 1   
    30   16   28 1   
    31   16   51 1   
    32   17   18 1   
    33   17   67 1   
    34   18   19 1   
    35   18   20 1   
    36   18   37 1   
    37   21   22 1   
    38   21   26 1   
    39   21   68 1   
    40   22   23 1   
    41   22   52 1   
    42   23   24 1   
    43   23   27 1   
    44   24   25 1   
    45   24   29 1   
    46   25   53 1   
    47   25   54 1   
    48   27   28 1   
    49   27   55 1   
    50   28   29 1   
    51   30   31 1   
    52   30   35 1   
    53   30   56 1   
    54   30   57 1   
    55   31   32 1   
    56   32   33 1   
    57   32   36 1   
    58   32   60 1   
    59   33   34 1   
    60   33   39 1   
    61   34   35 1   
    62   34   66 1   
    63   35   58 1   
    64   35   59 1   
    65   36   37 1   
    66   37   38 1   
    67   37   61 1   
    68   38   39 1   
    69   38   62 1   
    70   39   63 1   
    71   64   66 1   
    72   65   66 1   
@<TRIPOS>SUBSTRUCTURE
     1 IZB         1 TEMP              0 ****  ****    0 ROOT
