@<TRIPOS>MOLECULE
IZB
   68    70     1     0     0
SMALL
bcc


@<TRIPOS>ATOM
      1 C1          1.8420   -2.3170   -2.0620 c2        1 IZB     -0.815000
      2 C2          2.2090   -1.1820   -2.6730 c2        1 IZB     -0.028000
      3 C3          1.0210   -0.2620   -2.8760 c2        1 IZB      0.306000
      4 N4         -0.1180   -0.8960   -2.3530 ns        1 IZB     -0.874000
      5 S5          0.1790   -2.3980   -1.6930 s6        1 IZB      2.908000
      6 O6         -0.5570   -3.3560   -2.4150 o         1 IZB     -0.982500
      7 O7         -0.0860   -2.3280   -0.3050 o         1 IZB     -0.982500
      8 O9          1.0450    0.8480   -3.4050 o         1 IZB     -0.236000
      9 C11         0.6780   -3.1060    2.4140 c3        1 IZB     -0.188000
     10 C12        -0.6980   -2.9000    1.9720 c2        1 IZB      0.417000
     11 C13        -1.5400   -3.9230    1.6450 c1        1 IZB     -0.280000
     12 C14        -2.2260   -4.8310    1.2190 c1        1 IZB      0.162000
     13 C15         1.5130   -5.4420    2.6120 c2        1 IZB     -0.149000
     14 C16         0.9420   -4.3660    3.1500 c2        1 IZB     -0.223000
     15 C21        -2.9670   -5.8950    0.6320 c3        1 IZB     -0.132000
     16 C22        -2.0720   -6.7350   -0.3300 c3        1 IZB      0.125000
     17 N45        -1.2840   -5.9030   -1.1970 n7        1 IZB     -0.880000
     18 S1          0.3280   -5.9080   -1.2880 s6        1 IZB      2.848000
     19 O1          0.8130   -4.5720   -1.0430 o         1 IZB     -0.974500
     20 O2          0.8740   -6.8380   -0.3890 o         1 IZB     -0.974500
     21 C17        -4.7670  -10.7440   -4.2440 c2        1 IZB     -0.408000
     22 C19        -3.8010   -9.7480   -3.8820 c2        1 IZB     -0.107000
     23 C23        -3.7450   -9.0910   -2.7010 c2        1 IZB     -0.011000
     24 C4         -4.5880   -9.1990   -1.4650 c2        1 IZB     -0.056000
     25 C5         -5.6750   -9.9560   -1.2550 c2        1 IZB     -0.170000
     26 C6         -5.7860  -11.2350   -3.5610 c1        1 IZB      0.164000
     27 N11        -2.7900   -8.0630   -2.4140 na        1 IZB     -0.279000
     28 C25        -2.9830   -7.7180   -1.0540 c2        1 IZB      0.012000
     29 N13        -4.0290   -8.3060   -0.4800 n2        1 IZB     -0.181000
     30 C18         0.2960  -10.6080   -4.2270 c3        1 IZB     -0.030000
     31 O3         -0.2740   -9.4080   -4.7180 os        1 IZB     -0.251000
     32 C24         0.5250   -8.2470   -4.4750 c3        1 IZB      0.068000
     33 C26         1.9990   -8.4700   -4.2480 c2        1 IZB     -0.393000
     34 N5          2.5900   -9.6830   -4.5100 n3        1 IZB      0.150000
     35 C27         1.6870  -10.8020   -4.8330 c3        1 IZB     -0.119000
     36 C7         -0.0300   -7.4710   -3.3570 c1        1 IZB     -0.030000
     37 C8          0.6580   -6.2540   -2.9540 c3        1 IZB     -0.754000
     38 C9          2.1190   -6.2670   -3.2020 c2        1 IZB     -0.299000
     39 C10         2.7280   -7.3230   -3.7850 c2        1 IZB      0.017000
     40 H1          1.2680   -3.0780    1.4300 hc        1 IZB      0.185000
     41 H2C1        2.5220   -3.1400   -1.8050 h4        1 IZB      0.218000
     42 H2C2        3.1970   -0.8620   -3.0210 ha        1 IZB      0.197000
     43 H4         -0.9890   -0.4320   -2.4400 hn        1 IZB      0.277000
     44 H12         1.0360   -2.2230    3.0180 hc        1 IZB      0.185000
     45 H13        -1.0620   -1.8540    1.8500 ha        1 IZB      0.190000
     46 H15         1.8050   -5.5130    1.5520 ha        1 IZB      0.139500
     47 H16         0.6620   -4.3380    4.2170 ha        1 IZB      0.143000
     48 H211        1.7220   -6.3430    3.2070 ha        1 IZB      0.139500
     49 H212       -3.8590   -5.4900    0.0720 hc        1 IZB      0.176000
     50 H22        -3.3630   -6.5840    1.4380 hc        1 IZB      0.176000
     51 H45        -1.3630   -7.3600    0.3040 h1        1 IZB      0.152000
     52 H19        -3.0490   -9.5180   -4.6600 ha        1 IZB      0.147000
     53 H5         -6.1210  -10.6440   -2.0090 ha        1 IZB      0.159000
     54 H6         -6.2190   -9.9450   -0.3000 ha        1 IZB      0.159000
     55 H11        -1.8760   -8.0750   -2.8370 hn        1 IZB      0.280000
     56 H181        0.3360  -10.5970   -3.1070 h1        1 IZB      0.119500
     57 H182       -0.3940  -11.4180   -4.5860 h1        1 IZB      0.119500
     58 H271        2.1350  -11.7610   -4.4490 h1        1 IZB      0.136000
     59 H272        1.6050  -10.8550   -5.9560 h1        1 IZB      0.136000
     60 H7          0.3820   -7.6430   -5.4330 h1        1 IZB      0.146000
     61 H9          0.1980   -5.4260   -3.5980 h1        1 IZB      0.233000
     62 H10         2.6750   -5.3650   -2.9130 ha        1 IZB      0.142000
     63 H201        3.8250   -7.3030   -3.9080 ha        1 IZB      0.136000
     64 H202        4.2640  -10.9350   -4.6650 h4        1 IZB      0.166500
     65 H203        4.6070   -9.1270   -4.2380 h4        1 IZB      0.166500
     66 C20         3.8850   -9.9220   -4.4670 c2        1 IZB     -0.255000
     67 H452       -1.8240   -5.3620   -1.8400 hn        1 IZB      0.274000
     68 H17        -4.6400  -11.1660   -5.2680 ha        1 IZB      0.193000
@<TRIPOS>BOND
     1    1    2 1   
     2    1    5 1   
     3    1   41 1   
     4    2    3 1   
     5    2   42 1   
     6    3    4 1   
     7    3    8 1   
     8    4    5 1   
     9    4   43 1   
    10    5    6 1   
    11    5    7 1   
    12    9   10 1   
    13    9   14 1   
    14    9   40 1   
    15    9   44 1   
    16   10   11 1   
    17   10   45 1   
    18   11   12 1   
    19   12   15 1   
    20   13   14 1   
    21   13   46 1   
    22   13   48 1   
    23   14   47 1   
    24   15   16 1   
    25   15   49 1   
    26   15   50 1   
    27   16   17 1   
    28   16   28 1   
    29   16   51 1   
    30   17   18 1   
    31   17   67 1   
    32   18   19 1   
    33   18   20 1   
    34   18   37 1   
    35   21   22 1   
    36   21   26 1   
    37   21   68 1   
    38   22   23 1   
    39   22   52 1   
    40   23   24 1   
    41   23   27 1   
    42   24   25 1   
    43   24   29 1   
    44   25   53 1   
    45   25   54 1   
    46   27   28 1   
    47   27   55 1   
    48   28   29 1   
    49   30   31 1   
    50   30   35 1   
    51   30   56 1   
    52   30   57 1   
    53   31   32 1   
    54   32   33 1   
    55   32   36 1   
    56   32   60 1   
    57   33   34 1   
    58   33   39 1   
    59   34   35 1   
    60   34   66 1   
    61   35   58 1   
    62   35   59 1   
    63   36   37 1   
    64   37   38 1   
    65   37   61 1   
    66   38   39 1   
    67   38   62 1   
    68   39   63 1   
    69   64   66 1   
    70   65   66 1   
@<TRIPOS>SUBSTRUCTURE
     1 IZB         1 TEMP              0 ****  ****    0 ROOT
