@<TRIPOS>MOLECULE
IZB
   67    61     1     0     0
SMALL
bcc


@<TRIPOS>ATOM
      1 C1          1.0220    5.2220    3.3520 c3        1 IZB     -0.702000
      2 C2          1.3610    5.0070    4.5930 c3        1 IZB     -0.165000
      3 C3         -0.0930    5.3030    5.4610 c2        1 IZB      0.307000
      4 N4         -1.1020    6.0020    4.4880 n         1 IZB     -0.869000
      5 S5         -0.3850    6.4400    3.4380 s6        1 IZB      2.779000
      6 O6          0.0890    7.7940    3.6350 o         1 IZB     -0.910000
      7 O7         -1.1740    6.3700    2.2420 o         1 IZB     -0.910000
      8 O9         -0.2990    5.0310    6.6500 o         1 IZB     -0.292000
      9 C11         0.3950    3.9460    2.9110 c2        1 IZB     -0.068000
     10 C12         0.0080    3.7810    1.5630 c1        1 IZB     -0.106000
     11 C13        -0.5280    2.5660    1.1350 c1        1 IZB     -0.125000
     12 C14        -0.6820    1.5190    2.0350 c1        1 IZB     -0.070000
     13 C15        -0.2960    1.6830    3.3790 c1        1 IZB     -0.109000
     14 C16         0.2420    2.9020    3.8090 c2        1 IZB     -0.100000
     15 C21        -1.4310    0.2130    1.5920 c3        1 IZB     -0.134000
     16 C22        -0.4200   -0.8380    1.1770 c3        1 IZB      0.110000
     17 N45        -0.3320   -0.8740   -0.2370 n3        1 IZB     -0.885000
     18 S1          1.0910   -0.4860   -0.9870 s4        1 IZB      2.081800
     19 O1          1.3740    0.9170   -0.8730 o         1 IZB     -0.541900
     20 O2          2.2380   -1.0670   -0.2800 o         1 IZB     -0.541900
     21 C17        -2.4080   -5.9660    3.7980 c1        1 IZB     -0.134000
     22 C19        -2.4340   -5.3280    2.5700 c1        1 IZB     -0.064667
     23 C23        -1.7630   -4.1040    2.3990 c1        1 IZB     -0.325667
     24 C4         -1.0870   -3.5480    3.4420 c1        1 IZB     -0.325667
     25 C5         -1.0600   -4.1940    4.6860 c1        1 IZB     -0.064667
     26 C6         -1.7210   -5.4000    4.8560 c1        1 IZB     -0.134000
     27 N11        -1.6250   -3.2760    1.3210 n1        1 IZB     -0.182000
     28 C25        -0.8650   -2.2140    1.7000 c2        1 IZB     -0.016000
     29 N13        -0.5320   -2.3800    3.0090 n1        1 IZB     -0.182000
     30 C18         0.4520   -0.0010   -7.4180 c3        1 IZB     -0.032000
     31 O3          0.2380    0.4070   -6.1940 os        1 IZB     -0.206000
     32 C24         0.6670   -0.5020   -5.0840 c2        1 IZB     -0.023000
     33 C26         1.1460   -1.8410   -5.4500 c2        1 IZB      0.106000
     34 N5          0.9990   -2.2520   -6.8620 n3        1 IZB     -0.258000
     35 C27         0.3090   -1.4370   -7.6640 c3        1 IZB     -0.070000
     36 C7          0.6310   -0.1190   -3.7390 c1        1 IZB     -0.007000
     37 C8          1.0530   -1.0170   -2.7380 c1        1 IZB     -0.325667
     38 C9          1.5220   -2.3280   -3.0970 c1        1 IZB     -0.064667
     39 C10         1.5610   -2.7210   -4.4620 c1        1 IZB     -0.196000
     40 C20         2.3020   -2.4900   -7.4250 c3        1 IZB     -0.085000
     41 H1          1.7310    5.3730    2.6920 h1        1 IZB      0.166000
     42 H2C1        1.7270    4.0850    4.7400 hc        1 IZB      0.146000
     43 H2C2        2.1180    5.5830    4.8960 hc        1 IZB      0.146000
     44 H4         -1.9900    6.2430    4.6910 hn        1 IZB      0.272000
     45 H12         0.1180    4.5300    0.9200 ha        1 IZB      0.136000
     46 H13        -0.7990    2.4510    0.1910 ha        1 IZB      0.133000
     47 H15        -0.4040    0.9460    4.0130 ha        1 IZB      0.146000
     48 H16         0.5090    3.0160    4.7370 ha        1 IZB      0.146000
     49 H211       -2.0320    0.4170    0.8220 hc        1 IZB      0.109000
     50 H212       -1.9670   -0.1280    2.3460 hc        1 IZB      0.109000
     51 H22         0.4880   -0.6060    1.5670 h1        1 IZB      0.151000
     52 H45        -1.0630   -1.0530   -0.7270 hn        1 IZB      0.236000
     53 H17        -2.8820   -6.8300    3.9180 ha        1 IZB      0.132500
     54 H19        -2.9140   -5.7220    1.8320 ha        1 IZB      0.147667
     55 H5         -0.5610   -3.7830    5.4520 ha        1 IZB      0.147667
     56 H6         -1.7010   -5.8590    5.7400 ha        1 IZB      0.132500
     57 H11        -1.9410   -3.4370    0.4720 DU        1 IZB      0.255000
     58 H181        1.3510    0.2430   -7.6500 h1        1 IZB      0.109000
     59 H182       -0.2030    0.4680   -8.0070 h1        1 IZB      0.109000
     60 H271        0.6100   -1.6080   -8.5840 h1        1 IZB      0.094500
     61 H272       -0.6110   -1.6520   -7.5670 h1        1 IZB      0.094500
     62 H7          0.3690    0.8050   -3.4960 ha        1 IZB      0.165000
     63 H9          1.8910   -2.9280   -2.4000 ha        1 IZB      0.147667
     64 H10         1.8850   -3.6300   -4.7100 ha        1 IZB      0.147000
     65 H201        2.9140   -1.7670   -7.1520 h1        1 IZB      0.086333
     66 H202        2.2380   -2.5110   -8.3760 h1        1 IZB      0.086333
     67 H203        2.6530   -3.3670   -7.0940 h1        1 IZB      0.086333
@<TRIPOS>BOND
     1    1    2 1   
     2    1    5 1   
     3    1    9 1   
     4    1   41 1   
     5    2    3 1   
     6    2   42 1   
     7    2   43 1   
     8    3    4 1   
     9    3    8 1   
    10    4    5 1   
    11    4   44 1   
    12    5    6 1   
    13    5    7 1   
    14    9   10 1   
    15    9   14 1   
    16   10   45 1   
    17   11   12 1   
    18   11   46 1   
    19   12   15 1   
    20   13   14 1   
    21   13   47 1   
    22   14   48 1   
    23   15   16 1   
    24   15   49 1   
    25   15   50 1   
    26   16   17 1   
    27   16   28 1   
    28   16   51 1   
    29   17   18 1   
    30   17   52 1   
    31   18   19 1   
    32   18   20 1   
    33   21   26 1   
    34   21   53 1   
    35   22   23 1   
    36   22   54 1   
    37   24   25 1   
    38   25   55 1   
    39   26   56 1   
    40   27   28 1   
    41   28   29 1   
    42   30   31 1   
    43   30   35 1   
    44   30   58 1   
    45   30   59 1   
    46   31   32 1   
    47   32   33 1   
    48   32   36 1   
    49   33   34 1   
    50   33   39 1   
    51   34   35 1   
    52   34   40 1   
    53   35   60 1   
    54   35   61 1   
    55   36   62 1   
    56   37   38 1   
    57   38   63 1   
    58   39   64 1   
    59   40   65 1   
    60   40   66 1   
    61   40   67 1   
@<TRIPOS>SUBSTRUCTURE
     1 IZB         1 TEMP              0 ****  ****    0 ROOT
