@<TRIPOS>MOLECULE
IZB
   67    72     1     0     0
SMALL
bcc


@<TRIPOS>ATOM
      1 C1         -5.8150    0.6180   -0.6960 c3        1 IZB     -0.193600
      2 C2         -5.6780    1.9900   -0.0430 c3        1 IZB     -0.136400
      3 C3         -6.9600    2.2790    0.7240 c         1 IZB      0.699500
      4 N4         -7.7920    1.1530    0.7680 n         1 IZB     -0.690300
      5 S5         -7.2280   -0.1890    0.0090 s6        1 IZB      1.427600
      6 O6         -8.0780   -0.5800   -1.0310 o         1 IZB     -0.630800
      7 O7         -6.8840   -1.1740    0.9360 o         1 IZB     -0.630800
      8 O9         -7.2470    3.3570    1.2500 o         1 IZB     -0.568500
      9 C11        -4.5510   -0.1580   -0.6320 ca        1 IZB     -0.077300
     10 C12        -3.8810   -0.4910   -1.8160 ca        1 IZB     -0.103000
     11 C13        -2.6750   -1.1880   -1.7710 ca        1 IZB     -0.118000
     12 C14        -2.1170   -1.5600   -0.5440 ca        1 IZB     -0.079300
     13 C15        -2.7950   -1.2390    0.6390 ca        1 IZB     -0.118000
     14 C16        -3.9980   -0.5420    0.5970 ca        1 IZB     -0.103000
     15 C21        -0.8360   -2.3150   -0.4940 c3        1 IZB     -0.043100
     16 C22         0.3170   -1.4660    0.0850 c3        1 IZB      0.239200
     17 N45         0.5340   -0.2400   -0.6330 n3        1 IZB     -0.918100
     18 S1          0.5260    1.2530    0.0110 sy        1 IZB      1.524200
     19 O1          0.0320    2.1490   -0.9580 o         1 IZB     -0.651800
     20 O2         -0.1110    1.2340    1.2700 o         1 IZB     -0.651800
     21 C17         5.7450   -4.1100    0.5840 ca        1 IZB     -0.113000
     22 C19         5.1520   -2.8570    0.5730 ca        1 IZB     -0.136000
     23 C23         3.7620   -2.8050    0.4050 ca        1 IZB     -0.072200
     24 C4          2.9740   -4.0160    0.2470 ca        1 IZB      0.064400
     25 C5          3.6160   -5.2630    0.2660 ca        1 IZB     -0.067000
     26 C6          4.9920   -5.2900    0.4340 ca        1 IZB     -0.154000
     27 N11         2.8520   -1.7490    0.3560 na        1 IZB     -0.276300
     28 C25         1.5750   -2.3240    0.1560 cc        1 IZB      0.385800
     29 N13         1.6180   -3.6710    0.0930 nd        1 IZB     -0.565100
     30 C18         6.4100    2.6900   -1.5960 c3        1 IZB      0.118400
     31 O3          4.9920    2.8380   -1.6840 os        1 IZB     -0.316900
     32 C24         4.3030    2.3250   -0.5930 ca        1 IZB      0.030100
     33 C26         4.9080    2.1760    0.6910 ca        1 IZB      0.176600
     34 N5          6.2780    2.3950    0.8530 nh        1 IZB     -0.651000
     35 C27         6.9390    3.1110   -0.2220 c3        1 IZB      0.161800
     36 C7          2.9620    2.0200   -0.8060 ca        1 IZB     -0.008000
     37 C8          2.1630    1.5610    0.2490 ca        1 IZB     -0.427500
     38 C9          2.7430    1.4300    1.5170 ca        1 IZB     -0.015000
     39 C10         4.0780    1.7260    1.7460 ca        1 IZB     -0.199000
     40 H1         -6.0590    0.7850   -1.7880 h1        1 IZB      0.126700
     41 H2C1       -4.8160    2.0210    0.6740 hc        1 IZB      0.106700
     42 H2C2       -5.5160    2.7950   -0.8030 hc        1 IZB      0.106700
     43 H4         -8.6540    1.2390    1.2510 hn        1 IZB      0.357500
     44 H12        -4.3020   -0.1990   -2.7910 ha        1 IZB      0.141000
     45 H13        -2.1620   -1.4440   -2.7100 ha        1 IZB      0.139500
     46 H15        -2.3720   -1.5370    1.6110 ha        1 IZB      0.139500
     47 H16        -4.5270   -0.3140    1.5360 ha        1 IZB      0.141000
     48 H211       -0.5560   -2.6810   -1.5170 hc        1 IZB      0.078700
     49 H212       -0.9690   -3.2160    0.1640 hc        1 IZB      0.078700
     50 H22         0.0440   -1.2000    1.1570 h1        1 IZB      0.093700
     51 H45         0.6120   -0.3690   -1.6150 hn        1 IZB      0.450800
     52 H17         6.8350   -4.1890    0.7140 ha        1 IZB      0.131000
     53 H19         5.7450   -1.9420    0.6910 ha        1 IZB      0.136000
     54 H5          3.0340   -6.1890    0.1510 ha        1 IZB      0.148000
     55 H6          5.5150   -6.2570    0.4520 ha        1 IZB      0.133000
     56 H11         3.0710   -0.7870    0.3780 hn        1 IZB      0.312700
     57 H181        6.8030    3.3750   -2.3930 h1        1 IZB      0.070700
     58 H182        6.6810    1.6270   -1.8260 h1        1 IZB      0.070700
     59 H271        6.8040    4.2240   -0.1030 h1        1 IZB      0.058700
     60 H272        8.0400    2.8790   -0.1710 h1        1 IZB      0.058700
     61 H7          2.5280    2.1760   -1.8090 ha        1 IZB      0.168000
     62 H9          2.1110    1.1020    2.3630 ha        1 IZB      0.161000
     63 H10         4.4850    1.6170    2.7630 ha        1 IZB      0.148000
     64 H201        6.2730    3.4530    2.7070 h1        1 IZB      0.048033
     65 H202        6.6710    1.6710    2.7760 h1        1 IZB      0.048033
     66 H203        7.8920    2.8520    2.1130 h1        1 IZB      0.048033
     67 C20         6.7980    2.6120    2.1770 c3        1 IZB      0.187100
@<TRIPOS>BOND
     1    1    2 1   
     2    1    5 1   
     3    1    9 1   
     4    1   40 1   
     5    2    3 1   
     6    2   41 1   
     7    2   42 1   
     8    3    4 1   
     9    3    8 2   
    10    4    5 1   
    11    4   43 1   
    12    5    6 2   
    13    5    7 2   
    14    9   10 ar  
    15    9   14 ar  
    16   10   11 ar  
    17   10   44 1   
    18   11   12 ar  
    19   11   45 1   
    20   12   13 ar  
    21   12   15 1   
    22   13   14 ar  
    23   13   46 1   
    24   14   47 1   
    25   15   16 1   
    26   15   48 1   
    27   15   49 1   
    28   16   17 1   
    29   16   28 1   
    30   16   50 1   
    31   17   18 1   
    32   17   51 1   
    33   18   19 2   
    34   18   20 2   
    35   18   37 1   
    36   21   22 ar  
    37   21   26 ar  
    38   21   52 1   
    39   22   23 ar  
    40   22   53 1   
    41   23   24 ar  
    42   23   27 1   
    43   24   25 ar  
    44   24   29 1   
    45   25   26 ar  
    46   25   54 1   
    47   26   55 1   
    48   27   28 1   
    49   27   56 1   
    50   28   29 2   
    51   30   31 1   
    52   30   35 1   
    53   30   57 1   
    54   30   58 1   
    55   31   32 1   
    56   32   33 ar  
    57   32   36 ar  
    58   33   34 1   
    59   33   39 ar  
    60   34   35 1   
    61   34   67 1   
    62   35   59 1   
    63   35   60 1   
    64   36   37 ar  
    65   36   61 1   
    66   37   38 ar  
    67   38   39 ar  
    68   38   62 1   
    69   39   63 1   
    70   64   67 1   
    71   65   67 1   
    72   66   67 1   
@<TRIPOS>SUBSTRUCTURE
     1 IZB         1 TEMP              0 ****  ****    0 ROOT
