@<TRIPOS>MOLECULE
IZB
   68    71     1     0     0
SMALL
bcc


@<TRIPOS>ATOM
      1 C1          0.1250   -0.8040    0.5800 c3        1 IZB     -0.757000
      2 C2          0.9100   -0.2880   -0.6150 c3        1 IZB     -0.180000
      3 C3          1.8840    0.7810   -0.1390 c2        1 IZB      0.315000
      4 N4          1.8000    0.9750    1.2500 n         1 IZB     -0.876000
      5 S5          0.7290    0.0550    2.0450 s6        1 IZB      2.809000
      6 O6         -0.3460    0.7740    2.5530 o         1 IZB     -0.900000
      7 O7          1.3270   -0.8800    2.8870 o         1 IZB     -0.900000
      8 O9          2.6560    1.4030   -0.8680 o         1 IZB     -0.252000
      9 C11         0.1460   -2.3180    0.7260 c3        1 IZB     -0.078000
     10 C12        -0.6570   -2.9530   -0.3460 c2        1 IZB      0.369000
     11 C13        -1.3590   -4.0980   -0.1960 c1        1 IZB     -0.260000
     12 C14        -1.9070   -5.1900   -0.2380 c1        1 IZB      0.206000
     13 C15         2.0840   -3.5250   -0.3300 c2        1 IZB     -0.190000
     14 C16         1.5360   -2.8910    0.7040 c2        1 IZB     -0.197000
     15 C21        -2.4970   -6.4660   -0.4280 c3        1 IZB     -0.147000
     16 C22        -2.0110   -7.1180   -1.7640 c3        1 IZB      0.139000
     17 N45        -2.0690   -6.2250   -2.8840 n3        1 IZB     -0.872000
     18 S1         -0.8350   -5.4280   -3.5760 s6        1 IZB      2.816000
     19 O1         -1.2790   -4.8110   -4.7550 o         1 IZB     -0.948500
     20 O2         -0.2900   -4.5270   -2.6150 o         1 IZB     -0.948500
     21 C17        -4.7090  -12.2690   -3.9600 c2        1 IZB     -0.412000
     22 C19        -3.9440  -11.0630   -4.0770 c2        1 IZB     -0.091000
     23 C23        -3.6630  -10.2000   -3.0740 c2        1 IZB     -0.021000
     24 C4         -4.0340  -10.2200   -1.6210 c2        1 IZB     -0.061000
     25 C5         -4.7790  -11.1140   -0.9550 c2        1 IZB     -0.166000
     26 C6         -5.2990  -12.8100   -2.9090 c1        1 IZB      0.170000
     27 N11        -2.9380   -8.9750   -3.2660 na        1 IZB     -0.259000
     28 C25        -2.8050   -8.4020   -1.9720 c2        1 IZB      0.006000
     29 N13        -3.4520   -9.0500   -1.0100 n2        1 IZB     -0.175000
     30 C18         0.2480  -11.3220   -3.5480 c3        1 IZB     -0.024000
     31 O3         -0.2340  -10.2390   -4.3220 os        1 IZB     -0.263000
     32 C24         0.6240   -9.0840   -4.3540 c3        1 IZB      0.061000
     33 C26         1.7690   -9.0920   -3.3830 c2        1 IZB     -0.402000
     34 N5          2.4560  -10.2700   -3.1790 n3        1 IZB      0.140000
     35 C27         1.7650  -11.4760   -3.6650 c3        1 IZB     -0.119000
     36 C7         -0.2310   -7.8950   -4.2490 c1        1 IZB     -0.010000
     37 C8          0.3800   -6.6020   -3.9770 c3        1 IZB     -0.773000
     38 C9          1.4950   -6.6910   -3.0020 c2        1 IZB     -0.298000
     39 C10         2.1380   -7.8540   -2.7660 c2        1 IZB      0.005000
     40 H1          1.5020   -1.1030   -1.1110 hc        1 IZB      0.144500
     41 H2C1       -0.9510   -0.4900    0.4600 h1        1 IZB      0.165000
     42 H2C2        0.2380    0.1690   -1.3880 hc        1 IZB      0.144500
     43 H4          2.3980    1.6660    1.6440 hn        1 IZB      0.291000
     44 H12        -0.2980   -2.5790    1.7390 hc        1 IZB      0.163000
     45 H13        -0.6540   -2.4810   -1.3600 ha        1 IZB      0.209000
     46 H15         1.5730   -3.7060   -1.2900 ha        1 IZB      0.144000
     47 H16         2.0740   -2.7360    1.6610 ha        1 IZB      0.191000
     48 H211        3.1110   -3.9190   -0.2740 ha        1 IZB      0.144000
     49 H212       -2.2550   -7.1640    0.4260 hc        1 IZB      0.188000
     50 H22        -3.6250   -6.3500   -0.4500 hc        1 IZB      0.188000
     51 H45        -0.9280   -7.4290   -1.6090 h1        1 IZB      0.123000
     52 H19        -3.5680  -10.8460   -5.0950 ha        1 IZB      0.146000
     53 H5         -5.2400  -12.0190   -1.4110 ha        1 IZB      0.160500
     54 H6         -4.9980  -11.0070    0.1180 ha        1 IZB      0.160500
     55 H11        -2.1790   -8.9370   -3.9200 hn        1 IZB      0.273000
     56 H181       -0.0590  -11.1810   -2.4780 h1        1 IZB      0.116000
     57 H182       -0.2610  -12.2280   -3.9780 h1        1 IZB      0.116000
     58 H271        2.1040  -12.3700   -3.0710 h1        1 IZB      0.137500
     59 H272        2.0520  -11.6210   -4.7460 h1        1 IZB      0.137500
     60 H7          1.0310   -9.0660   -5.4240 h1        1 IZB      0.139000
     61 H9          0.8340   -6.2650   -4.9740 h1        1 IZB      0.223000
     62 H10         1.8000   -5.7520   -2.5190 ha        1 IZB      0.150000
     63 H201        2.9710   -7.8570   -2.0410 ha        1 IZB      0.132000
     64 H202        4.1820   -9.5010   -2.2510 h4        1 IZB      0.168000
     65 H203        4.0620  -11.3810   -2.4180 h4        1 IZB      0.168000
     66 C20         3.6230  -10.3860   -2.5840 c2        1 IZB     -0.244000
     67 H452       -2.9460   -6.2520   -3.3650 hn        1 IZB      0.273000
     68 H17        -4.8320  -12.8380   -4.9120 ha        1 IZB      0.198000
@<TRIPOS>BOND
     1    1    2 1   
     2    1    5 1   
     3    1    9 1   
     4    1   41 1   
     5    2    3 1   
     6    2   40 1   
     7    2   42 1   
     8    3    4 1   
     9    3    8 1   
    10    4    5 1   
    11    4   43 1   
    12    5    6 1   
    13    5    7 1   
    14    9   10 1   
    15    9   14 1   
    16    9   44 1   
    17   10   11 1   
    18   10   45 1   
    19   11   12 1   
    20   12   15 1   
    21   13   14 1   
    22   13   46 1   
    23   13   48 1   
    24   14   47 1   
    25   15   16 1   
    26   15   49 1   
    27   15   50 1   
    28   16   17 1   
    29   16   28 1   
    30   16   51 1   
    31   17   18 1   
    32   17   67 1   
    33   18   19 1   
    34   18   20 1   
    35   18   37 1   
    36   21   22 1   
    37   21   26 1   
    38   21   68 1   
    39   22   23 1   
    40   22   52 1   
    41   23   24 1   
    42   23   27 1   
    43   24   25 1   
    44   24   29 1   
    45   25   53 1   
    46   25   54 1   
    47   27   28 1   
    48   27   55 1   
    49   28   29 1   
    50   30   31 1   
    51   30   35 1   
    52   30   56 1   
    53   30   57 1   
    54   31   32 1   
    55   32   33 1   
    56   32   36 1   
    57   32   60 1   
    58   33   34 1   
    59   33   39 1   
    60   34   35 1   
    61   34   66 1   
    62   35   58 1   
    63   35   59 1   
    64   36   37 1   
    65   37   38 1   
    66   37   61 1   
    67   38   39 1   
    68   38   62 1   
    69   39   63 1   
    70   64   66 1   
    71   65   66 1   
@<TRIPOS>SUBSTRUCTURE
     1 IZB         1 TEMP              0 ****  ****    0 ROOT
