@<TRIPOS>MOLECULE
IZC
   14    14     1     0     0
SMALL
bcc


@<TRIPOS>ATOM
      1 O1          2.8550   -0.1070   -0.4400 o         1 IZC     -0.835800
      2 O2          1.3510   -1.0330   -1.8070 o         1 IZC     -0.835800
      3 N1         -2.3940    0.3810   -0.8570 n2        1 IZC     -0.617900
      4 N3         -1.2980    0.3040    1.2970 n2        1 IZC     -0.626900
      5 C2         -2.5220    0.7410    0.5810 c3        1 IZC      0.205000
      6 C4         -0.5260   -0.2470    0.3860 ce        1 IZC      0.351000
      7 C5         -1.2280   -0.1910   -0.9720 ce        1 IZC      0.325900
      8 C6          0.8020   -0.8690    0.5450 c3        1 IZC     -0.247700
      9 C7          1.7360   -0.6390   -0.6690 c         1 IZC      0.917600
     10 H5         -0.7410   -0.5780   -1.8810 h4        1 IZC      0.104800
     11 H61         0.6570   -1.9770    0.6460 hc        1 IZC      0.055200
     12 H62         1.3140   -0.4940    1.4690 hc        1 IZC      0.055200
     13 H21        -3.4200    0.2310    1.0210 h2        1 IZC      0.074700
     14 H22        -2.6390    1.8540    0.6780 h2        1 IZC      0.074700
@<TRIPOS>BOND
     1    1    9 1   
     2    2    9 1   
     3    3    5 1   
     4    3    7 2   
     5    4    5 1   
     6    4    6 2   
     7    5   13 1   
     8    5   14 1   
     9    6    7 1   
    10    6    8 1   
    11    7   10 1   
    12    8    9 1   
    13    8   11 1   
    14    8   12 1   
@<TRIPOS>SUBSTRUCTURE
     1 IZC         1 TEMP              0 ****  ****    0 ROOT
