@<TRIPOS>MOLECULE
IZC
   14    11     1     0     0
SMALL
bcc


@<TRIPOS>ATOM
      1 O1         -2.0220   -1.3570    1.8530 o         1 IZC     -0.570500
      2 O2         -0.1330   -1.3570    2.9430 o         1 IZC     -0.570500
      3 N1          0.2230    1.1670   -1.9970 n1        1 IZC     -0.205000
      4 N3          0.5380    1.0760    0.2910 n1        1 IZC     -0.214000
      5 C2          0.9170    1.9700   -0.8930 c1        1 IZC     -0.124000
      6 C4         -0.2110    0.0110   -0.1280 c1        1 IZC     -0.012000
      7 C5         -0.3960    0.0650   -1.4780 c1        1 IZC     -0.091000
      8 C6         -0.0060   -1.3570    0.5430 c3        1 IZC     -0.201000
      9 C7         -0.7630   -1.3570    1.8530 c2        1 IZC      0.337000
     10 H21         0.6230    2.8830   -0.7150 ha        1 IZC      0.114000
     11 H22         1.8690    2.0800   -1.0770 ha        1 IZC      0.114000
     12 H5         -1.2310   -0.2560   -1.8690 ha        1 IZC      0.234000
     13 H61        -0.3510   -2.0630   -0.0370 hc        1 IZC      0.094500
     14 H62         0.9440   -1.5030    0.7110 hc        1 IZC      0.094500
@<TRIPOS>BOND
     1    1    9 1   
     2    2    9 1   
     3    3    7 1   
     4    4    6 1   
     5    5   10 1   
     6    5   11 1   
     7    6    8 1   
     8    7   12 1   
     9    8    9 1   
    10    8   13 1   
    11    8   14 1   
@<TRIPOS>SUBSTRUCTURE
     1 IZC         1 TEMP              0 ****  ****    0 ROOT
