@<TRIPOS>MOLECULE
IZC
   14    14     1     0     0
SMALL
bcc


@<TRIPOS>ATOM
      1 O1          0.3370    0.3840    0.1040 o         1 IZC     -0.835800
      2 O2          1.5410    1.7940   -1.1420 o         1 IZC     -0.835800
      3 N1          5.5380    0.9470   -0.6620 n2        1 IZC     -0.617900
      4 N3          4.5130   -1.2370   -0.4940 n2        1 IZC     -0.626900
      5 C2          5.7860   -0.4870   -0.3540 c3        1 IZC      0.205000
      6 C4          3.6090   -0.3470   -0.8400 ce        1 IZC      0.351000
      7 C5          4.2670    1.0300   -0.9410 ce        1 IZC      0.325900
      8 C6          2.1750   -0.5420   -1.1300 c3        1 IZC     -0.247700
      9 C7          1.2910    0.6450   -0.6760 c         1 IZC      0.917600
     10 H5          3.6790    1.9260   -1.1940 h4        1 IZC      0.104800
     11 H61         2.0560   -0.6370   -2.2420 hc        1 IZC      0.055200
     12 H62         1.7930   -1.4800   -0.6520 hc        1 IZC      0.055200
     13 H21         6.5490   -0.9010   -1.0660 h2        1 IZC      0.074700
     14 H22         6.1660   -0.5820    0.6990 h2        1 IZC      0.074700
@<TRIPOS>BOND
     1    1    9 1   
     2    2    9 1   
     3    3    5 1   
     4    3    7 2   
     5    4    5 1   
     6    4    6 2   
     7    5   13 1   
     8    5   14 1   
     9    6    7 1   
    10    6    8 1   
    11    7   10 1   
    12    8    9 1   
    13    8   11 1   
    14    8   12 1   
@<TRIPOS>SUBSTRUCTURE
     1 IZC         1 TEMP              0 ****  ****    0 ROOT
