@<TRIPOS>MOLECULE
IZC
   14    14     1     0     0
SMALL
bcc


@<TRIPOS>ATOM
      1 O1          0.2570    0.3100   -0.2070 o         1 IZC     -0.835800
      2 O2          1.5420    1.7540   -1.3270 o         1 IZC     -0.835800
      3 N1          5.4930    0.9900   -0.4760 n2        1 IZC     -0.617900
      4 N3          4.5060   -1.2160   -0.4140 n2        1 IZC     -0.626900
      5 C2          5.7430   -0.4400   -0.1510 c3        1 IZC      0.205000
      6 C4          3.6190   -0.3440   -0.8400 ce        1 IZC      0.351000
      7 C5          4.2530    1.0470   -0.8740 ce        1 IZC      0.325900
      8 C6          2.2240   -0.5690   -1.2650 c3        1 IZC     -0.247700
      9 C7          1.2740    0.5960   -0.8920 c         1 IZC      0.917600
     10 H5          3.6710    1.9320   -1.1780 h4        1 IZC      0.104800
     11 H61         1.8180   -1.5180   -0.8290 hc        1 IZC      0.055200
     12 H62         2.2120   -0.6590   -2.3840 hc        1 IZC      0.055200
     13 H21         6.5790   -0.8340   -0.7890 h2        1 IZC      0.074700
     14 H22         6.0240   -0.5330    0.9330 h2        1 IZC      0.074700
@<TRIPOS>BOND
     1    1    9 1   
     2    2    9 1   
     3    3    5 1   
     4    3    7 2   
     5    4    5 1   
     6    4    6 2   
     7    5   13 1   
     8    5   14 1   
     9    6    7 1   
    10    6    8 1   
    11    7   10 1   
    12    8    9 1   
    13    8   11 1   
    14    8   12 1   
@<TRIPOS>SUBSTRUCTURE
     1 IZC         1 TEMP              0 ****  ****    0 ROOT
