@<TRIPOS>MOLECULE
IZD
   60    62     1     0     0
SMALL
bcc


@<TRIPOS>ATOM
      1 C1         -3.8290    1.0350   -3.0940 c3        1 IZD     -0.190600
      2 C2         -3.2910    0.8940   -4.5140 c3        1 IZD     -0.136400
      3 C3         -4.3900    0.2960   -5.3800 c         1 IZD      0.698500
      4 N4         -5.6040    0.2230   -4.6840 n         1 IZD     -0.690300
      5 S5         -5.5810    0.7820   -3.1420 s6        1 IZD      1.429600
      6 O6         -5.9180   -0.2200   -2.2270 o         1 IZD     -0.637800
      7 O7         -6.3070    1.9760   -3.0410 o         1 IZD     -0.637800
      8 O9         -4.2520   -0.0780   -6.5470 o         1 IZD     -0.563500
      9 C11        -3.4030    2.3040   -2.4540 ca        1 IZD     -0.086300
     10 C12        -2.5850    2.2700   -1.3170 ca        1 IZD     -0.110000
     11 C13        -2.1680    3.4530   -0.7140 ca        1 IZD     -0.121000
     12 C14        -2.5600    4.6930   -1.2350 ca        1 IZD     -0.066300
     13 C15        -3.3770    4.7270   -2.3710 ca        1 IZD     -0.121000
     14 C16        -3.7900    3.5440   -2.9780 ca        1 IZD     -0.110000
     15 C21        -2.1000    5.9530   -0.5960 c3        1 IZD     -0.046100
     16 C22        -3.0510    6.4120    0.5240 c3        1 IZD      0.044700
     17 C25        -2.3720    7.5950    1.2650 c         1 IZD      0.638100
     18 O26        -1.3190    8.1110    0.8380 o         1 IZD     -0.624100
     19 N27        -2.9610    8.0360    2.4150 n         1 IZD     -0.666000
     20 N45        -4.3610    6.7620    0.0370 n         1 IZD     -0.554900
     21 C47        -5.4840    6.6880    0.8230 c         1 IZD      0.646100
     22 C48        -6.8360    7.0330    0.1420 c3        1 IZD      0.050700
     23 O49        -5.4250    6.3920    2.0350 o         1 IZD     -0.639100
     24 N51        -7.2140    6.0430   -0.8310 n         1 IZD     -0.564900
     25 C4         -7.8850    7.2140    1.2540 c3        1 IZD     -0.044100
     26 C5         -9.2200    7.5690    0.7080 ca        1 IZD     -0.089300
     27 C30        -9.4830    8.8750    0.2760 ca        1 IZD     -0.126500
     28 C31       -10.7400    9.2100   -0.2240 ca        1 IZD     -0.126000
     29 C6        -11.7450    8.2440   -0.2970 ca        1 IZD     -0.127000
     30 C33       -11.4890    6.9430    0.1330 ca        1 IZD     -0.126000
     31 C34       -10.2320    6.6050    0.6330 ca        1 IZD     -0.126500
     32 C67        -6.7960    6.0970   -2.1480 c         1 IZD      0.672100
     33 O70        -5.9130    6.9110   -2.5000 o         1 IZD     -0.647100
     34 C71        -7.4120    5.1230   -3.1170 c3        1 IZD     -0.185100
     35 H1         -3.4020    0.1840   -2.4830 h1        1 IZD      0.128700
     36 H2C1       -2.3920    0.2280   -4.5510 hc        1 IZD      0.105200
     37 H2C2       -2.9960    1.8880   -4.9430 hc        1 IZD      0.105200
     38 H4         -6.3830   -0.1590   -5.1630 hn        1 IZD      0.359500
     39 H12        -2.2670    1.3040   -0.8940 ha        1 IZD      0.137000
     40 H13        -1.5250    3.4140    0.1780 ha        1 IZD      0.149000
     41 H15        -3.7110    5.6950   -2.7830 ha        1 IZD      0.149000
     42 H16        -4.4510    3.5900   -3.8570 ha        1 IZD      0.137000
     43 H211       -1.0860    5.8090   -0.1340 hc        1 IZD      0.080700
     44 H212       -1.9950    6.7690   -1.3600 hc        1 IZD      0.080700
     45 H22        -3.1620    5.5690    1.2740 h1        1 IZD      0.084700
     46 H271       -2.5480    8.7780    2.9230 hn        1 IZD      0.323500
     47 H272       -3.7830    7.6070    2.7660 hn        1 IZD      0.323500
     48 H45        -4.4500    6.9930   -0.9300 hn        1 IZD      0.350500
     49 H48        -6.7020    8.0260   -0.3910 h1        1 IZD      0.087700
     50 H51        -7.9280    5.4050   -0.5720 hn        1 IZD      0.323500
     51 H4C1       -7.5140    8.0280    1.9330 hc        1 IZD      0.076200
     52 H4C2       -7.9420    6.2760    1.8700 hc        1 IZD      0.076200
     53 H30        -8.6930    9.6380    0.3350 ha        1 IZD      0.132500
     54 H31       -10.9400   10.2380   -0.5610 ha        1 IZD      0.134000
     55 H6        -12.7370    8.5100   -0.6910 ha        1 IZD      0.134000
     56 H33       -12.2810    6.1800    0.0810 ha        1 IZD      0.134000
     57 H34       -10.0380    5.5790    0.9800 ha        1 IZD      0.132500
     58 H711       -7.1550    5.4420   -4.1560 hc        1 IZD      0.080700
     59 H712       -6.9960    4.0970   -2.9390 hc        1 IZD      0.080700
     60 H713       -8.5230    5.0880   -3.0110 hc        1 IZD      0.080700
@<TRIPOS>BOND
     1    1    2 1   
     2    1    5 1   
     3    1    9 1   
     4    1   35 1   
     5    2    3 1   
     6    2   36 1   
     7    2   37 1   
     8    3    4 1   
     9    3    8 2   
    10    4    5 1   
    11    4   38 1   
    12    5    6 2   
    13    5    7 2   
    14    9   10 ar  
    15    9   14 ar  
    16   10   11 ar  
    17   10   39 1   
    18   11   12 ar  
    19   11   40 1   
    20   12   13 ar  
    21   12   15 1   
    22   13   14 ar  
    23   13   41 1   
    24   14   42 1   
    25   15   16 1   
    26   15   43 1   
    27   15   44 1   
    28   16   17 1   
    29   16   20 1   
    30   16   45 1   
    31   17   18 2   
    32   17   19 1   
    33   19   46 1   
    34   19   47 1   
    35   20   21 1   
    36   20   48 1   
    37   21   22 1   
    38   21   23 2   
    39   22   24 1   
    40   22   25 1   
    41   22   49 1   
    42   24   32 1   
    43   24   50 1   
    44   25   26 1   
    45   25   51 1   
    46   25   52 1   
    47   26   27 ar  
    48   26   31 ar  
    49   27   28 ar  
    50   27   53 1   
    51   28   29 ar  
    52   28   54 1   
    53   29   30 ar  
    54   29   55 1   
    55   30   31 ar  
    56   30   56 1   
    57   31   57 1   
    58   32   33 2   
    59   32   34 1   
    60   34   58 1   
    61   34   59 1   
    62   34   60 1   
@<TRIPOS>SUBSTRUCTURE
     1 IZD         1 TEMP              0 ****  ****    0 ROOT
