@<TRIPOS>MOLECULE
IZD
   63    65     1     0     0
SMALL
bcc


@<TRIPOS>ATOM
      1 C1         -0.5730   -1.7030    0.3510 c3        1 IZD     -0.202600
      2 C2          0.5920   -0.7820    0.7030 c3        1 IZD     -0.143400
      3 C3          1.7960   -1.6440    1.0480 c         1 IZD      0.689500
      4 N4          1.4950   -3.0280    0.9030 n         1 IZD     -0.719300
      5 S5          0.0430   -3.3720    0.3410 s6        1 IZD      1.450600
      6 O6         -0.7630   -4.1940    1.1180 o         1 IZD     -0.694300
      7 O7          0.0920   -3.8530   -1.0170 o         1 IZD     -0.694300
      8 O9          2.8980   -1.2460    1.4010 o         1 IZD     -0.459500
      9 C11        -1.2910   -1.3510   -0.8950 ca        1 IZD     -0.015300
     10 C12        -2.6950   -1.3720   -0.9040 ca        1 IZD     -0.100000
     11 C13        -3.3920   -1.2170   -2.1000 ca        1 IZD     -0.114500
     12 C14        -2.6950   -1.0370   -3.3020 ca        1 IZD     -0.188300
     13 C15        -1.3000   -0.8960   -3.2780 ca        1 IZD     -0.114500
     14 C16        -0.6050   -1.0500   -2.0810 ca        1 IZD     -0.100000
     15 C21        -3.4280   -0.9740   -4.5910 c3        1 IZD     -0.045100
     16 C22        -3.7860   -2.4050   -5.0760 c3        1 IZD      0.055500
     17 C25        -4.3680   -2.3540   -6.4930 c         1 IZD      0.511100
     18 O26        -3.9500   -2.9890   -7.4500 o         1 IZD     -0.363100
     19 N27        -5.5430   -1.4660   -6.7300 n4        1 IZD     -0.737400
     20 N45        -2.5960   -3.3320   -5.0210 n4        1 IZD     -0.684800
     21 C47        -2.7020   -4.4780   -4.0250 c         1 IZD      0.527100
     22 C48        -1.6750   -5.6120   -4.1750 c3        1 IZD      0.071500
     23 O49        -3.6040   -4.4390   -3.2120 o         1 IZD     -0.344100
     24 N51        -0.5190   -5.4700   -3.2390 n4        1 IZD     -0.703800
     25 C4         -2.4380   -6.9490   -3.9440 c3        1 IZD     -0.029100
     26 C5         -1.4950   -8.0930   -3.9850 ca        1 IZD     -0.212300
     27 C30        -1.1310   -8.6680   -5.2100 ca        1 IZD     -0.126000
     28 C31        -0.3200   -9.8010   -5.2380 ca        1 IZD     -0.105000
     29 C6          0.1290  -10.3710   -4.0440 ca        1 IZD     -0.064000
     30 C33        -0.2340   -9.8020   -2.8200 ca        1 IZD     -0.105000
     31 C34        -1.0430   -8.6690   -2.7870 ca        1 IZD     -0.126000
     32 C67         0.5840   -4.5630   -3.7700 c         1 IZD      0.646100
     33 O70         0.1870   -3.6940   -4.5400 o         1 IZD     -0.536100
     34 C71         1.9540   -4.8440   -3.2790 c3        1 IZD     -0.188100
     35 H1         -1.3120   -1.6320    1.2100 h1        1 IZD      0.162700
     36 H2C1        0.3500   -0.1400    1.5950 hc        1 IZD      0.129700
     37 H2C2        0.8650   -0.0860   -0.1320 hc        1 IZD      0.129700
     38 H4          2.1860   -3.6650    1.2390 hn        1 IZD      0.392500
     39 H12        -3.2560   -1.5090    0.0370 ha        1 IZD      0.176500
     40 H13        -4.4940   -1.2310   -2.0870 ha        1 IZD      0.156000
     41 H15        -0.7450   -0.6300   -4.1930 ha        1 IZD      0.156000
     42 H16         0.4920   -0.9350   -2.0790 ha        1 IZD      0.176500
     43 H211       -2.8160   -0.4430   -5.3700 hc        1 IZD      0.100700
     44 H212       -4.3900   -0.4100   -4.4440 hc        1 IZD      0.100700
     45 H22        -4.5830   -2.8230   -4.3760 hx        1 IZD      0.170700
     46 H271       -5.3000   -0.4820   -6.5360 hn        1 IZD      0.504800
     47 H272       -6.3390   -1.7370   -6.1340 hn        1 IZD      0.504800
     48 H45        -1.7600   -2.7700   -4.7330 hn        1 IZD      0.499300
     49 H48        -1.2520   -5.6320   -5.2280 hx        1 IZD      0.137700
     50 H51        -0.1330   -6.4250   -3.0800 hn        1 IZD      0.512800
     51 H4C1       -3.2030   -7.0410   -4.7620 hc        1 IZD      0.104200
     52 H4C2       -2.9830   -6.9100   -2.9610 hc        1 IZD      0.104200
     53 H30        -1.5110   -8.2480   -6.1550 ha        1 IZD      0.137000
     54 H31        -0.0500  -10.2610   -6.2040 ha        1 IZD      0.177500
     55 H6          0.7530  -11.2820   -4.0670 ha        1 IZD      0.184000
     56 H33         0.1000  -10.2680   -1.8770 ha        1 IZD      0.177500
     57 H34        -1.3740   -8.2680   -1.8160 ha        1 IZD      0.137000
     58 H711        2.0050   -4.6060   -2.1790 hc        1 IZD      0.139367
     59 H712        2.2480   -5.9140   -3.4380 hc        1 IZD      0.139367
     60 H713        2.6800   -4.1820   -3.8280 hc        1 IZD      0.139367
     61 H273       -5.8390   -1.5400   -7.7250 hn        1 IZD      0.504800
     62 H452       -2.3970   -3.7240   -5.9550 hn        1 IZD      0.499300
     63 H512       -0.8120   -5.1040   -2.3090 hn        1 IZD      0.512800
@<TRIPOS>BOND
     1    1    2 1   
     2    1    5 1   
     3    1    9 1   
     4    1   35 1   
     5    2    3 1   
     6    2   36 1   
     7    2   37 1   
     8    3    4 1   
     9    3    8 2   
    10    4    5 1   
    11    4   38 1   
    12    5    6 2   
    13    5    7 2   
    14    9   10 ar  
    15    9   14 ar  
    16   10   11 ar  
    17   10   39 1   
    18   11   12 ar  
    19   11   40 1   
    20   12   13 ar  
    21   12   15 1   
    22   13   14 ar  
    23   13   41 1   
    24   14   42 1   
    25   15   16 1   
    26   15   43 1   
    27   15   44 1   
    28   16   17 1   
    29   16   20 1   
    30   16   45 1   
    31   17   18 2   
    32   17   19 1   
    33   19   46 1   
    34   19   47 1   
    35   19   61 1   
    36   20   21 1   
    37   20   48 1   
    38   20   62 1   
    39   21   22 1   
    40   21   23 2   
    41   22   24 1   
    42   22   25 1   
    43   22   49 1   
    44   24   32 1   
    45   24   50 1   
    46   24   63 1   
    47   25   26 1   
    48   25   51 1   
    49   25   52 1   
    50   26   27 ar  
    51   26   31 ar  
    52   27   28 ar  
    53   27   53 1   
    54   28   29 ar  
    55   28   54 1   
    56   29   30 ar  
    57   29   55 1   
    58   30   31 ar  
    59   30   56 1   
    60   31   57 1   
    61   32   33 2   
    62   32   34 1   
    63   34   58 1   
    64   34   59 1   
    65   34   60 1   
@<TRIPOS>SUBSTRUCTURE
     1 IZD         1 TEMP              0 ****  ****    0 ROOT
