@<TRIPOS>MOLECULE
IZD
   63    65     1     0     0
SMALL
bcc


@<TRIPOS>ATOM
      1 C1         -0.5980   -1.6830    0.3430 c3        1 IZD     -0.202600
      2 C2          0.5650   -0.7600    0.6960 c3        1 IZD     -0.143400
      3 C3          1.7660   -1.6190    1.0550 c         1 IZD      0.689500
      4 N4          1.4670   -3.0040    0.9170 ns        1 IZD     -0.719300
      5 S5          0.0190   -3.3520    0.3480 s6        1 IZD      1.450600
      6 O6         -0.7920   -4.1690    1.1250 o         1 IZD     -0.694300
      7 O7          0.0770   -3.8420   -1.0070 o         1 IZD     -0.694300
      8 O9          2.8660   -1.2190    1.4120 o         1 IZD     -0.459500
      9 C11        -1.3080   -1.3400   -0.9100 ca        1 IZD     -0.015300
     10 C12        -2.7110   -1.3610   -0.9290 ca        1 IZD     -0.100000
     11 C13        -3.4010   -1.2150   -2.1300 ca        1 IZD     -0.114500
     12 C14        -2.6960   -1.0430   -3.3280 ca        1 IZD     -0.188300
     13 C15        -1.3020   -0.9010   -3.2960 ca        1 IZD     -0.114500
     14 C16        -0.6140   -1.0460   -2.0940 ca        1 IZD     -0.100000
     15 C21        -3.4210   -0.9890   -4.6230 c3        1 IZD     -0.045100
     16 C22        -3.7760   -2.4230   -5.1000 c3        1 IZD      0.055500
     17 C25        -4.3490   -2.3820   -6.5210 c         1 IZD      0.511100
     18 O26        -3.9250   -3.0230   -7.4710 o         1 IZD     -0.363100
     19 N27        -5.5230   -1.4960   -6.7710 nz        1 IZD     -0.737400
     20 N45        -2.5860   -3.3490   -5.0320 ny        1 IZD     -0.684800
     21 C47        -2.6970   -4.4890   -4.0290 c         1 IZD      0.527100
     22 C48        -1.6690   -5.6220   -4.1640 c3        1 IZD      0.071500
     23 O49        -3.6050   -4.4450   -3.2210 o         1 IZD     -0.344100
     24 N51        -0.5190   -5.4740   -3.2220 ny        1 IZD     -0.703800
     25 C4         -2.4330   -6.9590   -3.9290 c3        1 IZD     -0.029100
     26 C5         -1.4900   -8.1020   -3.9570 ca        1 IZD     -0.212300
     27 C30        -1.1170   -8.6850   -5.1760 ca        1 IZD     -0.126000
     28 C31        -0.3050   -9.8180   -5.1900 ca        1 IZD     -0.105000
     29 C6          0.1360  -10.3800   -3.9900 ca        1 IZD     -0.064000
     30 C33        -0.2340   -9.8030   -2.7720 ca        1 IZD     -0.105000
     31 C34        -1.0440   -8.6690   -2.7520 ca        1 IZD     -0.126000
     32 C67         0.5870   -4.5700   -3.7520 c         1 IZD      0.646100
     33 O70         0.1950   -3.7070   -4.5300 o         1 IZD     -0.536100
     34 C71         1.9540   -4.8470   -3.2510 c3        1 IZD     -0.188100
     35 H1         -1.3430   -1.6070    1.1960 h1        1 IZD      0.162700
     36 H2C1        0.8430   -0.0700   -0.1420 hc        1 IZD      0.129700
     37 H2C2        0.3170   -0.1110    1.5820 hc        1 IZD      0.129700
     38 H4          2.1560   -3.6390    1.2620 hn        1 IZD      0.392500
     39 H12        -3.2790   -1.4920    0.0100 ha        1 IZD      0.176500
     40 H13        -4.5030   -1.2290   -2.1240 ha        1 IZD      0.155500
     41 H15        -0.7410   -0.6410   -4.2090 ha        1 IZD      0.155500
     42 H16         0.4830   -0.9310   -2.0850 ha        1 IZD      0.176500
     43 H211       -2.8040   -0.4620   -5.4010 hc        1 IZD      0.100700
     44 H212       -4.3840   -0.4240   -4.4850 hc        1 IZD      0.100700
     45 H22        -4.5770   -2.8370   -4.4020 hx        1 IZD      0.170700
     46 H271       -6.3220   -1.7630   -6.1780 hn        1 IZD      0.504800
     47 H272       -5.8130   -1.5770   -7.7670 hn        1 IZD      0.504800
     48 H45        -1.7520   -2.7850   -4.7420 hn        1 IZD      0.499300
     49 H48        -1.2390   -5.6500   -5.2140 hx        1 IZD      0.137700
     50 H51        -0.1330   -6.4280   -3.0540 hn        1 IZD      0.512800
     51 H4C1       -3.1920   -7.0560   -4.7520 hc        1 IZD      0.104200
     52 H4C2       -2.9840   -6.9140   -2.9500 hc        1 IZD      0.104200
     53 H30        -1.4910   -8.2730   -6.1250 ha        1 IZD      0.137000
     54 H31        -0.0290  -10.2850   -6.1520 ha        1 IZD      0.177500
     55 H6          0.7610  -11.2900   -4.0020 ha        1 IZD      0.184000
     56 H33         0.0940  -10.2620   -1.8230 ha        1 IZD      0.177500
     57 H34        -1.3820   -8.2630   -1.7850 ha        1 IZD      0.137000
     58 H711        1.9970   -4.6020   -2.1520 hc        1 IZD      0.139367
     59 H712        2.2490   -5.9180   -3.4010 hc        1 IZD      0.139367
     60 H713        2.6830   -4.1890   -3.7990 hc        1 IZD      0.139367
     61 H273       -5.2810   -0.5100   -6.5830 hn        1 IZD      0.504800
     62 H452       -2.3810   -3.7470   -5.9620 hn        1 IZD      0.499300
     63 H512       -0.8190   -5.1020   -2.2960 hn        1 IZD      0.512800
@<TRIPOS>BOND
     1    1    2 1   
     2    1    5 1   
     3    1    9 1   
     4    1   35 1   
     5    2    3 1   
     6    2   36 1   
     7    2   37 1   
     8    3    4 1   
     9    3    8 2   
    10    4    5 1   
    11    4   38 1   
    12    5    6 2   
    13    5    7 2   
    14    9   10 ar  
    15    9   14 ar  
    16   10   11 ar  
    17   10   39 1   
    18   11   12 ar  
    19   11   40 1   
    20   12   13 ar  
    21   12   15 1   
    22   13   14 ar  
    23   13   41 1   
    24   14   42 1   
    25   15   16 1   
    26   15   43 1   
    27   15   44 1   
    28   16   17 1   
    29   16   20 1   
    30   16   45 1   
    31   17   18 2   
    32   17   19 1   
    33   19   46 1   
    34   19   47 1   
    35   19   61 1   
    36   20   21 1   
    37   20   48 1   
    38   20   62 1   
    39   21   22 1   
    40   21   23 2   
    41   22   24 1   
    42   22   25 1   
    43   22   49 1   
    44   24   32 1   
    45   24   50 1   
    46   24   63 1   
    47   25   26 1   
    48   25   51 1   
    49   25   52 1   
    50   26   27 ar  
    51   26   31 ar  
    52   27   28 ar  
    53   27   53 1   
    54   28   29 ar  
    55   28   54 1   
    56   29   30 ar  
    57   29   55 1   
    58   30   31 ar  
    59   30   56 1   
    60   31   57 1   
    61   32   33 2   
    62   32   34 1   
    63   34   58 1   
    64   34   59 1   
    65   34   60 1   
@<TRIPOS>SUBSTRUCTURE
     1 IZD         1 TEMP              0 ****  ****    0 ROOT
