@<TRIPOS>MOLECULE
IZD
   63    65     1     0     0
SMALL
bcc


@<TRIPOS>ATOM
      1 C1         -0.5600   -1.6820    0.3340 c3        1 IZD     -0.202600
      2 C2          0.6080   -0.7630    0.6800 c3        1 IZD     -0.143400
      3 C3          1.8090   -1.6260    1.0310 c         1 IZD      0.689500
      4 N4          1.5040   -3.0100    0.8930 n         1 IZD     -0.719300
      5 S5          0.0500   -3.3520    0.3340 s6        1 IZD      1.450600
      6 O6         -0.7580   -4.1670    1.1160 o         1 IZD     -0.694300
      7 O7          0.0970   -3.8420   -1.0220 o         1 IZD     -0.694300
      8 O9          2.9130   -1.2300    1.3800 o         1 IZD     -0.459500
      9 C11        -1.2770   -1.3350   -0.9140 ca        1 IZD     -0.015300
     10 C12        -2.6810   -1.3510   -0.9230 ca        1 IZD     -0.100000
     11 C13        -3.3780   -1.2010   -2.1190 ca        1 IZD     -0.114500
     12 C14        -2.6810   -1.0310   -3.3220 ca        1 IZD     -0.188300
     13 C15        -1.2860   -0.8950   -3.2990 ca        1 IZD     -0.114500
     14 C16        -0.5910   -1.0430   -2.1020 ca        1 IZD     -0.100000
     15 C21        -3.4150   -0.9740   -4.6120 c3        1 IZD     -0.045100
     16 C22        -3.7770   -2.4060   -5.0870 c3        1 IZD      0.055500
     17 C25        -4.3600   -2.3620   -6.5040 c         1 IZD      0.511100
     18 O26        -3.9450   -3.0040   -7.4580 o         1 IZD     -0.363100
     19 N27        -5.5330   -1.4710   -6.7460 n4        1 IZD     -0.737400
     20 N45        -2.5910   -3.3360   -5.0280 n4        1 IZD     -0.684800
     21 C47        -2.7000   -4.4760   -4.0250 c         1 IZD      0.527100
     22 C48        -1.6770   -5.6140   -4.1680 c3        1 IZD      0.071500
     23 O49        -3.6020   -4.4290   -3.2110 o         1 IZD     -0.344100
     24 N51        -0.5200   -5.4700   -3.2340 n4        1 IZD     -0.703800
     25 C4         -2.4430   -6.9480   -3.9280 c3        1 IZD     -0.029100
     26 C5         -1.5050   -8.0950   -3.9630 ca        1 IZD     -0.212300
     27 C30        -1.1430   -8.6780   -5.1840 ca        1 IZD     -0.126000
     28 C31        -0.3350   -9.8140   -5.2050 ca        1 IZD     -0.105000
     29 C6          0.1120  -10.3780   -4.0080 ca        1 IZD     -0.064000
     30 C33        -0.2470   -9.8000   -2.7870 ca        1 IZD     -0.105000
     31 C34        -1.0530   -8.6640   -2.7610 ca        1 IZD     -0.126000
     32 C67         0.5860   -4.5690   -3.7700 c         1 IZD      0.646100
     33 O70         0.1920   -3.7040   -4.5450 o         1 IZD     -0.536100
     34 C71         1.9550   -4.8520   -3.2780 c3        1 IZD     -0.188100
     35 H1         -1.2990   -1.6030    1.1930 h1        1 IZD      0.162700
     36 H2C1        0.8830   -0.0730   -0.1590 hc        1 IZD      0.129700
     37 H2C2        0.3680   -0.1140    1.5680 hc        1 IZD      0.129700
     38 H4          2.1920   -3.6480    1.2340 hn        1 IZD      0.392500
     39 H12        -3.2430   -1.4810    0.0200 ha        1 IZD      0.176500
     40 H13        -4.4800   -1.2110   -2.1050 ha        1 IZD      0.155500
     41 H15        -0.7300   -0.6360   -4.2160 ha        1 IZD      0.155500
     42 H16         0.5070   -0.9320   -2.1010 ha        1 IZD      0.176500
     43 H211       -4.3750   -0.4050   -4.4670 hc        1 IZD      0.100700
     44 H212       -2.8010   -0.4490   -5.3930 hc        1 IZD      0.100700
     45 H22        -4.5760   -2.8170   -4.3840 hx        1 IZD      0.170700
     46 H271       -6.3290   -1.7360   -6.1470 hn        1 IZD      0.504800
     47 H272       -5.8300   -1.5500   -7.7400 hn        1 IZD      0.504800
     48 H45        -1.7530   -2.7750   -4.7430 hn        1 IZD      0.499300
     49 H48        -1.2540   -5.6420   -5.2210 hx        1 IZD      0.137700
     50 H51        -0.1360   -6.4260   -3.0690 hn        1 IZD      0.512800
     51 H4C1       -3.2090   -7.0420   -4.7460 hc        1 IZD      0.104200
     52 H4C2       -2.9880   -6.9010   -2.9460 hc        1 IZD      0.104200
     53 H30        -1.5210   -8.2640   -6.1310 ha        1 IZD      0.137000
     54 H31        -0.0670  -10.2810   -6.1680 ha        1 IZD      0.177500
     55 H6          0.7340  -11.2910   -4.0250 ha        1 IZD      0.184000
     56 H33         0.0850  -10.2610   -1.8410 ha        1 IZD      0.177500
     57 H34        -1.3830   -8.2560   -1.7920 ha        1 IZD      0.137000
     58 H711        2.2460   -5.9240   -3.4310 hc        1 IZD      0.139367
     59 H712        2.6830   -4.1960   -3.8320 hc        1 IZD      0.139367
     60 H713        2.0070   -4.6080   -2.1800 hc        1 IZD      0.139367
     61 H273       -5.2860   -0.4870   -6.5580 hn        1 IZD      0.504800
     62 H452       -2.3940   -3.7350   -5.9590 hn        1 IZD      0.499300
     63 H512       -0.8110   -5.0980   -2.3050 hn        1 IZD      0.512800
@<TRIPOS>BOND
     1    1    2 1   
     2    1    5 1   
     3    1    9 1   
     4    1   35 1   
     5    2    3 1   
     6    2   36 1   
     7    2   37 1   
     8    3    4 1   
     9    3    8 2   
    10    4    5 1   
    11    4   38 1   
    12    5    6 2   
    13    5    7 2   
    14    9   10 ar  
    15    9   14 ar  
    16   10   11 ar  
    17   10   39 1   
    18   11   12 ar  
    19   11   40 1   
    20   12   13 ar  
    21   12   15 1   
    22   13   14 ar  
    23   13   41 1   
    24   14   42 1   
    25   15   16 1   
    26   15   43 1   
    27   15   44 1   
    28   16   17 1   
    29   16   20 1   
    30   16   45 1   
    31   17   18 2   
    32   17   19 1   
    33   19   46 1   
    34   19   47 1   
    35   19   61 1   
    36   20   21 1   
    37   20   48 1   
    38   20   62 1   
    39   21   22 1   
    40   21   23 2   
    41   22   24 1   
    42   22   25 1   
    43   22   49 1   
    44   24   32 1   
    45   24   50 1   
    46   24   63 1   
    47   25   26 1   
    48   25   51 1   
    49   25   52 1   
    50   26   27 ar  
    51   26   31 ar  
    52   27   28 ar  
    53   27   53 1   
    54   28   29 ar  
    55   28   54 1   
    56   29   30 ar  
    57   29   55 1   
    58   30   31 ar  
    59   30   56 1   
    60   31   57 1   
    61   32   33 2   
    62   32   34 1   
    63   34   58 1   
    64   34   59 1   
    65   34   60 1   
@<TRIPOS>SUBSTRUCTURE
     1 IZD         1 TEMP              0 ****  ****    0 ROOT
