@<TRIPOS>MOLECULE
IZE
   52    55     1     0     0
SMALL
bcc


@<TRIPOS>ATOM
      1 C1         -5.7640   -0.3430   -0.2260 c3        1 IZE     -0.196600
      2 C2         -6.2050   -0.2920    1.2330 c3        1 IZE     -0.135400
      3 C3         -7.3460   -1.2820    1.4190 c         1 IZE      0.699500
      4 N4         -7.5290   -2.0700    0.2760 n         1 IZE     -0.689300
      5 S5         -6.5060   -1.7750   -0.9720 s6        1 IZE      1.430600
      6 O6         -7.1980   -1.3670   -2.1160 o         1 IZE     -0.627800
      7 O7         -5.5970   -2.8240   -1.1270 o         1 IZE     -0.627800
      8 O9         -8.0280   -1.3930    2.4420 o         1 IZE     -0.564500
      9 C11        -4.2910   -0.2520   -0.3710 ca        1 IZE     -0.072300
     10 C12        -3.7240    0.8520   -1.0200 ca        1 IZE     -0.105500
     11 C13        -2.3410    0.9600   -1.1510 ca        1 IZE     -0.121500
     12 C14        -1.5010   -0.0310   -0.6330 ca        1 IZE     -0.080300
     13 C15        -2.0680   -1.1380    0.0110 ca        1 IZE     -0.121500
     14 C16        -3.4490   -1.2470    0.1450 ca        1 IZE     -0.105500
     15 C21        -0.0260    0.0700   -0.7930 c3        1 IZE     -0.058100
     16 C22         0.6840    0.2940    0.5560 c3        1 IZE      0.108400
     17 N45         0.4360    1.5830    1.1640 n         1 IZE     -0.536900
     18 C17         6.5000   -1.2410    0.1420 ca        1 IZE     -0.193300
     19 C19         5.3220   -1.5980    0.7830 ca        1 IZE     -0.010000
     20 C23         4.1720   -0.8480    0.5010 ca        1 IZE      0.049400
     21 C4          4.2490    0.2600   -0.4400 ca        1 IZE     -0.045200
     22 C5          5.4550    0.5980   -1.0720 ca        1 IZE     -0.133000
     23 C6          6.5690   -0.1650   -0.7680 ca        1 IZE     -0.069000
     24 N11         2.8550   -0.9590    0.9850 nc        1 IZE     -0.545100
     25 C25         2.1660    0.0240    0.3660 cd        1 IZE      0.371800
     26 N13         2.9640    0.7920   -0.5100 na        1 IZE     -0.261300
     27 F1          8.9170   -1.2840    0.4590 f         1 IZE     -0.237633
     28 F3          7.7760   -2.7410    1.5870 f         1 IZE     -0.237633
     29 F2          8.0450   -2.9920   -0.5480 f         1 IZE     -0.237633
     30 C7          0.6220    2.7850    0.5450 c         1 IZE      0.640100
     31 C8          0.2540    4.0510    1.4190 c3        1 IZE      0.559900
     32 O1          1.0280    2.9630   -0.6130 o         1 IZE     -0.568100
     33 F4          0.9210    4.0950    2.6150 f         1 IZE     -0.218300
     34 F6         -1.0750    4.1060    1.7470 f         1 IZE     -0.218300
     35 F5          0.5340    5.2290    0.7920 f         1 IZE     -0.218300
     36 H1         -6.2160    0.5520   -0.7480 h1        1 IZE      0.127700
     37 H2C1       -5.3700   -0.5750    1.9260 hc        1 IZE      0.102200
     38 H2C2       -6.5570    0.7300    1.5230 hc        1 IZE      0.102200
     39 H4         -8.2540   -2.7460    0.2990 hn        1 IZE      0.360500
     40 H12        -4.3700    1.6410   -1.4340 ha        1 IZE      0.144000
     41 H13        -1.9110    1.8300   -1.6710 ha        1 IZE      0.143000
     42 H15        -1.4190   -1.9370    0.4030 ha        1 IZE      0.143000
     43 H16        -3.8790   -2.1390    0.6280 ha        1 IZE      0.144000
     44 H211        0.2360    0.8950   -1.5090 hc        1 IZE      0.081700
     45 H212        0.3670   -0.8920   -1.2220 hc        1 IZE      0.081700
     46 H22         0.2860   -0.4790    1.2880 h1        1 IZE      0.105700
     47 H45         0.1780    1.5810    2.1260 hn        1 IZE      0.342500
     48 H19         5.2860   -2.4390    1.4930 ha        1 IZE      0.168000
     49 H5          5.5130    1.4350   -1.7800 ha        1 IZE      0.150000
     50 H6          7.5390    0.0690   -1.2380 ha        1 IZE      0.153000
     51 HA          2.6650    1.5730   -1.0400 hn        1 IZE      0.333700
     52 C28         7.7700   -2.0410    0.4060 c3        1 IZE      0.690200
@<TRIPOS>BOND
     1    1    2 1   
     2    1    5 1   
     3    1    9 1   
     4    1   36 1   
     5    2    3 1   
     6    2   37 1   
     7    2   38 1   
     8    3    4 1   
     9    3    8 2   
    10    4    5 1   
    11    4   39 1   
    12    5    6 2   
    13    5    7 2   
    14    9   10 ar  
    15    9   14 ar  
    16   10   11 ar  
    17   10   40 1   
    18   11   12 ar  
    19   11   41 1   
    20   12   13 ar  
    21   12   15 1   
    22   13   14 ar  
    23   13   42 1   
    24   14   43 1   
    25   15   16 1   
    26   15   44 1   
    27   15   45 1   
    28   16   17 1   
    29   16   25 1   
    30   16   46 1   
    31   17   30 1   
    32   17   47 1   
    33   18   19 ar  
    34   18   23 ar  
    35   18   52 1   
    36   19   20 ar  
    37   19   48 1   
    38   20   21 ar  
    39   20   24 1   
    40   21   22 ar  
    41   21   26 1   
    42   22   23 ar  
    43   22   49 1   
    44   23   50 1   
    45   24   25 2   
    46   25   26 1   
    47   26   51 1   
    48   27   52 1   
    49   28   52 1   
    50   29   52 1   
    51   30   31 1   
    52   30   32 2   
    53   31   33 1   
    54   31   34 1   
    55   31   35 1   
@<TRIPOS>SUBSTRUCTURE
     1 IZE         1 TEMP              0 ****  ****    0 ROOT
