@<TRIPOS>MOLECULE
IZE
   53    55     1     0     0
SMALL
bcc


@<TRIPOS>ATOM
      1 C1          0.5730    0.4120    2.5370 c2        1 IZE     -0.834000
      2 C2          1.3970    0.8960    3.4780 c2        1 IZE     -0.026000
      3 C3          2.1080   -0.2220    4.2150 c2        1 IZE      0.309000
      4 N4          1.6780   -1.4510    3.6770 n         1 IZE     -0.868000
      5 S5          0.5770   -1.2940    2.4560 s6        1 IZE      2.833000
      6 O6         -0.6680   -1.8370    2.7900 o         1 IZE     -0.928500
      7 O7          1.0740   -1.7570    1.2320 o         1 IZE     -0.928500
      8 O9          2.9230   -0.0920    5.1250 o         1 IZE     -0.238000
      9 C11        -2.1800   -3.5200    0.3840 ca        1 IZE     -0.111000
     10 C12        -1.1830   -3.3940   -0.5860 ca        1 IZE     -0.126000
     11 C13        -1.3850   -3.9060   -1.8670 ca        1 IZE     -0.136500
     12 C14        -2.5810   -4.5630   -2.1840 ca        1 IZE     -0.138000
     13 C15        -3.5800   -4.6800   -1.2100 ca        1 IZE     -0.136500
     14 C16        -3.3800   -4.1590    0.0680 ca        1 IZE     -0.126000
     15 C21        -2.8270   -5.0710   -3.5580 c3        1 IZE     -0.147000
     16 C22        -1.7940   -6.1420   -3.9700 c3        1 IZE      0.094000
     17 N45        -2.1250   -6.8710   -5.1690 n         1 IZE     -0.361000
     18 C17        -0.9270   -8.3190    1.3170 c2        1 IZE     -0.263000
     19 C19        -0.1910   -8.0020    0.2250 c2        1 IZE      0.043000
     20 C23        -0.7020   -8.3500   -1.1350 c3        1 IZE     -0.098000
     21 C4         -2.2540   -8.4580   -1.1180 c2        1 IZE      0.102000
     22 C5         -2.9220   -9.1260    0.0240 c3        1 IZE     -0.215000
     23 C6         -2.2020   -8.9670    1.2820 c1        1 IZE      0.076000
     24 N11        -0.4140   -7.4090   -2.2350 n2        1 IZE     -0.075000
     25 C25        -1.5570   -7.0870   -2.7900 c2        1 IZE      0.048000
     26 N13        -2.7070   -7.7220   -2.1230 n3        1 IZE     -0.122000
     27 F1         -1.2400   -7.2880    3.4990 f         1 IZE     -0.140667
     28 F3         -0.1090   -9.1570    3.4500 f         1 IZE     -0.140667
     29 F2          0.7890   -7.3160    2.7260 f         1 IZE     -0.140667
     30 C7         -3.3210   -7.5120   -5.3740 c2        1 IZE      0.276000
     31 C8         -3.5490   -8.0930   -6.8270 c3        1 IZE      0.420000
     32 O1         -4.1830   -7.6930   -4.5000 o         1 IZE     -0.343000
     33 F4         -2.6480   -9.0760   -7.1320 f         1 IZE     -0.130667
     34 F6         -3.4120   -7.1440   -7.8010 f         1 IZE     -0.130667
     35 F5         -4.7870   -8.6370   -6.9810 f         1 IZE     -0.130667
     36 H1         -2.0220   -3.0990    1.3940 ha        1 IZE      0.181000
     37 H2C1       -0.0450    1.0360    1.8810 h4        1 IZE      0.208000
     38 H2C2        1.6040    1.9340    3.7610 ha        1 IZE      0.195000
     39 H4          2.0490   -2.2840    4.0630 hn        1 IZE      0.280000
     40 H12        -0.2380   -2.8760   -0.3390 ha        1 IZE      0.163000
     41 H13        -0.6070   -3.7770   -2.6340 ha        1 IZE      0.131000
     42 H15        -4.5440   -5.1490   -1.4630 ha        1 IZE      0.131000
     43 H16        -4.1770   -4.2350    0.8240 ha        1 IZE      0.163000
     44 H211        0.8160   -7.5400    0.2790 ha        1 IZE      0.212000
     45 H212       -3.8700   -5.4810   -3.6430 hc        1 IZE      0.126500
     46 H22        -2.7470   -4.2210   -4.2910 hc        1 IZE      0.126500
     47 H45        -0.8030   -5.6160   -4.1600 h1        1 IZE      0.167000
     48 H19        -0.2520   -9.3570   -1.4280 h1        1 IZE      0.223000
     49 H5         -3.0140  -10.2430   -0.1690 hc        1 IZE      0.213500
     50 H6         -3.9850   -8.7600    0.1760 hc        1 IZE      0.213500
     51 HA         -3.6560   -7.5790   -2.4370 hn        1 IZE      0.334000
     52 H452       -1.5000   -6.7720   -5.9410 hn        1 IZE      0.273000
     53 C28        -0.3860   -8.0280    2.7290 c3        1 IZE      0.494000
@<TRIPOS>BOND
     1    1    2 1   
     2    1    5 1   
     3    1   37 1   
     4    2    3 1   
     5    2   38 1   
     6    3    4 1   
     7    3    8 1   
     8    4    5 1   
     9    4   39 1   
    10    5    6 1   
    11    5    7 1   
    12    9   10 1   
    13    9   14 1   
    14    9   36 1   
    15   10   11 1   
    16   10   40 1   
    17   11   12 1   
    18   11   41 1   
    19   12   13 1   
    20   12   15 1   
    21   13   14 1   
    22   13   42 1   
    23   14   43 1   
    24   15   16 1   
    25   15   45 1   
    26   15   46 1   
    27   16   17 1   
    28   16   25 1   
    29   16   47 1   
    30   17   30 1   
    31   17   52 1   
    32   18   19 1   
    33   18   23 1   
    34   18   53 1   
    35   19   20 1   
    36   19   44 1   
    37   20   21 1   
    38   20   24 1   
    39   20   48 1   
    40   21   22 1   
    41   21   26 1   
    42   22   23 1   
    43   22   49 1   
    44   22   50 1   
    45   24   25 1   
    46   25   26 1   
    47   26   51 1   
    48   27   53 1   
    49   28   53 1   
    50   29   53 1   
    51   30   31 1   
    52   30   32 1   
    53   31   33 1   
    54   31   34 1   
    55   31   35 1   
@<TRIPOS>SUBSTRUCTURE
     1 IZE         1 TEMP              0 ****  ****    0 ROOT
