@<TRIPOS>MOLECULE
IZE
   53    55     1     0     0
SMALL
bcc


@<TRIPOS>ATOM
      1 C1          2.7410    1.3410    0.9960 c2        1 IZE     -0.844000
      2 C2          3.1660    2.2450    1.8920 c2        1 IZE     -0.009000
      3 C3          2.1750    2.3930    3.0320 c2        1 IZE      0.306000
      4 N4          1.0910    1.5180    2.7890 ns        1 IZE     -0.873000
      5 S5          1.2430    0.6480    1.4050 s6        1 IZE      2.841000
      6 O6          0.2390    0.9240    0.4650 o         1 IZE     -0.950500
      7 O7          1.3360   -0.7360    1.6360 o         1 IZE     -0.950500
      8 O9          2.2780    3.1370    4.0020 o         1 IZE     -0.216000
      9 C11        -1.2220   -1.8020   -0.5500 c2        1 IZE     -0.221000
     10 C12        -2.2710   -2.1890   -1.4010 c2        1 IZE      0.132000
     11 C13        -2.6320   -3.5440   -1.5310 c2        1 IZE     -0.212000
     12 C14        -1.9670   -4.5240   -0.8260 c2        1 IZE      0.092000
     13 C15        -0.8710   -4.1710    0.0960 c3        1 IZE     -0.224000
     14 C16        -0.5350   -2.7450    0.1760 c2        1 IZE      0.044000
     15 C21        -2.3520   -5.9520   -0.9350 c3        1 IZE     -0.195000
     16 C22        -1.5140   -6.7210   -1.9810 c3        1 IZE      0.104000
     17 N45        -1.6440   -6.2530   -3.3390 ns        1 IZE     -0.358000
     18 C17        -2.8750  -12.2220   -0.0410 c3        1 IZE     -0.284000
     19 C19        -1.8910  -11.1270    0.0300 c1        1 IZE      0.064000
     20 C23        -1.7770  -10.3670   -1.2340 c3        1 IZE     -0.141000
     21 C4         -3.1800  -10.0370   -1.8230 c2        1 IZE      0.095000
     22 C5         -4.2240  -10.9210   -1.6950 c2        1 IZE     -0.288000
     23 C6         -4.1450  -11.9530   -0.7520 c1        1 IZE     -0.023000
     24 N11        -1.0710   -9.0710   -1.2100 n2        1 IZE     -0.107000
     25 C25        -1.8580   -8.1950   -1.8010 c2        1 IZE     -0.012000
     26 N13        -3.1100   -8.7250   -2.2590 n7        1 IZE     -0.286000
     27 F1         -3.9770  -13.8680    1.4180 f         1 IZE     -0.153333
     28 F3         -2.0520  -13.1410    2.0830 f         1 IZE     -0.153333
     29 F2         -3.7990  -11.8500    2.2200 f         1 IZE     -0.153333
     30 C7         -2.8500   -6.0690   -3.9760 c2        1 IZE      0.260000
     31 C8         -2.7570   -5.6760   -5.5060 c3        1 IZE      0.414000
     32 O1         -3.9580   -6.1110   -3.4240 o         1 IZE     -0.311000
     33 F4         -1.9150   -6.4850   -6.2180 f         1 IZE     -0.134000
     34 F6         -2.2810   -4.4030   -5.6750 f         1 IZE     -0.134000
     35 F5         -3.9650   -5.7250   -6.1310 f         1 IZE     -0.134000
     36 H1         -0.9530   -0.7250   -0.4650 ha        1 IZE      0.224000
     37 H2C1        3.2960    1.0730    0.0900 h4        1 IZE      0.213000
     38 H2C2        4.0800    2.8500    1.9010 ha        1 IZE      0.203000
     39 H4          0.3500    1.5040    3.4470 hn        1 IZE      0.286000
     40 H12        -2.8230   -1.4200   -1.9780 ha        1 IZE      0.191000
     41 H13        -3.4650   -3.8200   -2.2070 ha        1 IZE      0.194000
     42 H15        -1.1330   -4.5350    1.1450 hc        1 IZE      0.213500
     43 H16         0.2960   -2.4510    0.8560 ha        1 IZE      0.226000
     44 H211        0.0620   -4.7630   -0.1740 hc        1 IZE      0.213500
     45 H212       -3.4470   -6.0330   -1.1920 hc        1 IZE      0.154500
     46 H22        -2.1960   -6.4660    0.0550 hc        1 IZE      0.154500
     47 H45        -0.4160   -6.5930   -1.7120 h1        1 IZE      0.143000
     48 H19        -1.2050  -11.0310   -1.9650 h1        1 IZE      0.190000
     49 H5         -2.3920  -13.0990   -0.5880 hc        1 IZE      0.211000
     50 H6         -5.1810  -10.7700   -2.2190 ha        1 IZE      0.179000
     51 HA         -3.8730   -8.1810   -2.5830 hn        1 IZE      0.285000
     52 H452       -0.8390   -6.3900   -3.9170 hn        1 IZE      0.263000
     53 C28        -3.1800  -12.7570    1.4040 c3        1 IZE      0.472000
@<TRIPOS>BOND
     1    1    2 1   
     2    1    5 1   
     3    1   37 1   
     4    2    3 1   
     5    2   38 1   
     6    3    4 1   
     7    3    8 1   
     8    4    5 1   
     9    4   39 1   
    10    5    6 1   
    11    5    7 1   
    12    9   10 1   
    13    9   14 1   
    14    9   36 1   
    15   10   11 1   
    16   10   40 1   
    17   11   12 1   
    18   11   41 1   
    19   12   13 1   
    20   12   15 1   
    21   13   14 1   
    22   13   42 1   
    23   13   44 1   
    24   14   43 1   
    25   15   16 1   
    26   15   45 1   
    27   15   46 1   
    28   16   17 1   
    29   16   25 1   
    30   16   47 1   
    31   17   30 1   
    32   17   52 1   
    33   18   19 1   
    34   18   23 1   
    35   18   49 1   
    36   18   53 1   
    37   19   20 1   
    38   20   21 1   
    39   20   24 1   
    40   20   48 1   
    41   21   22 1   
    42   21   26 1   
    43   22   23 1   
    44   22   50 1   
    45   24   25 1   
    46   25   26 1   
    47   26   51 1   
    48   27   53 1   
    49   28   53 1   
    50   29   53 1   
    51   30   31 1   
    52   30   32 1   
    53   31   33 1   
    54   31   34 1   
    55   31   35 1   
@<TRIPOS>SUBSTRUCTURE
     1 IZE         1 TEMP              0 ****  ****    0 ROOT
