@<TRIPOS>MOLECULE
IZF
   81    75     1     0     0
SMALL
bcc


@<TRIPOS>ATOM
      1 C1          3.7910    5.4760    1.4440 c3        1 IZF     -0.696000
      2 C2          3.4360    6.6340    1.9440 c3        1 IZF     -0.163000
      3 C3          3.1960    7.6110    0.5600 c2        1 IZF      0.313000
      4 N4          3.7990    6.8440   -0.6840 n         1 IZF     -0.867000
      5 S5          4.5880    5.8770   -0.1950 s6        1 IZF      2.778000
      6 O6          5.9400    6.3230   -0.0290 o         1 IZF     -0.908000
      7 O7          4.5580    4.7090   -1.0710 o         1 IZF     -0.908000
      8 O9          2.7550    8.7490    0.5560 o         1 IZF     -0.292000
      9 C11         2.5150    4.8150    1.0890 c2        1 IZF     -0.053000
     10 C12         2.5040    3.4670    0.7500 c1        1 IZF     -0.106000
     11 C13         1.3110    2.8310    0.4700 c1        1 IZF     -0.131000
     12 C14         0.1160    3.5360    0.5260 c1        1 IZF     -0.055000
     13 C15         0.1230    4.8860    0.8640 c1        1 IZF     -0.110000
     14 C16         1.3270    5.5240    1.1460 c2        1 IZF     -0.042000
     15 C21        -1.1970    2.8770   -0.0320 c3        1 IZF     -0.136000
     16 C22        -2.1500    2.5250    1.1430 c3        1 IZF      0.040000
     17 N45        -1.5250    2.8190    2.3680 n3        1 IZF     -0.874000
     18 S1         -2.2550    3.8820    3.4490 s4        1 IZF      2.074800
     19 O1         -3.6390    4.0070    3.1890 o         1 IZF     -0.540400
     20 O2         -1.8060    5.2360    3.2320 o         1 IZF     -0.540400
     21 C23        -3.1510   -0.9830   -0.2600 c3        1 IZF     -0.033000
     22 N11        -2.9330    0.4500   -0.1640 n         1 IZF     -0.372000
     23 C25        -2.4980    1.0310    1.0830 c2        1 IZF      0.279000
     24 C24        -0.4150    3.0190    6.9890 c1        1 IZF     -0.111333
     25 C26        -1.4730    2.5700    7.7960 c1        1 IZF     -0.111333
     26 C7         -0.6540    3.4060    5.6810 c1        1 IZF     -0.111333
     27 C8         -1.9470    3.3520    5.1610 c1        1 IZF     -0.833000
     28 C9         -3.0050    2.9050    5.9610 c1        1 IZF     -0.015000
     29 C10        -2.7620    2.5140    7.2840 c1        1 IZF     -0.111333
     30 C27        -2.5500   -3.0640   -1.5750 c3        1 IZF     -0.154000
     31 C18        -2.5790   -1.5080   -1.6030 c3        1 IZF     -0.183000
     32 O3         -2.5560    0.3930    2.0870 o         1 IZF     -0.371000
     33 CL1         1.3270    7.1980    1.7180 cl        1 IZF     -0.006000
     34 C4         -1.7500   -3.5820   -2.7550 c3        1 IZF     -0.167000
     35 C5         -1.3890   -5.0770   -2.5160 c3        1 IZF     -0.019000
     36 C32        -0.2640   -6.9710   -3.5310 c1        1 IZF      0.160000
     37 C33        -1.0870   -7.8680   -2.7980 c1        1 IZF     -0.111333
     38 C34        -0.8110   -9.2130   -2.8010 c1        1 IZF     -0.111333
     39 C35         0.2900   -9.7040   -3.5320 c1        1 IZF     -0.255000
     40 C36         1.0920   -8.8310   -4.2480 c1        1 IZF      0.155000
     41 C37         0.8080   -7.4500   -4.2440 c1        1 IZF     -0.155000
     42 C38         1.6980   -6.4690   -5.0640 c2        1 IZF      0.379000
     43 O11         1.2910   -6.0250   -6.1280 o         1 IZF     -0.340000
     44 O4          3.0920   -6.2380   -4.6630 os        1 IZF     -0.263000
     45 C39         3.9240   -5.6950   -5.7200 c3        1 IZF     -0.064000
     46 O14         2.2840   -9.3030   -4.8520 oh        1 IZF     -0.237000
     47 O5         -0.6320   -5.5750   -3.6400 os        1 IZF     -0.204000
     48 H1          4.2300    4.8330    2.0290 h1        1 IZF      0.168000
     49 H2C1        4.1050    7.0480    2.5600 hc        1 IZF      0.145000
     50 H2C2        2.6480    6.5550    2.5190 hc        1 IZF      0.145000
     51 H4          3.7320    7.0930   -1.5510 hn        1 IZF      0.273000
     52 H12         3.3860    2.9430    0.7080 ha        1 IZF      0.142000
     53 H13         1.3080    1.8980    0.2360 ha        1 IZF      0.168000
     54 H15        -0.7400    5.3990    0.9050 ha        1 IZF      0.155000
     55 H211       -0.9640    2.0490   -0.5250 hc        1 IZF      0.105500
     56 H212       -1.6390    3.4960   -0.6330 hc        1 IZF      0.105500
     57 H22        -2.9670    3.0490    1.0640 h1        1 IZF      0.128000
     58 H45        -0.7290    2.4010    2.5950 hn        1 IZF      0.258000
     59 H231       -2.6950   -1.4380    0.4920 h1        1 IZF      0.103500
     60 H232       -4.1190   -1.1710   -0.2200 h1        1 IZF      0.103500
     61 H11        -3.1800    0.9830   -0.8390 hn        1 IZF      0.224000
     62 H24         0.5020    3.0600    7.3540 ha        1 IZF      0.142500
     63 H26        -1.3050    2.3020    8.7020 ha        1 IZF      0.142500
     64 H7          0.0980    3.7250    5.1120 ha        1 IZF      0.142500
     65 H9         -3.8970    2.8670    5.6040 ha        1 IZF      0.152000
     66 H10        -3.5020    2.2000    7.8480 ha        1 IZF      0.142500
     67 H271       -2.1390   -3.3630   -0.7540 hc        1 IZF      0.084000
     68 H272       -3.4740   -3.4120   -1.6260 hc        1 IZF      0.084000
     69 H181       -1.6610   -1.1630   -1.7280 hc        1 IZF      0.088500
     70 H182       -3.1540   -1.1990   -2.3500 hc        1 IZF      0.088500
     71 H4C1       -2.2750   -3.5050   -3.5590 hc        1 IZF      0.103500
     72 H4C2       -0.9260   -3.0560   -2.8490 hc        1 IZF      0.103500
     73 H5C1       -0.8570   -5.1550   -1.7060 h1        1 IZF      0.083000
     74 H5C2       -2.2160   -5.6020   -2.4170 h1        1 IZF      0.083000
     75 H33        -1.8450   -7.5300   -2.2930 ha        1 IZF      0.142500
     76 H34        -1.3880   -9.8420   -2.2860 ha        1 IZF      0.142500
     77 H35         0.4880  -10.6670   -3.5350 ha        1 IZF      0.141000
     78 H391        3.7200   -6.1530   -6.5640 h1        1 IZF      0.088667
     79 H392        3.7440   -4.7410   -5.8170 h1        1 IZF      0.088667
     80 H393        4.8720   -5.8280   -5.4940 h1        1 IZF      0.088667
     81 H14         2.0990   -9.9900   -5.3640 ho        1 IZF      0.227000
@<TRIPOS>BOND
     1    1    2 1   
     2    1    5 1   
     3    1    9 1   
     4    1   48 1   
     5    2    3 1   
     6    2   49 1   
     7    2   50 1   
     8    3    4 1   
     9    3    8 1   
    10    4    5 1   
    11    4   51 1   
    12    5    6 1   
    13    5    7 1   
    14    9   10 1   
    15    9   14 1   
    16   10   52 1   
    17   11   12 1   
    18   11   53 1   
    19   12   15 1   
    20   13   14 1   
    21   13   54 1   
    22   14   33 1   
    23   15   16 1   
    24   15   55 1   
    25   15   56 1   
    26   16   17 1   
    27   16   23 1   
    28   16   57 1   
    29   17   18 1   
    30   17   58 1   
    31   18   19 1   
    32   18   20 1   
    33   21   22 1   
    34   21   31 1   
    35   21   59 1   
    36   21   60 1   
    37   22   23 1   
    38   22   61 1   
    39   23   32 1   
    40   24   26 1   
    41   24   62 1   
    42   25   29 1   
    43   25   63 1   
    44   26   64 1   
    45   27   28 1   
    46   28   65 1   
    47   29   66 1   
    48   30   31 1   
    49   30   34 1   
    50   30   67 1   
    51   30   68 1   
    52   31   69 1   
    53   31   70 1   
    54   34   35 1   
    55   34   71 1   
    56   34   72 1   
    57   35   47 1   
    58   35   73 1   
    59   35   74 1   
    60   36   41 1   
    61   36   47 1   
    62   37   38 1   
    63   37   75 1   
    64   38   76 1   
    65   39   40 1   
    66   39   77 1   
    67   40   46 1   
    68   41   42 1   
    69   42   43 1   
    70   42   44 1   
    71   44   45 1   
    72   45   78 1   
    73   45   79 1   
    74   45   80 1   
    75   46   81 1   
@<TRIPOS>SUBSTRUCTURE
     1 IZF         1 TEMP              0 ****  ****    0 ROOT
