@<TRIPOS>MOLECULE
IZF
   81    84     1     0     0
SMALL
bcc


@<TRIPOS>ATOM
      1 C1         -3.8900    2.7620   -1.3710 c3        1 IZF     -0.198600
      2 C2         -4.8730    3.7650   -0.7780 c3        1 IZF     -0.134400
      3 C3         -6.1800    3.6760   -1.5520 c         1 IZF      0.699500
      4 N4         -6.1240    2.6890   -2.5450 n         1 IZF     -0.690300
      5 S5         -4.7110    1.8730   -2.6750 s6        1 IZF      1.427600
      6 O6         -4.0580    2.1560   -3.8780 o         1 IZF     -0.633300
      7 O7         -4.8830    0.5150   -2.3810 o         1 IZF     -0.633300
      8 O9         -7.1750    4.3760   -1.3460 o         1 IZF     -0.561500
      9 C11        -3.2800    1.8790   -0.3480 ca        1 IZF     -0.067300
     10 C12        -4.1000    1.1720    0.5440 ca        1 IZF     -0.105000
     11 C13        -3.5630    0.2840    1.4690 ca        1 IZF     -0.121000
     12 C14        -2.1790    0.0750    1.5200 ca        1 IZF     -0.071300
     13 C15        -1.3430    0.8130    0.6780 ca        1 IZF     -0.133000
     14 C16        -1.8890    1.7100   -0.2470 ca        1 IZF      0.028400
     15 C21        -1.6160   -0.9560    2.4350 c3        1 IZF     -0.066100
     16 C22        -1.6120   -2.3430    1.7340 c3        1 IZF      0.187500
     17 N45        -2.3780   -3.3500    2.4060 n3        1 IZF     -0.911100
     18 S1         -3.9760   -3.5910    2.2480 sy        1 IZF      1.526200
     19 O1         -4.6770   -2.4330    2.6530 o         1 IZF     -0.659300
     20 O2         -4.3040   -4.7890    2.9150 o         1 IZF     -0.659300
     21 C23         1.9540   -2.4140    0.2930 c3        1 IZF      0.084000
     22 C25        -0.1300   -2.7700    1.5690 c         1 IZF      0.648100
     23 C24        -4.3050   -5.1940   -1.3780 ca        1 IZF     -0.154500
     24 C26        -4.5880   -4.0810   -2.1720 ca        1 IZF     -0.066000
     25 C7         -4.1040   -5.0400   -0.0090 ca        1 IZF     -0.020000
     26 C8         -4.1830   -3.7760    0.5900 ca        1 IZF     -0.399500
     27 C9         -4.4790   -2.6720   -0.2220 ca        1 IZF     -0.020000
     28 C10        -4.6780   -2.8150   -1.5920 ca        1 IZF     -0.154500
     29 C27         4.2720   -1.5020    0.2470 c3        1 IZF     -0.075400
     30 C18         2.8270   -1.1860    0.5650 c3        1 IZF     -0.105400
     31 O3          0.4040   -3.5900    2.3410 o         1 IZF     -0.600100
     32 CL1        -0.8120    2.5660   -1.2480 cl        1 IZF     -0.080400
     33 C4          5.1520   -0.2970    0.4980 c3        1 IZF     -0.088400
     34 C5          6.6000   -0.6310    0.1870 c3        1 IZF      0.131400
     35 C32         8.6530    0.5800    0.0450 ca        1 IZF      0.216100
     36 C33         9.3610   -0.5750   -0.3010 ca        1 IZF     -0.260000
     37 C34        10.7200   -0.4820   -0.6050 ca        1 IZF     -0.033000
     38 C35        11.3810    0.7360   -0.5590 ca        1 IZF     -0.211000
     39 C36        10.6680    1.9010   -0.2050 ca        1 IZF      0.223100
     40 C37         9.2920    1.8460    0.0840 ca        1 IZF     -0.245600
     41 C38         8.4920    3.0330    0.4000 c         1 IZF      0.660700
     42 O11         7.3470    3.3200    0.0510 o         1 IZF     -0.514000
     43 O4          9.1510    3.9450    1.1960 os        1 IZF     -0.467900
     44 C39         8.4260    5.1210    1.5580 c3        1 IZF      0.129700
     45 O14        11.4140    3.0460   -0.2050 oh        1 IZF     -0.494100
     46 O5          7.3260    0.5890    0.4040 os        1 IZF     -0.312900
     47 H1         -3.0630    3.3580   -1.8650 h1        1 IZF      0.143700
     48 H2C1       -5.0820    3.5630    0.3040 hc        1 IZF      0.105700
     49 H2C2       -4.4820    4.8130   -0.8550 hc        1 IZF      0.105700
     50 H4         -6.9360    2.5530   -3.0980 hn        1 IZF      0.361500
     51 H12        -5.1940    1.2970    0.4970 ha        1 IZF      0.144000
     52 H13        -4.2310   -0.2740    2.1540 ha        1 IZF      0.190000
     53 H15        -0.2500    0.6950    0.7450 ha        1 IZF      0.148000
     54 H211       -2.2310   -0.9950    3.3750 hc        1 IZF      0.078200
     55 H212       -0.5730   -0.6800    2.7400 hc        1 IZF      0.078200
     56 H22        -2.0650   -2.2200    0.6990 h1        1 IZF      0.071700
     57 H45        -1.8270   -3.9380    2.9970 hn        1 IZF      0.472800
     58 H231        2.0910   -2.7220   -0.7850 h1        1 IZF      0.065700
     59 H232        2.3010   -3.2650    0.9470 h1        1 IZF      0.065700
     60 H11         0.1120   -1.4780   -0.0040 hn        1 IZF      0.312500
     61 H24        -4.2430   -6.1940   -1.8330 ha        1 IZF      0.157000
     62 H26        -4.7450   -4.2030   -3.2550 ha        1 IZF      0.138000
     63 H7         -3.8930   -5.9230    0.6200 ha        1 IZF      0.153500
     64 H9         -4.5700   -1.6700    0.2390 ha        1 IZF      0.153500
     65 H10        -4.9010   -1.9240   -2.2050 ha        1 IZF      0.157000
     66 H271        4.3620   -1.8190   -0.8260 hc        1 IZF      0.044700
     67 H272        4.6180   -2.3620    0.8790 hc        1 IZF      0.044700
     68 H181        2.7360   -0.8820    1.6410 hc        1 IZF      0.047700
     69 H182        2.4840   -0.3200   -0.0590 hc        1 IZF      0.047700
     70 H4C1        5.0670    0.0310    1.5670 hc        1 IZF      0.065200
     71 H4C2        4.8250    0.5660   -0.1400 hc        1 IZF      0.065200
     72 H5C1        6.7220   -0.9610   -0.8770 h1        1 IZF      0.043200
     73 H5C2        6.9940   -1.4210    0.8790 h1        1 IZF      0.043200
     74 H33         8.8640   -1.5530   -0.3340 ha        1 IZF      0.145000
     75 H34        11.2750   -1.3930   -0.8790 ha        1 IZF      0.140000
     76 H35        12.4520    0.8180   -0.7900 ha        1 IZF      0.158000
     77 H391        8.1550    5.6980    0.6420 h1        1 IZF      0.051700
     78 H392        7.5030    4.8400    2.1200 h1        1 IZF      0.051700
     79 H393        9.1430    5.6850    2.2040 h1        1 IZF      0.051700
     80 H14        10.8800    3.7910    0.1140 ho        1 IZF      0.447000
     81 N11         0.5500   -2.2030    0.5140 n         1 IZF     -0.563900
@<TRIPOS>BOND
     1    1    2 1   
     2    1    5 1   
     3    1    9 1   
     4    1   47 1   
     5    2    3 1   
     6    2   48 1   
     7    2   49 1   
     8    3    4 1   
     9    3    8 2   
    10    4    5 1   
    11    4   50 1   
    12    5    6 2   
    13    5    7 2   
    14    9   10 ar  
    15    9   14 ar  
    16   10   11 ar  
    17   10   51 1   
    18   11   12 ar  
    19   11   52 1   
    20   12   13 ar  
    21   12   15 1   
    22   13   14 ar  
    23   13   53 1   
    24   14   32 1   
    25   15   16 1   
    26   15   54 1   
    27   15   55 1   
    28   16   17 1   
    29   16   22 1   
    30   16   56 1   
    31   17   18 1   
    32   17   57 1   
    33   18   19 2   
    34   18   20 2   
    35   18   26 1   
    36   21   30 1   
    37   21   58 1   
    38   21   59 1   
    39   21   81 1   
    40   22   31 2   
    41   22   81 1   
    42   23   24 ar  
    43   23   25 ar  
    44   23   61 1   
    45   24   28 ar  
    46   24   62 1   
    47   25   26 ar  
    48   25   63 1   
    49   26   27 ar  
    50   27   28 ar  
    51   27   64 1   
    52   28   65 1   
    53   29   30 1   
    54   29   33 1   
    55   29   66 1   
    56   29   67 1   
    57   30   68 1   
    58   30   69 1   
    59   33   34 1   
    60   33   70 1   
    61   33   71 1   
    62   34   46 1   
    63   34   72 1   
    64   34   73 1   
    65   35   36 ar  
    66   35   40 ar  
    67   35   46 1   
    68   36   37 ar  
    69   36   74 1   
    70   37   38 ar  
    71   37   75 1   
    72   38   39 ar  
    73   38   76 1   
    74   39   40 ar  
    75   39   45 1   
    76   40   41 1   
    77   41   42 2   
    78   41   43 1   
    79   43   44 1   
    80   44   77 1   
    81   44   78 1   
    82   44   79 1   
    83   45   80 1   
    84   60   81 1   
@<TRIPOS>SUBSTRUCTURE
     1 IZF         1 TEMP              0 ****  ****    0 ROOT
