@<TRIPOS>MOLECULE
IZF
   83    82     1     0     0
SMALL
bcc


@<TRIPOS>ATOM
      1 C1          4.3150    0.1230    3.1960 c2        1 IZF     -0.849000
      2 C2          4.7130    0.9900    4.1400 c2        1 IZF     -0.002000
      3 C3          3.5360    1.7780    4.6870 c2        1 IZF      0.304000
      4 N4          2.3680    1.3460    4.0160 n         1 IZF     -0.875000
      5 S5          2.6430    0.1730    2.9050 s6        1 IZF      2.842000
      6 O6          2.3220    0.5590    1.5930 o         1 IZF     -0.957000
      7 O7          2.0010   -1.0420    3.2150 o         1 IZF     -0.957000
      8 O9          3.5690    2.6390    5.5590 o         1 IZF     -0.207000
      9 C11         0.3510   -1.4960    0.1000 c2        1 IZF     -0.217000
     10 C12         0.1850   -2.4480    1.1060 c2        1 IZF      0.124000
     11 C13        -0.6110   -3.6020    0.8940 c2        1 IZF     -0.196000
     12 C14        -1.2610   -3.8030   -0.2950 c2        1 IZF      0.046000
     13 C15        -1.1910   -2.7950   -1.3720 c3        1 IZF     -0.224000
     14 C16        -0.2830   -1.6570   -1.1250 c2        1 IZF      0.097000
     15 C21        -2.0140   -5.0610   -0.5510 c3        1 IZF     -0.182000
     16 C22        -3.5100   -4.8400   -0.8830 c3        1 IZF      0.063000
     17 N45        -4.3030   -4.3250    0.1740 n3        1 IZF     -0.879000
     18 S1         -4.9310   -2.7800    0.2190 s6        1 IZF      2.883000
     19 O1         -4.0810   -2.0090   -0.6150 o         1 IZF     -0.934500
     20 O2         -4.9990   -2.4570    1.5790 o         1 IZF     -0.934500
     21 C23        -5.3170   -8.1610   -1.2440 c2        1 IZF      0.163000
     22 C25        -4.0030   -6.1720   -1.4930 c2        1 IZF      0.257000
     23 C24        -5.2660   -6.9570    3.2280 c2        1 IZF     -0.385000
     24 C26        -9.2940   -2.4120   -2.4550 c1        1 IZF     -0.019000
     25 C7         -5.0360   -6.9240    1.9660 c1        1 IZF      0.012000
     26 C8         -6.4100   -2.9200   -0.4440 c2        1 IZF     -1.037000
     27 C9         -6.8490   -2.3390   -1.5820 c2        1 IZF      0.244000
     28 C10        -8.1650   -2.4010   -2.0460 c1        1 IZF     -0.250000
     29 C27        -7.2290   -9.7370   -1.3110 c3        1 IZF     -0.159000
     30 C18        -6.0610   -9.2080   -0.4960 c3        1 IZF     -0.201000
     31 O3         -3.7620   -6.4480   -2.6700 o         1 IZF     -0.233000
     32 CL1        -0.0720   -0.5530   -2.3510 cl        1 IZF      0.167000
     33 C4         -7.9250  -10.8450   -0.5510 c3        1 IZF     -0.170000
     34 C5         -9.0950  -11.3860   -1.3590 c3        1 IZF     -0.011000
     35 C32       -10.7200  -13.0870   -1.1140 c2        1 IZF      0.133000
     36 C33       -10.1920  -14.3190   -1.8240 c3        1 IZF     -0.140000
     37 C34       -11.2240  -14.7840   -2.8140 c2        1 IZF     -0.107000
     38 C35       -12.4600  -14.6150   -2.3810 c1        1 IZF     -0.205000
     39 C36       -12.9630  -13.9090   -1.3520 c2        1 IZF      0.155000
     40 C37       -12.0490  -12.8080   -0.9530 c2        1 IZF     -0.178000
     41 C38       -12.6100  -11.6130   -0.3270 c2        1 IZF      0.361000
     42 O11       -13.6390  -11.5370    0.3520 o         1 IZF     -0.346000
     43 O4        -11.9240  -10.4500   -0.5700 os        1 IZF     -0.284000
     44 C39       -12.5040   -9.2570   -0.0340 c3        1 IZF     -0.064000
     45 O14       -14.1010  -14.2200   -0.6910 oh        1 IZF     -0.197000
     46 O5         -9.7550  -12.3160   -0.4840 os        1 IZF     -0.238000
     47 H1          1.0060   -0.6120    0.2880 ha        1 IZF      0.241000
     48 H2C1        4.9970   -0.5480    2.6600 h4        1 IZF      0.214000
     49 H2C2        5.7160    1.1870    4.5370 ha        1 IZF      0.207000
     50 H4          1.5090    1.7800    4.2560 hn        1 IZF      0.287000
     51 H12         0.6980   -2.3060    2.0880 ha        1 IZF      0.236000
     52 H13        -0.6760   -4.3420    1.7120 ha        1 IZF      0.179000
     53 H15        -2.2440   -2.3440   -1.5070 hc        1 IZF      0.227000
     54 H211       -0.9530   -3.2880   -2.3630 hc        1 IZF      0.227000
     55 H212       -1.9230   -5.7470    0.3350 hc        1 IZF      0.134500
     56 H22        -1.5380   -5.5800   -1.4320 hc        1 IZF      0.134500
     57 H45        -3.5630   -4.1040   -1.7530 h1        1 IZF      0.155000
     58 H231       -4.5820   -7.4950   -4.7570 ha        1 IZF      0.002500
     59 H232       -5.0990   -7.6450   -4.3460 ha        1 IZF      0.002500
     60 H11        -5.2460   -8.2970   -2.3570 h4        1 IZF      0.210000
     61 H24        -4.6770   -7.5400    3.9710 ha        1 IZF      0.260000
     62 H26       -10.2940   -2.4140   -2.8250 ha        1 IZF      0.256000
     63 H7         -6.0870   -6.4060    3.7420 ha        1 IZF      0.260000
     64 H9         -7.1680   -3.4700    0.1520 h4        1 IZF      0.197000
     65 H10        -6.1510   -1.7450   -2.2160 ha        1 IZF      0.164000
     66 H271       -5.3330  -10.0520   -0.3000 hc        1 IZF      0.148500
     67 H272       -6.8640  -10.1260   -2.2990 hc        1 IZF      0.104000
     68 H181       -7.9560   -8.9070   -1.5190 hc        1 IZF      0.104000
     69 H182       -6.4230   -8.8450    0.5050 hc        1 IZF      0.148500
     70 H4C1       -8.3070  -10.4660    0.4330 hc        1 IZF      0.106500
     71 H4C2       -7.2080  -11.6800   -0.3330 hc        1 IZF      0.106500
     72 H5C1       -9.8230  -10.5740   -1.6270 h1        1 IZF      0.095000
     73 H5C2       -8.7420  -11.9080   -2.2860 h1        1 IZF      0.095000
     74 H33        -9.9430  -15.0910   -1.0460 hc        1 IZF      0.124500
     75 H34        -9.2460  -14.0650   -2.3680 hc        1 IZF      0.124500
     76 H35       -10.9150  -15.1270   -3.8050 ha        1 IZF      0.163000
     77 H391      -13.5360   -9.1190   -0.4360 h1        1 IZF      0.092333
     78 H392      -12.5330   -9.3180    1.0810 h1        1 IZF      0.092333
     79 H393      -11.8160   -8.4500   -0.3850 h1        1 IZF      0.092333
     80 H14       -14.3560  -13.4690   -0.1240 ho        1 IZF      0.254000
     81 N11        -4.7400   -7.1190   -0.6900 n         1 IZF     -0.259000
     82 H452       -4.2950   -4.8690    1.0070 hn        1 IZF      0.237000
     83 H112       -4.8200   -6.9650    0.4090 hn        1 IZF      0.356000
@<TRIPOS>BOND
     1    1    2 1   
     2    1    5 1   
     3    1   48 1   
     4    2    3 1   
     5    2   49 1   
     6    3    4 1   
     7    3    8 1   
     8    4    5 1   
     9    4   50 1   
    10    5    6 1   
    11    5    7 1   
    12    9   10 1   
    13    9   14 1   
    14    9   47 1   
    15   10   11 1   
    16   10   51 1   
    17   11   12 1   
    18   11   52 1   
    19   12   13 1   
    20   12   15 1   
    21   13   14 1   
    22   13   53 1   
    23   13   54 1   
    24   14   32 1   
    25   15   16 1   
    26   15   55 1   
    27   15   56 1   
    28   16   17 1   
    29   16   22 1   
    30   16   57 1   
    31   17   18 1   
    32   17   82 1   
    33   18   19 1   
    34   18   20 1   
    35   18   26 1   
    36   21   30 1   
    37   21   60 1   
    38   21   81 1   
    39   22   31 1   
    40   22   81 1   
    41   23   25 1   
    42   23   61 1   
    43   23   63 1   
    44   24   28 1   
    45   24   62 1   
    46   26   27 1   
    47   26   64 1   
    48   27   28 1   
    49   27   65 1   
    50   29   30 1   
    51   29   33 1   
    52   29   67 1   
    53   29   68 1   
    54   30   66 1   
    55   30   69 1   
    56   33   34 1   
    57   33   70 1   
    58   33   71 1   
    59   34   46 1   
    60   34   72 1   
    61   34   73 1   
    62   35   36 1   
    63   35   40 1   
    64   35   46 1   
    65   36   37 1   
    66   36   74 1   
    67   36   75 1   
    68   37   38 1   
    69   37   76 1   
    70   38   39 1   
    71   39   40 1   
    72   39   45 1   
    73   40   41 1   
    74   41   42 1   
    75   41   43 1   
    76   43   44 1   
    77   44   77 1   
    78   44   78 1   
    79   44   79 1   
    80   45   80 1   
    81   58   59 1   
    82   81   83 1   
@<TRIPOS>SUBSTRUCTURE
     1 IZF         1 TEMP              0 ****  ****    0 ROOT
