@<TRIPOS>MOLECULE
IZF
   83    84     1     0     0
SMALL
bcc


@<TRIPOS>ATOM
      1 C1         -1.3710    0.6180    0.9710 c2        1 IZF     -0.836000
      2 C2         -0.4520    0.6900    1.9440 c2        1 IZF     -0.036000
      3 C3         -0.1750   -0.6770    2.5350 c2        1 IZF      0.308000
      4 N4         -0.9880   -1.6170    1.8710 ns        1 IZF     -0.861000
      5 S5         -1.9530   -0.9820    0.6970 s6        1 IZF      2.901000
      6 O6         -3.3210   -1.0200    0.9940 o         1 IZF     -0.961000
      7 O7         -1.5580   -1.3660   -0.6020 o         1 IZF     -0.961000
      8 O9          0.6160   -0.9470    3.4360 o         1 IZF     -0.241000
      9 C11        -1.7180   -2.0410   -3.6190 c2        1 IZF     -0.204000
     10 C12        -0.8510   -2.6220   -2.6790 c2        1 IZF      0.210000
     11 C13        -1.0110   -3.9730   -2.2840 c2        1 IZF     -0.195000
     12 C14        -2.0710   -4.7180   -2.7330 c2        1 IZF      0.057000
     13 C15        -3.0760   -4.1320   -3.6440 c3        1 IZF     -0.211000
     14 C16        -2.7840   -2.7630   -4.1160 c2        1 IZF      0.081000
     15 C21        -2.2590   -6.1300   -2.3070 c3        1 IZF     -0.190000
     16 C22        -3.4070   -6.3160   -1.2800 c3        1 IZF      0.124000
     17 N45        -3.2470   -5.5850   -0.0590 n7        1 IZF     -0.886000
     18 S1         -3.8660   -4.0840    0.1950 s6        1 IZF      2.946000
     19 O1         -4.4970   -3.7260   -1.0190 o         1 IZF     -0.995500
     20 O2         -2.7710   -3.2520    0.5640 o         1 IZF     -0.995500
     21 C23        -4.6200   -9.9370   -1.0160 c3        1 IZF     -0.112000
     22 C25        -3.4940   -7.8370   -1.0070 c2        1 IZF      0.125000
     23 C24        -8.0590   -2.5660    6.1830 c2        1 IZF     -0.102000
     24 C26        -6.8810   -3.4800    4.2820 c1        1 IZF      0.041000
     25 C7         -7.7870   -3.5760    5.3450 c2        1 IZF     -0.132000
     26 C8         -4.9000   -4.2530    1.4290 c2        1 IZF     -1.058000
     27 C9         -5.1890   -3.2770    2.3250 c2        1 IZF      0.251000
     28 C10        -6.1010   -3.4080    3.3660 c1        1 IZF     -0.238000
     29 C27        -6.1220  -11.9450   -0.6750 c3        1 IZF     -0.181000
     30 C18        -6.0620  -10.4770   -1.0780 c3        1 IZF      0.077000
     31 O3         -2.3010   -8.2570   -0.4570 oh        1 IZF     -0.280000
     32 Cl1        -3.8190   -2.1030   -5.2490 cl        1 IZF      0.127000
     33 C4         -7.1620  -12.1980    0.3980 c3        1 IZF     -0.202000
     34 C5         -8.5620  -12.3610   -0.1710 c3        1 IZF     -0.024000
     35 C32        -9.2270  -10.2750   -1.2050 ca        1 IZF      0.178000
     36 C33       -10.2920   -9.9260   -0.3840 ca        1 IZF     -0.223000
     37 C34       -10.8660   -8.6530   -0.5090 ca        1 IZF      0.026000
     38 C35       -10.4150   -7.7500   -1.4620 ca        1 IZF     -0.193000
     39 C36        -9.3460   -8.0980   -2.3090 ca        1 IZF      0.215000
     40 C37        -8.6750   -9.3380   -2.1390 ca        1 IZF     -0.301000
     41 C38        -7.5140   -9.7190   -2.8830 c2        1 IZF      0.467000
     42 O11        -6.4330  -10.3820   -2.5050 os        1 IZF     -0.210000
     43 O4         -7.4080   -9.3940   -4.1720 oh        1 IZF     -0.209000
     44 C39        -8.5300  -10.1770    3.0750 c3        1 IZF     -0.270000
     45 O14        -8.9690   -7.1460   -3.2050 oh        1 IZF     -0.215000
     46 O5         -8.7110  -11.5370   -1.3380 os        1 IZF     -0.235000
     47 H1         -1.5450   -0.9950   -3.9330 ha        1 IZF      0.201000
     48 H2C1       -1.7350    1.4830    0.4070 h4        1 IZF      0.206000
     49 H2C2        0.0860    1.5570    2.3410 ha        1 IZF      0.197000
     50 H4         -0.9500   -2.5670    2.1460 hn        1 IZF      0.277000
     51 H12        -0.0300   -2.0180   -2.2430 ha        1 IZF      0.206000
     52 H13        -0.2730   -4.4030   -1.5830 ha        1 IZF      0.184000
     53 H15        -4.0670   -4.0710   -3.0580 hc        1 IZF      0.216500
     54 H211       -3.2750   -4.8230   -4.5140 hc        1 IZF      0.216500
     55 H212       -2.5030   -6.7620   -3.2040 hc        1 IZF      0.134500
     56 H22        -1.3040   -6.5290   -1.8620 hc        1 IZF      0.134500
     57 H45        -4.3730   -5.9810   -1.7720 h1        1 IZF      0.139000
     58 H231       -2.3180   -9.2020   -0.2430 ho        1 IZF      0.240000
     59 H232       -3.9990  -10.5090   -1.7670 h1        1 IZF      0.116000
     60 H11        -4.2430  -10.1980    0.0180 h1        1 IZF      0.116000
     61 H24        -7.5910   -1.5740    6.1010 ha        1 IZF      0.139000
     62 H26        -8.7770   -2.6820    7.0080 ha        1 IZF      0.139000
     63 H7         -8.2770   -4.5620    5.4590 ha        1 IZF      0.153000
     64 H9         -5.4500   -5.2060    1.5420 h4        1 IZF      0.191000
     65 H10        -4.6830   -2.2800    2.2530 ha        1 IZF      0.195000
     66 H271       -6.7750   -9.8430   -0.4850 h1        1 IZF      0.135000
     67 H272       -5.1160  -12.2710   -0.2980 hc        1 IZF      0.128500
     68 H181       -6.3520  -12.5720   -1.5810 hc        1 IZF      0.128500
     69 H182       -9.1220  -10.3030    2.1400 hc        1 IZF      0.067500
     70 H4C1       -6.9030  -13.1480    0.9420 hc        1 IZF      0.117500
     71 H4C2       -7.1520  -11.3710    1.1590 hc        1 IZF      0.117500
     72 H5C1       -9.3410  -12.1420    0.6000 h1        1 IZF      0.129000
     73 H5C2       -8.7150  -13.3980   -0.5870 h1        1 IZF      0.129000
     74 H33       -10.7150  -10.6470    0.3330 ha        1 IZF      0.179000
     75 H34       -11.7160   -8.3790    0.1420 ha        1 IZF      0.179000
     76 H35       -10.8920   -6.7640   -1.5890 ha        1 IZF      0.192000
     77 H391       -6.5750   -9.7320   -4.5730 ho        1 IZF      0.305000
     78 H392       -8.2410  -11.1750    3.4700 hc        1 IZF      0.067500
     79 H393       -9.1460   -9.6460    3.8340 hc        1 IZF      0.067500
     80 H14        -8.4690   -7.5470   -3.9330 ho        1 IZF      0.245000
     81 N11        -4.5530   -8.5260   -1.2820 n2        1 IZF     -0.291000
     82 H452       -2.6180   -6.0090    0.5840 hn        1 IZF      0.259000
     83 H112       -7.6160   -9.5820    2.8590 hc        1 IZF      0.067500
@<TRIPOS>BOND
     1    1    2 1   
     2    1    5 1   
     3    1   48 1   
     4    2    3 1   
     5    2   49 1   
     6    3    4 1   
     7    3    8 1   
     8    4    5 1   
     9    4   50 1   
    10    5    6 1   
    11    5    7 1   
    12    9   10 1   
    13    9   14 1   
    14    9   47 1   
    15   10   11 1   
    16   10   51 1   
    17   11   12 1   
    18   11   52 1   
    19   12   13 1   
    20   12   15 1   
    21   13   14 1   
    22   13   53 1   
    23   13   54 1   
    24   14   32 1   
    25   15   16 1   
    26   15   55 1   
    27   15   56 1   
    28   16   17 1   
    29   16   22 1   
    30   16   57 1   
    31   17   18 1   
    32   17   82 1   
    33   18   19 1   
    34   18   20 1   
    35   18   26 1   
    36   21   30 1   
    37   21   59 1   
    38   21   60 1   
    39   21   81 1   
    40   22   31 1   
    41   22   81 1   
    42   23   25 1   
    43   23   61 1   
    44   23   62 1   
    45   24   25 1   
    46   24   28 1   
    47   25   63 1   
    48   26   27 1   
    49   26   64 1   
    50   27   28 1   
    51   27   65 1   
    52   29   30 1   
    53   29   33 1   
    54   29   67 1   
    55   29   68 1   
    56   30   42 1   
    57   30   66 1   
    58   31   58 1   
    59   33   34 1   
    60   33   70 1   
    61   33   71 1   
    62   34   46 1   
    63   34   72 1   
    64   34   73 1   
    65   35   36 1   
    66   35   40 1   
    67   35   46 1   
    68   36   37 1   
    69   36   74 1   
    70   37   38 1   
    71   37   75 1   
    72   38   39 1   
    73   38   76 1   
    74   39   40 1   
    75   39   45 1   
    76   40   41 1   
    77   41   42 1   
    78   41   43 1   
    79   43   77 1   
    80   44   69 1   
    81   44   78 1   
    82   44   79 1   
    83   44   83 1   
    84   45   80 1   
@<TRIPOS>SUBSTRUCTURE
     1 IZF         1 TEMP              0 ****  ****    0 ROOT
