@<TRIPOS>MOLECULE
IZG
   43    45     1     0     0
SMALL
bcc


@<TRIPOS>ATOM
      1 C1          5.0650   -2.1770    1.8460 c3        1 IZG      0.067300
      2 N2          3.8560   -1.8300    1.1280 n         1 IZG     -0.326000
      3 C3          3.4940   -0.5010    0.9650 cc        1 IZG      0.353200
      4 N4          4.3370    0.4710    1.5380 nc        1 IZG     -0.660300
      5 C5          3.9960    1.7350    1.4140 cd        1 IZG      0.534800
      6 N6          2.8710    2.2130    0.7720 n         1 IZG     -0.381300
      7 C7          2.6070    3.6330    0.6920 c3        1 IZG      0.047000
      8 C8          3.1580    4.3220   -0.5720 c3        1 IZG      0.093100
      9 O10         2.7080    3.7230   -1.7660 oh        1 IZG     -0.588800
     10 C11         2.7640    5.8060   -0.5350 c3        1 IZG      0.092400
     11 O12         3.5170    6.5000    0.4370 oh        1 IZG     -0.595800
     12 C13         1.9970    1.2910    0.1290 c         1 IZG      0.732700
     13 O14         1.0280    1.7780   -0.4890 o         1 IZG     -0.651500
     14 C15         2.3190   -0.1320    0.2610 cd        1 IZG     -0.309200
     15 C16         1.4620   -1.1560   -0.3150 cd        1 IZG      0.237000
     16 N17         0.3370   -0.8160   -1.0700 nh        1 IZG     -0.622400
     17 C18        -0.9520   -1.3000   -0.8120 ca        1 IZG      0.155600
     18 C19        -1.2560   -2.2010    0.2290 ca        1 IZG     -0.162000
     19 C20        -2.5490   -2.6740    0.4160 ca        1 IZG     -0.072000
     20 C21        -3.5880   -2.2600   -0.4150 ca        1 IZG      0.007900
     21 I22        -5.4610   -2.9550   -0.1290 i         1 IZG     -0.133900
     22 C23        -3.3300   -1.3620   -1.4460 ca        1 IZG     -0.101000
     23 C24        -2.0310   -0.8770   -1.6540 ca        1 IZG      0.073900
     24 F25        -1.8130    0.0080   -2.6590 f         1 IZG     -0.136900
     25 C26         1.8610   -2.4800   -0.1710 cc        1 IZG     -0.033700
     26 F27         1.1800   -3.5170   -0.7110 f         1 IZG     -0.130500
     27 C28         3.0640   -2.8680    0.5810 c         1 IZG      0.692700
     28 O29         3.4080   -4.0500    0.7470 o         1 IZG     -0.593500
     29 H1          5.0040   -1.8000    2.9020 h1        1 IZG      0.070033
     30 H1A         5.1840   -3.2940    1.8610 h1        1 IZG      0.070033
     31 H1B         5.9570   -1.7200    1.3400 h1        1 IZG      0.070033
     32 H5          4.6750    2.4870    1.8790 h5        1 IZG      0.067800
     33 H7          1.4860    3.7730    0.7180 h1        1 IZG      0.086200
     34 H7A         3.0540    4.1490    1.5890 h1        1 IZG      0.086200
     35 H8          4.2810    4.2290   -0.6160 h1        1 IZG      0.072700
     36 HO10        1.7580    3.5590   -1.6810 ho        1 IZG      0.426000
     37 H11         2.9040    6.2490   -1.5560 h1        1 IZG      0.064200
     38 H11A        1.6940    5.9330   -0.2190 h1        1 IZG      0.064200
     39 HO12        4.4090    6.6090    0.0860 ho        1 IZG      0.403000
     40 HN17        0.3580    0.0930   -1.5000 hn        1 IZG      0.468800
     41 H19        -0.4560   -2.5520    0.9000 ha        1 IZG      0.151000
     42 H20        -2.7390   -3.3850    1.2380 ha        1 IZG      0.150000
     43 H23        -4.1320   -1.0160   -2.1180 ha        1 IZG      0.160000
@<TRIPOS>BOND
     1    1    2 1   
     2    1   29 1   
     3    1   30 1   
     4    1   31 1   
     5    2    3 1   
     6    2   27 1   
     7    3    4 1   
     8    3   14 2   
     9    4    5 2   
    10    5    6 1   
    11    5   32 1   
    12    6    7 1   
    13    6   12 1   
    14    7    8 1   
    15    7   33 1   
    16    7   34 1   
    17    8    9 1   
    18    8   10 1   
    19    8   35 1   
    20    9   36 1   
    21   10   11 1   
    22   10   37 1   
    23   10   38 1   
    24   11   39 1   
    25   12   13 2   
    26   12   14 1   
    27   14   15 1   
    28   15   16 1   
    29   15   25 2   
    30   16   17 1   
    31   16   40 1   
    32   17   18 ar  
    33   17   23 ar  
    34   18   19 ar  
    35   18   41 1   
    36   19   20 ar  
    37   19   42 1   
    38   20   21 1   
    39   20   22 ar  
    40   22   23 ar  
    41   22   43 1   
    42   23   24 1   
    43   25   26 1   
    44   25   27 1   
    45   27   28 2   
@<TRIPOS>SUBSTRUCTURE
     1 IZG         1 TEMP              0 ****  ****    0 ROOT
