@<TRIPOS>MOLECULE
IZG
   44    46     1     0     0
SMALL
bcc


@<TRIPOS>ATOM
      1 C1          0.1150    0.2880    0.3410 c3        1 IZG      0.058300
      2 N2          1.5660    0.2210    0.2740 n         1 IZG     -0.311000
      3 C3          2.3160    0.0990    1.4330 cc        1 IZG      0.388200
      4 N4          1.6280    0.0410    2.6530 nc        1 IZG     -0.649300
      5 C5          2.3300   -0.1450    3.7550 cd        1 IZG      0.564800
      6 N6          3.7030   -0.2680    3.8410 n         1 IZG     -0.348300
      7 C7          4.3290   -0.6170    5.1050 c3        1 IZG      0.068000
      8 C8          3.8950   -1.9840    5.6720 c3        1 IZG      0.127100
      9 O10         4.2420   -2.9710    4.7190 oh        1 IZG     -0.606800
     10 C11         4.6180   -2.2170    7.0050 c3        1 IZG      0.096400
     11 O12         4.2040   -3.5030    7.4310 oh        1 IZG     -0.606800
     12 C13         4.4680   -0.1990    2.6530 c         1 IZG      0.735700
     13 O14         5.7100   -0.3240    2.7230 o         1 IZG     -0.653500
     14 C15         3.7410    0.0320    1.4000 cd        1 IZG     -0.326200
     15 C16         4.4120    0.1410    0.1360 cd        1 IZG      0.080000
     16 N17         5.8800    0.1390    0.0490 n4        1 IZG     -0.512200
     17 C18         6.4840    1.4770    0.1070 ca        1 IZG     -0.080400
     18 C19         5.9870    2.5320   -0.6760 ca        1 IZG     -0.077000
     19 C20         6.5900    3.7830   -0.6220 ca        1 IZG     -0.095000
     20 C21         7.6920    4.0100    0.2080 ca        1 IZG      0.080900
     21 I22         8.5460    5.8370    0.2780 i         1 IZG     -0.047900
     22 C23         8.2030    2.9760    0.9860 ca        1 IZG     -0.119000
     23 C24         7.6100    1.7000    0.9450 ca        1 IZG      0.171900
     24 F25         8.1230    0.6970    1.6890 f         1 IZG     -0.101900
     25 C26         3.6690    0.2200   -1.0240 cc        1 IZG      0.041300
     26 F27         4.2320    0.2760   -2.2490 f         1 IZG     -0.120500
     27 C28         2.1840    0.2540   -0.9960 c         1 IZG      0.689700
     28 O29         1.5140    0.3230   -2.0320 o         1 IZG     -0.525500
     29 H1         -0.2860   -0.6520    0.8050 h1        1 IZG      0.087033
     30 H1A        -0.1930    1.1730    0.9590 h1        1 IZG      0.087033
     31 H1B        -0.3050    0.3960   -0.6970 h1        1 IZG      0.087033
     32 H5          1.7530   -0.2010    4.7100 h5        1 IZG      0.091800
     33 H7          5.4470   -0.6290    4.9520 h1        1 IZG      0.097700
     34 H7A         4.0660    0.1790    5.8590 h1        1 IZG      0.097700
     35 H8          2.7810   -2.0140    5.8430 h1        1 IZG      0.051700
     36 HO10        4.1800   -3.8290    5.1660 ho        1 IZG      0.443000
     37 H11         5.7300   -2.1930    6.8570 h1        1 IZG      0.045700
     38 H11A        4.3160   -1.4400    7.7550 h1        1 IZG      0.045700
     39 HO12        4.6990   -3.7100    8.2330 ho        1 IZG      0.428000
     40 HN17        6.2630   -0.4320    0.8370 hn        1 IZG      0.488800
     41 H19         5.1210    2.3780   -1.3430 ha        1 IZG      0.167000
     42 H20         6.1840    4.5980   -1.2490 ha        1 IZG      0.182000
     43 H23         9.0760    3.1250    1.6460 ha        1 IZG      0.192000
     44 H172        6.1530   -0.2930   -0.8470 hn        1 IZG      0.488800
@<TRIPOS>BOND
     1    1    2 1   
     2    1   29 1   
     3    1   30 1   
     4    1   31 1   
     5    2    3 1   
     6    2   27 1   
     7    3    4 1   
     8    3   14 2   
     9    4    5 2   
    10    5    6 1   
    11    5   32 1   
    12    6    7 1   
    13    6   12 1   
    14    7    8 1   
    15    7   33 1   
    16    7   34 1   
    17    8    9 1   
    18    8   10 1   
    19    8   35 1   
    20    9   36 1   
    21   10   11 1   
    22   10   37 1   
    23   10   38 1   
    24   11   39 1   
    25   12   13 2   
    26   12   14 1   
    27   14   15 1   
    28   15   16 1   
    29   15   25 2   
    30   16   17 1   
    31   16   40 1   
    32   16   44 1   
    33   17   18 ar  
    34   17   23 ar  
    35   18   19 ar  
    36   18   41 1   
    37   19   20 ar  
    38   19   42 1   
    39   20   21 1   
    40   20   22 ar  
    41   22   23 ar  
    42   22   43 1   
    43   23   24 1   
    44   25   26 1   
    45   25   27 1   
    46   27   28 2   
@<TRIPOS>SUBSTRUCTURE
     1 IZG         1 TEMP              0 ****  ****    0 ROOT
