@<TRIPOS>MOLECULE
IZG
   43    45     1     0     0
SMALL
bcc


@<TRIPOS>ATOM
      1 C1          0.3500   -0.5060   -0.1210 c3        1 IZG      0.067300
      2 N2          1.7560   -0.1860    0.0200 n         1 IZG     -0.327000
      3 C3          2.4670   -0.6250    1.1270 cc        1 IZG      0.355200
      4 N4          1.7620   -1.3730    2.0900 nc        1 IZG     -0.666300
      5 C5          2.4160   -1.7840    3.1540 cd        1 IZG      0.542800
      6 N6          3.7550   -1.5640    3.4180 n         1 IZG     -0.385300
      7 C7          4.3490   -2.0940    4.6280 c3        1 IZG      0.077000
      8 C8          3.7570   -1.5180    5.9280 c3        1 IZG      0.125100
      9 O10         2.4580   -2.0730    6.0690 oh        1 IZG     -0.623800
     10 C11         4.6540   -1.9220    7.1040 c3        1 IZG      0.095400
     11 O12         3.9820   -1.4750    8.2710 oh        1 IZG     -0.610800
     12 C13         4.5310   -0.8100    2.4940 c         1 IZG      0.723700
     13 O14         5.7320   -0.6290    2.7760 o         1 IZG     -0.644500
     14 C15         3.8440   -0.3260    1.2920 cd        1 IZG     -0.317200
     15 C16         4.5450    0.4540    0.2850 cd        1 IZG      0.237000
     16 N17         5.9170    0.7030    0.3870 nh        1 IZG     -0.621400
     17 C18         6.4800    1.9840    0.3330 ca        1 IZG      0.155600
     18 C19         5.7290    3.1630    0.1470 ca        1 IZG     -0.161000
     19 C20         6.3470    4.4060    0.0660 ca        1 IZG     -0.073000
     20 C21         7.7310    4.5230    0.1790 ca        1 IZG      0.007900
     21 I22         8.6140    6.3340    0.0620 i         1 IZG     -0.134900
     22 C23         8.5060    3.3840    0.3760 ca        1 IZG     -0.102000
     23 C24         7.9010    2.1220    0.4560 ca        1 IZG      0.073900
     24 F25         8.6820    1.0310    0.6600 f         1 IZG     -0.136900
     25 C26         3.8240    0.8510   -0.8350 cc        1 IZG     -0.036700
     26 F27         4.3800    1.5280   -1.8670 f         1 IZG     -0.131500
     27 C28         2.3900    0.5670   -0.9960 c         1 IZG      0.692700
     28 O29         1.7280    0.9510   -1.9760 o         1 IZG     -0.595500
     29 H1          0.2110   -1.6200   -0.1440 h1        1 IZG      0.069367
     30 H1A        -0.2270   -0.0790    0.7420 h1        1 IZG      0.069367
     31 H1B        -0.0410   -0.0670   -1.0780 h1        1 IZG      0.069367
     32 H5          1.8410   -2.3570    3.9230 h5        1 IZG      0.094800
     33 H7          5.4550   -1.8690    4.6120 h1        1 IZG      0.089200
     34 H7A         4.2000   -3.2120    4.6350 h1        1 IZG      0.089200
     35 H8          3.6800   -0.3960    5.8880 h1        1 IZG      0.066700
     36 HO10        2.1440   -1.8380    6.9530 ho        1 IZG      0.435000
     37 H11         4.7820   -3.0370    7.1360 h1        1 IZG      0.042700
     38 H11A        5.6560   -1.4270    7.0160 h1        1 IZG      0.042700
     39 HO12        4.5190   -1.7450    9.0240 ho        1 IZG      0.417000
     40 HN17        6.4370    0.0500    0.9480 hn        1 IZG      0.466800
     41 H19         4.6330    3.1040    0.0490 ha        1 IZG      0.151000
     42 H20         5.7210    5.2990   -0.0890 ha        1 IZG      0.150000
     43 H23         9.6020    3.4470    0.4710 ha        1 IZG      0.160000
@<TRIPOS>BOND
     1    1    2 1   
     2    1   29 1   
     3    1   30 1   
     4    1   31 1   
     5    2    3 1   
     6    2   27 1   
     7    3    4 1   
     8    3   14 2   
     9    4    5 2   
    10    5    6 1   
    11    5   32 1   
    12    6    7 1   
    13    6   12 1   
    14    7    8 1   
    15    7   33 1   
    16    7   34 1   
    17    8    9 1   
    18    8   10 1   
    19    8   35 1   
    20    9   36 1   
    21   10   11 1   
    22   10   37 1   
    23   10   38 1   
    24   11   39 1   
    25   12   13 2   
    26   12   14 1   
    27   14   15 1   
    28   15   16 1   
    29   15   25 2   
    30   16   17 1   
    31   16   40 1   
    32   17   18 ar  
    33   17   23 ar  
    34   18   19 ar  
    35   18   41 1   
    36   19   20 ar  
    37   19   42 1   
    38   20   21 1   
    39   20   22 ar  
    40   22   23 ar  
    41   22   43 1   
    42   23   24 1   
    43   25   26 1   
    44   25   27 1   
    45   27   28 2   
@<TRIPOS>SUBSTRUCTURE
     1 IZG         1 TEMP              0 ****  ****    0 ROOT
