@<TRIPOS>MOLECULE
IZG
   43    45     1     0     0
SMALL
bcc


@<TRIPOS>ATOM
      1 C1          0.3190   -0.4820   -0.0750 c3        1 IZG      0.067300
      2 N2          1.7280   -0.1720    0.0500 n         1 IZG     -0.327000
      3 C3          2.4490   -0.6140    1.1490 cc        1 IZG      0.355200
      4 N4          1.7500   -1.3550    2.1220 nc        1 IZG     -0.666300
      5 C5          2.4130   -1.7690    3.1790 cd        1 IZG      0.542800
      6 N6          3.7560   -1.5580    3.4280 n         1 IZG     -0.385300
      7 C7          4.3600   -2.0900    4.6310 c3        1 IZG      0.077000
      8 C8          3.7870   -1.5080    5.9370 c3        1 IZG      0.125100
      9 O10         2.4860   -2.0540    6.0940 oh        1 IZG     -0.623800
     10 C11         4.6940   -1.9180    7.1040 c3        1 IZG      0.095400
     11 O12         4.0390   -1.4640    8.2770 oh        1 IZG     -0.610800
     12 C13         4.5270   -0.8110    2.4940 c         1 IZG      0.723700
     13 O14         5.7330   -0.6380    2.7620 o         1 IZG     -0.644500
     14 C15         3.8300   -0.3240    1.2990 cd        1 IZG     -0.317200
     15 C16         4.5250    0.4500    0.2830 cd        1 IZG      0.237000
     16 N17         5.9000    0.6890    0.3690 nu        1 IZG     -0.621400
     17 C18         6.4710    1.9670    0.3070 ca        1 IZG      0.155600
     18 C19         5.7260    3.1500    0.1270 ca        1 IZG     -0.161000
     19 C20         6.3510    4.3890    0.0370 ca        1 IZG     -0.073000
     20 C21         7.7370    4.4970    0.1350 ca        1 IZG      0.007900
     21 I22         8.6310    6.3020    0.0050 i         1 IZG     -0.134900
     22 C23         8.5060    3.3530    0.3250 ca        1 IZG     -0.102000
     23 C24         7.8940    2.0950    0.4140 ca        1 IZG      0.073900
     24 F25         8.6700    1.0000    0.6120 f         1 IZG     -0.136900
     25 C26         3.7950    0.8500   -0.8300 cc        1 IZG     -0.036700
     26 F27         4.3430    1.5210   -1.8690 f         1 IZG     -0.131500
     27 C28         2.3570    0.5750   -0.9750 c         1 IZG      0.692700
     28 O29         1.6870    0.9620   -1.9470 o         1 IZG     -0.595500
     29 H1         -0.2450   -0.0490    0.7930 h1        1 IZG      0.069367
     30 H1A        -0.0790   -0.0420   -1.0290 h1        1 IZG      0.069367
     31 H1B         0.1720   -1.5950   -0.0940 h1        1 IZG      0.069367
     32 H5          1.8420   -2.3370    3.9560 h5        1 IZG      0.095800
     33 H7          4.2030   -3.2070    4.6420 h1        1 IZG      0.089200
     34 H7A         5.4670   -1.8740    4.6030 h1        1 IZG      0.089200
     35 H8          3.7180   -0.3860    5.8970 h1        1 IZG      0.066700
     36 HO10        2.1830   -1.8160    6.9810 ho        1 IZG      0.435000
     37 H11         4.8140   -3.0330    7.1360 h1        1 IZG      0.042700
     38 H11A        5.6990   -1.4310    7.0040 h1        1 IZG      0.042700
     39 HO12        4.5820   -1.7370    9.0250 ho        1 IZG      0.417000
     40 HN17        6.4220    0.0340    0.9250 hn        1 IZG      0.466800
     41 H19         4.6290    3.0990    0.0410 ha        1 IZG      0.151000
     42 H20         5.7290    5.2870   -0.1130 ha        1 IZG      0.150000
     43 H23         9.6040    3.4080    0.4080 ha        1 IZG      0.160000
@<TRIPOS>BOND
     1    1    2 1   
     2    1   29 1   
     3    1   30 1   
     4    1   31 1   
     5    2    3 1   
     6    2   27 1   
     7    3    4 1   
     8    3   14 2   
     9    4    5 2   
    10    5    6 1   
    11    5   32 1   
    12    6    7 1   
    13    6   12 1   
    14    7    8 1   
    15    7   33 1   
    16    7   34 1   
    17    8    9 1   
    18    8   10 1   
    19    8   35 1   
    20    9   36 1   
    21   10   11 1   
    22   10   37 1   
    23   10   38 1   
    24   11   39 1   
    25   12   13 2   
    26   12   14 1   
    27   14   15 1   
    28   15   16 1   
    29   15   25 2   
    30   16   17 1   
    31   16   40 1   
    32   17   18 ar  
    33   17   23 ar  
    34   18   19 ar  
    35   18   41 1   
    36   19   20 ar  
    37   19   42 1   
    38   20   21 1   
    39   20   22 ar  
    40   22   23 ar  
    41   22   43 1   
    42   23   24 1   
    43   25   26 1   
    44   25   27 1   
    45   27   28 2   
@<TRIPOS>SUBSTRUCTURE
     1 IZG         1 TEMP              0 ****  ****    0 ROOT
