@<TRIPOS>MOLECULE
IZG
   43    41     1     0     0
SMALL
bcc


@<TRIPOS>ATOM
      1 C1         -4.3470   -1.2700   -1.7670 c3        1 IZG     -0.088000
      2 N2         -2.9250   -1.0370   -1.7420 n3        1 IZG     -0.219000
      3 C3         -2.1960   -1.0380   -0.4450 c2        1 IZG      0.212000
      4 N4         -2.9180   -1.2530    0.7830 n2        1 IZG     -0.238000
      5 C5         -2.2030   -1.2550    2.0720 c1        1 IZG      0.119000
      6 N6         -0.7480   -1.0360    2.1120 n2        1 IZG     -0.275000
      7 C7         -0.0350   -1.0880    3.3950 c3        1 IZG     -0.038000
      8 C8         -0.3310    0.1780    4.1910 c3        1 IZG      0.014000
      9 O10        -1.5600    0.0320    4.8620 oh        1 IZG     -0.351000
     10 C11         0.7650    0.4110    5.1960 c3        1 IZG     -0.055000
     11 O12         0.4860    1.5550    5.9220 oh        1 IZG     -0.338000
     12 C13        -0.0170   -0.8180    0.8910 c2        1 IZG      0.362000
     13 O14         1.1820   -0.7620    0.9120 o         1 IZG     -0.369000
     14 C15        -0.7370   -0.8140   -0.4130 c2        1 IZG     -0.298000
     15 C16         0.0180   -0.5850   -1.7030 c2        1 IZG      0.155000
     16 N17         1.4770   -0.4540   -1.6860 n3        1 IZG     -0.253000
     17 C18         2.1250    0.5410   -2.5130 c2        1 IZG      0.074000
     18 C19         2.8830    0.1460   -3.6140 c2        1 IZG     -0.161000
     19 C20         3.5570    1.0980   -4.3740 c1        1 IZG     -0.073000
     20 C21         3.4730    2.4500   -4.0330 c1        1 IZG     -0.278000
     21 I22         4.4180    3.9080   -5.2440 i         1 IZG      0.151000
     22 C23         2.7180    2.8440   -2.9350 c1        1 IZG     -0.102000
     23 C24         2.0420    1.8890   -2.1730 c1        1 IZG      0.039000
     24 F25         1.3260    2.2680   -1.1050 f         1 IZG     -0.102000
     25 C26        -0.7010   -0.5860   -2.9770 c1        1 IZG     -0.080000
     26 F27        -0.0290   -0.4050   -4.1320 f         1 IZG     -0.069000
     27 C28        -2.1940   -0.8180   -3.0000 c1        1 IZG      0.331000
     28 O29        -2.7950   -0.8190   -4.0620 o         1 IZG     -0.320000
     29 H1         -4.8080   -0.5480   -1.2790 h1        1 IZG      0.109000
     30 H1A        -4.5470   -2.1360   -1.3380 h1        1 IZG      0.109000
     31 H1B        -4.6570   -1.2860   -2.6930 h1        1 IZG      0.109000
     32 H5         -2.6960   -1.3580    2.8950 ha        1 IZG      0.225000
     33 H7          0.9280   -1.1530    3.2330 h1        1 IZG      0.128500
     34 H7A        -0.3360   -1.8750    3.9070 h1        1 IZG      0.128500
     35 H8         -0.3820    0.9430    3.5790 h1        1 IZG      0.107000
     36 HO10       -1.5630   -0.7360    5.3130 ho        1 IZG      0.235000
     37 H11         1.6130    0.5190    4.7320 h1        1 IZG      0.082000
     38 H11A        0.8200   -0.3540    5.8020 h1        1 IZG      0.082000
     39 HO12        1.2310    1.8750    6.2610 ho        1 IZG      0.216000
     40 HN17        1.9740   -0.9760   -1.1310 hn        1 IZG      0.262000
     41 H19         2.9420   -0.8100   -3.8560 ha        1 IZG      0.151000
     42 H20         4.0890    0.8210   -5.1470 ha        1 IZG      0.150000
     43 H23         2.6590    3.7940   -2.6950 ha        1 IZG      0.160000
@<TRIPOS>BOND
     1    1    2 1   
     2    1   29 1   
     3    1   30 1   
     4    1   31 1   
     5    2    3 1   
     6    2   27 1   
     7    3    4 1   
     8    3   14 1   
     9    4    5 1   
    10    5   32 1   
    11    6    7 1   
    12    6   12 1   
    13    7    8 1   
    14    7   33 1   
    15    7   34 1   
    16    8    9 1   
    17    8   10 1   
    18    8   35 1   
    19    9   36 1   
    20   10   11 1   
    21   10   37 1   
    22   10   38 1   
    23   11   39 1   
    24   12   13 1   
    25   12   14 1   
    26   14   15 1   
    27   15   16 1   
    28   15   25 1   
    29   16   17 1   
    30   16   40 1   
    31   17   18 1   
    32   17   23 1   
    33   18   19 1   
    34   18   41 1   
    35   19   42 1   
    36   20   21 1   
    37   20   22 1   
    38   22   43 1   
    39   23   24 1   
    40   25   26 1   
    41   27   28 1   
@<TRIPOS>SUBSTRUCTURE
     1 IZG         1 TEMP              0 ****  ****    0 ROOT
