@<TRIPOS>MOLECULE
IZN
   41    44     1     0     0
SMALL
bcc


@<TRIPOS>ATOM
      1 N1          0.1580   -0.6490    0.4520 n3        1 IZN     -0.708600
      2 C1          1.5970   -0.5340    0.4370 c3        1 IZN      0.167800
      3 C2          2.2260    0.2880    1.5620 c3        1 IZN     -0.072200
      4 C3         -3.0720    0.8390    0.7520 c2        1 IZN     -0.147200
      5 C4         -0.5640    0.6570    0.5350 c3        1 IZN      0.271600
      6 C5         -0.7580    1.2550   -0.8700 c3        1 IZN     -0.059400
      7 C6         -1.8550    2.3160   -0.9100 c3        1 IZN      0.141100
      8 C7         -3.1840    1.8840   -0.2890 c3        1 IZN     -0.079200
      9 C8         -1.9210    0.2760    1.1190 c2        1 IZN     -0.120400
     10 C9         -1.7390   -0.9390    1.9660 c3        1 IZN     -0.049200
     11 C10        -0.3940   -1.5290    1.4890 c3        1 IZN      0.159800
     12 C11         0.1350    1.6500    1.4500 c2        1 IZN     -0.115400
     13 C12         1.3910    1.4640    1.9030 c2        1 IZN     -0.151400
     14 C13         2.0070    2.4600    2.8260 c3        1 IZN      0.166600
     15 C14        -0.1970    3.2750    3.2900 c         1 IZN      0.716600
     16 C15        -0.5940    2.8650    1.9030 c3        1 IZN     -0.131200
     17 O1         -0.9110    3.8280    4.1260 o         1 IZN     -0.578500
     18 O2          1.0800    3.0510    3.7410 os        1 IZN     -0.408900
     19 O3         -2.0400    2.5890   -2.3080 os        1 IZN     -0.420600
     20 C16        -2.7400    3.7940   -2.5570 c3        1 IZN      0.114700
     21 H11C        1.8670   -0.0600   -0.5500 h1        1 IZN      0.059200
     22 H12C        2.0300   -1.5730    0.4550 h1        1 IZN      0.059200
     23 H101       -0.5490   -2.5360    1.0150 h1        1 IZN      0.044200
     24 H102        0.3020   -1.6560    2.3620 h1        1 IZN      0.044200
     25 H21C        2.3510   -0.3450    2.4820 hc        1 IZN      0.058700
     26 H22C        3.2500    0.6220    1.2450 hc        1 IZN      0.058700
     27 H3         -4.0290    0.5090    1.1890 ha        1 IZN      0.132000
     28 H71C       -3.6960    2.7870    0.1410 hc        1 IZN      0.062200
     29 H72C       -3.8480    1.4860   -1.1080 hc        1 IZN      0.062200
     30 H51C        0.2010    1.7120   -1.2230 hc        1 IZN      0.070200
     31 H52C       -1.0310    0.4390   -1.5910 hc        1 IZN      0.070200
     32 H6         -1.4980    3.2590   -0.4080 h1        1 IZN      0.032700
     33 H91C       -2.5710   -1.6710    1.8180 hc        1 IZN      0.060700
     34 H92C       -1.6940   -0.6750    3.0520 hc        1 IZN      0.060700
     35 H15        -1.7070    2.7040    1.8760 hc        1 IZN      0.095200
     36 H151       -0.3490    3.7310    1.2230 hc        1 IZN      0.095200
     37 H13         2.4850    3.2910    2.2360 h1        1 IZN      0.068200
     38 H131        2.7730    1.9840    3.4980 h1        1 IZN      0.068200
     39 H161       -2.7960    3.8580   -3.6720 h1        1 IZN      0.033367
     40 H162       -2.1820    4.6700   -2.1420 h1        1 IZN      0.033367
     41 H163       -3.7670    3.7560   -2.1150 h1        1 IZN      0.033367
@<TRIPOS>BOND
     1    1    2 1   
     2    1    5 1   
     3    1   11 1   
     4    2    3 1   
     5    2   21 1   
     6    2   22 1   
     7    3   13 1   
     8    3   25 1   
     9    3   26 1   
    10    4    8 1   
    11    4    9 2   
    12    4   27 1   
    13    5    6 1   
    14    5    9 1   
    15    5   12 1   
    16    6    7 1   
    17    6   30 1   
    18    6   31 1   
    19    7    8 1   
    20    7   19 1   
    21    7   32 1   
    22    8   28 1   
    23    8   29 1   
    24    9   10 1   
    25   10   11 1   
    26   10   33 1   
    27   10   34 1   
    28   11   23 1   
    29   11   24 1   
    30   12   13 2   
    31   12   16 1   
    32   13   14 1   
    33   14   18 1   
    34   14   37 1   
    35   14   38 1   
    36   15   16 1   
    37   15   17 2   
    38   15   18 1   
    39   16   35 1   
    40   16   36 1   
    41   19   20 1   
    42   20   39 1   
    43   20   40 1   
    44   20   41 1   
@<TRIPOS>SUBSTRUCTURE
     1 IZN         1 TEMP              0 ****  ****    0 ROOT
