@<TRIPOS>MOLECULE
IZN
   41    44     1     0     0
SMALL
bcc


@<TRIPOS>ATOM
      1 N1          0.0890   -0.6740    0.4450 n3        1 IZN     -0.708600
      2 C1          1.5320   -0.6110    0.4530 c3        1 IZN      0.167800
      3 C2          2.1740    0.1790    1.5940 c3        1 IZN     -0.072200
      4 C3         -3.0880    0.9280    0.7110 c2        1 IZN     -0.147200
      5 C4         -0.5860    0.6570    0.5300 c3        1 IZN      0.271600
      6 C5         -0.7370    1.2740   -0.8720 c3        1 IZN     -0.059400
      7 C6         -1.7940    2.3740   -0.9190 c3        1 IZN      0.141100
      8 C7         -3.1470    1.9850   -0.3220 c3        1 IZN     -0.079200
      9 C8         -1.9640    0.3210    1.0900 c2        1 IZN     -0.120400
     10 C9         -1.8390   -0.9080    1.9280 c3        1 IZN     -0.049200
     11 C10        -0.5100   -1.5420    1.4660 c3        1 IZN      0.159800
     12 C11         0.1350    1.6160    1.4640 c2        1 IZN     -0.115400
     13 C12         1.3770    1.3810    1.9340 c2        1 IZN     -0.151400
     14 C13         2.0150    2.3460    2.8740 c3        1 IZN      0.166600
     15 C14        -0.1660    3.2350    3.3130 c         1 IZN      0.716600
     16 C15        -0.5570    2.8530    1.9170 c3        1 IZN     -0.131200
     17 O1         -0.8720    3.8070    4.1440 o         1 IZN     -0.578500
     18 O2          1.0950    2.9620    3.7820 os        1 IZN     -0.408900
     19 O3         -1.9480    2.6660   -2.3160 os        1 IZN     -0.420600
     20 C16        -2.6010    3.8980   -2.5640 c3        1 IZN      0.114700
     21 H11C        1.8330   -0.1380   -0.5260 h1        1 IZN      0.059200
     22 H12C        1.9260   -1.6650    0.4680 h1        1 IZN      0.059200
     23 H101       -0.6930   -2.5380    0.9810 h1        1 IZN      0.044200
     24 H102        0.1680   -1.7020    2.3490 h1        1 IZN      0.044200
     25 H21C        3.2130    0.4770    1.2950 hc        1 IZN      0.058700
     26 H22C        2.2610   -0.4670    2.5100 hc        1 IZN      0.058700
     27 H3         -4.0630    0.6290    1.1320 ha        1 IZN      0.132000
     28 H71C       -3.6330    2.9020    0.1080 hc        1 IZN      0.062200
     29 H72C       -3.8120    1.6190   -1.1540 hc        1 IZN      0.062200
     30 H51C       -1.0290    0.4740   -1.6050 hc        1 IZN      0.070200
     31 H52C        0.2430    1.6980   -1.2070 hc        1 IZN      0.070200
     32 H6         -1.4110    3.2990   -0.4030 h1        1 IZN      0.032700
     33 H91C       -1.8010   -0.6550    3.0170 hc        1 IZN      0.060700
     34 H92C       -2.6950   -1.6070    1.7620 hc        1 IZN      0.060700
     35 H15        -1.6740    2.7330    1.8730 hc        1 IZN      0.095200
     36 H151       -0.2700    3.7140    1.2500 hc        1 IZN      0.095200
     37 H13         2.5300    3.1630    2.2990 h1        1 IZN      0.068200
     38 H131        2.7520    1.8370    3.5540 h1        1 IZN      0.068200
     39 H161       -2.0170    4.7490   -2.1340 h1        1 IZN      0.033367
     40 H162       -2.6370    3.9730   -3.6800 h1        1 IZN      0.033367
     41 H163       -3.6350    3.8930   -2.1390 h1        1 IZN      0.033367
@<TRIPOS>BOND
     1    1    2 1   
     2    1    5 1   
     3    1   11 1   
     4    2    3 1   
     5    2   21 1   
     6    2   22 1   
     7    3   13 1   
     8    3   25 1   
     9    3   26 1   
    10    4    8 1   
    11    4    9 2   
    12    4   27 1   
    13    5    6 1   
    14    5    9 1   
    15    5   12 1   
    16    6    7 1   
    17    6   30 1   
    18    6   31 1   
    19    7    8 1   
    20    7   19 1   
    21    7   32 1   
    22    8   28 1   
    23    8   29 1   
    24    9   10 1   
    25   10   11 1   
    26   10   33 1   
    27   10   34 1   
    28   11   23 1   
    29   11   24 1   
    30   12   13 2   
    31   12   16 1   
    32   13   14 1   
    33   14   18 1   
    34   14   37 1   
    35   14   38 1   
    36   15   16 1   
    37   15   17 2   
    38   15   18 1   
    39   16   35 1   
    40   16   36 1   
    41   19   20 1   
    42   20   39 1   
    43   20   40 1   
    44   20   41 1   
@<TRIPOS>SUBSTRUCTURE
     1 IZN         1 TEMP              0 ****  ****    0 ROOT
