@<TRIPOS>MOLECULE
IZN
   41    44     1     0     0
SMALL
bcc


@<TRIPOS>ATOM
      1 N1         -0.4060   -2.2060    0.6800 n3        1 IZN     -0.708600
      2 C1          0.4100   -2.9750   -0.2300 c3        1 IZN      0.167800
      3 C2          1.7860   -2.4000   -0.5630 c3        1 IZN     -0.072200
      4 C3         -1.7970    0.9090    1.7260 c2        1 IZN     -0.147200
      5 C4         -0.5800   -0.7740    0.2920 c3        1 IZN      0.271600
      6 C5         -1.7590   -0.6200   -0.6850 c3        1 IZN     -0.059400
      7 C6         -2.2770    0.8140   -0.7610 c3        1 IZN      0.141100
      8 C7         -2.5760    1.4560    0.5940 c3        1 IZN     -0.079200
      9 C8         -0.9190   -0.0870    1.6110 c2        1 IZN     -0.120400
     10 C9         -0.2800   -0.8600    2.7160 c3        1 IZN     -0.049200
     11 C10         0.0160   -2.2380    2.0860 c3        1 IZN      0.159800
     12 C11         0.6870   -0.1730   -0.2960 c2        1 IZN     -0.115400
     13 C12         1.7420   -0.9230   -0.6730 c2        1 IZN     -0.151400
     14 C13         2.9700   -0.2690   -1.2110 c3        1 IZN      0.166600
     15 C14         2.2060    1.7820   -0.2370 c         1 IZN      0.716600
     16 C15         0.7990    1.3040   -0.4370 c3        1 IZN     -0.131200
     17 O1          2.5550    2.8650    0.2330 o         1 IZN     -0.578500
     18 O2          3.2670    0.9910   -0.6020 os        1 IZN     -0.408900
     19 O3         -3.4860    0.7200   -1.5300 os        1 IZN     -0.420600
     20 C16        -3.9310    1.9670   -2.0310 c3        1 IZN      0.114700
     21 H11C        0.5370   -4.0060    0.2030 h1        1 IZN      0.059200
     22 H12C       -0.1830   -3.0670   -1.1850 h1        1 IZN      0.059200
     23 H101       -0.5850   -3.0420    2.5900 h1        1 IZN      0.044200
     24 H102        1.1060   -2.4890    2.2040 h1        1 IZN      0.044200
     25 H21C        2.5270   -2.6810    0.2350 hc        1 IZN      0.058700
     26 H22C        2.1480   -2.8480   -1.5260 hc        1 IZN      0.058700
     27 H3         -2.0220    1.3550    2.7090 ha        1 IZN      0.132000
     28 H71C       -3.6700    1.3100    0.8240 hc        1 IZN      0.062200
     29 H72C       -2.4010    2.5630    0.5190 hc        1 IZN      0.062200
     30 H51C       -1.4470   -0.9480   -1.7100 hc        1 IZN      0.070200
     31 H52C       -2.6050   -1.2840   -0.3600 hc        1 IZN      0.070200
     32 H6         -1.5450    1.4580   -1.3260 h1        1 IZN      0.032700
     33 H91C        0.6650   -0.3700    3.0620 hc        1 IZN      0.060700
     34 H92C       -0.9630   -0.9610    3.5950 hc        1 IZN      0.060700
     35 H15         0.4930    1.6100   -1.4780 hc        1 IZN      0.095200
     36 H151        0.1290    1.8330    0.2950 hc        1 IZN      0.095200
     37 H13         3.8900   -0.8820   -1.0080 h1        1 IZN      0.068200
     38 H131        2.8640   -0.0990   -2.3180 h1        1 IZN      0.068200
     39 H161       -3.1670    2.4160   -2.7120 h1        1 IZN      0.033367
     40 H162       -4.8640    1.7210   -2.5980 h1        1 IZN      0.033367
     41 H163       -4.1570    2.6740   -1.1950 h1        1 IZN      0.033367
@<TRIPOS>BOND
     1    1    2 1   
     2    1    5 1   
     3    1   11 1   
     4    2    3 1   
     5    2   21 1   
     6    2   22 1   
     7    3   13 1   
     8    3   25 1   
     9    3   26 1   
    10    4    8 1   
    11    4    9 2   
    12    4   27 1   
    13    5    6 1   
    14    5    9 1   
    15    5   12 1   
    16    6    7 1   
    17    6   30 1   
    18    6   31 1   
    19    7    8 1   
    20    7   19 1   
    21    7   32 1   
    22    8   28 1   
    23    8   29 1   
    24    9   10 1   
    25   10   11 1   
    26   10   33 1   
    27   10   34 1   
    28   11   23 1   
    29   11   24 1   
    30   12   13 2   
    31   12   16 1   
    32   13   14 1   
    33   14   18 1   
    34   14   37 1   
    35   14   38 1   
    36   15   16 1   
    37   15   17 2   
    38   15   18 1   
    39   16   35 1   
    40   16   36 1   
    41   19   20 1   
    42   20   39 1   
    43   20   40 1   
    44   20   41 1   
@<TRIPOS>SUBSTRUCTURE
     1 IZN         1 TEMP              0 ****  ****    0 ROOT
