@<TRIPOS>MOLECULE
IZN
   41    44     1     0     0
SMALL
bcc


@<TRIPOS>ATOM
      1 N1          0.1340   -0.6540    0.4350 n3        1 IZN     -0.708600
      2 C1          1.5750   -0.5600    0.4550 c3        1 IZN      0.167800
      3 C2          2.1900    0.2330    1.6080 c3        1 IZN     -0.072200
      4 C3         -3.0800    0.8740    0.6900 c2        1 IZN     -0.147200
      5 C4         -0.5710    0.6600    0.5270 c3        1 IZN      0.271600
      6 C5         -0.7250    1.2870   -0.8710 c3        1 IZN     -0.059400
      7 C6         -1.8060    2.3640   -0.9160 c3        1 IZN      0.141100
      8 C7         -3.1540    1.9390   -0.3340 c3        1 IZN     -0.079200
      9 C8         -1.9460    0.2880    1.0730 c2        1 IZN     -0.120400
     10 C9         -1.8000   -0.9450    1.9000 c3        1 IZN     -0.049200
     11 C10        -0.4530   -1.5460    1.4430 c3        1 IZN      0.159800
     12 C11         0.1210    1.6260    1.4750 c2        1 IZN     -0.115400
     13 C12         1.3640    1.4140    1.9530 c2        1 IZN     -0.151400
     14 C13         1.9730    2.3840    2.9080 c3        1 IZN      0.166600
     15 C14        -0.2300    3.2210    3.3370 c         1 IZN      0.716600
     16 C15        -0.6010    2.8430    1.9350 c3        1 IZN     -0.131200
     17 O1         -0.9550    3.7680    4.1680 o         1 IZN     -0.578500
     18 O2          1.0330    2.9700    3.8130 os        1 IZN     -0.408900
     19 O3         -1.9550    2.6660   -2.3120 os        1 IZN     -0.420600
     20 C16        -2.6330    3.8850   -2.5530 c3        1 IZN      0.114700
     21 H11C        1.8740   -0.0710   -0.5170 h1        1 IZN      0.059200
     22 H12C        1.9920   -1.6050    0.4630 h1        1 IZN      0.059200
     23 H101       -0.6110   -2.5410    0.9470 h1        1 IZN      0.044200
     24 H102        0.2210   -1.6980    2.3290 h1        1 IZN      0.044200
     25 H21C        2.2850   -0.4190    2.5190 hc        1 IZN      0.058700
     26 H22C        3.2250    0.5570    1.3200 hc        1 IZN      0.058700
     27 H3         -4.0510    0.5490    1.1000 ha        1 IZN      0.132000
     28 H71C       -3.6640    2.8410    0.1010 hc        1 IZN      0.062200
     29 H72C       -3.8040    1.5660   -1.1750 hc        1 IZN      0.062200
     30 H51C        0.2490    1.7360   -1.1940 hc        1 IZN      0.070200
     31 H52C       -0.9930    0.4880   -1.6130 hc        1 IZN      0.070200
     32 H6         -1.4470    3.2920   -0.3880 h1        1 IZN      0.032700
     33 H91C       -1.7760   -0.7020    2.9920 hc        1 IZN      0.060700
     34 H92C       -2.6380   -1.6620    1.7200 hc        1 IZN      0.060700
     35 H15        -0.3290    3.7170    1.2770 hc        1 IZN      0.095200
     36 H151       -1.7150    2.6980    1.8800 hc        1 IZN      0.095200
     37 H13         2.4750    3.2180    2.3440 h1        1 IZN      0.068200
     38 H131        2.7170    1.8850    3.5880 h1        1 IZN      0.068200
     39 H161       -3.6700    3.8530   -2.1370 h1        1 IZN      0.033367
     40 H162       -2.6620    3.9700   -3.6690 h1        1 IZN      0.033367
     41 H163       -2.0720    4.7450   -2.1100 h1        1 IZN      0.033367
@<TRIPOS>BOND
     1    1    2 1   
     2    1    5 1   
     3    1   11 1   
     4    2    3 1   
     5    2   21 1   
     6    2   22 1   
     7    3   13 1   
     8    3   25 1   
     9    3   26 1   
    10    4    8 1   
    11    4    9 2   
    12    4   27 1   
    13    5    6 1   
    14    5    9 1   
    15    5   12 1   
    16    6    7 1   
    17    6   30 1   
    18    6   31 1   
    19    7    8 1   
    20    7   19 1   
    21    7   32 1   
    22    8   28 1   
    23    8   29 1   
    24    9   10 1   
    25   10   11 1   
    26   10   33 1   
    27   10   34 1   
    28   11   23 1   
    29   11   24 1   
    30   12   13 2   
    31   12   16 1   
    32   13   14 1   
    33   14   18 1   
    34   14   37 1   
    35   14   38 1   
    36   15   16 1   
    37   15   17 2   
    38   15   18 1   
    39   16   35 1   
    40   16   36 1   
    41   19   20 1   
    42   20   39 1   
    43   20   40 1   
    44   20   41 1   
@<TRIPOS>SUBSTRUCTURE
     1 IZN         1 TEMP              0 ****  ****    0 ROOT
