@<TRIPOS>MOLECULE
IZO
   17    16     1     0     0
SMALL
bcc


@<TRIPOS>ATOM
      1 N           0.6550    1.9400    0.1230 n3        1 IZO     -0.893800
      2 CA          0.5980    0.5070    0.3920 c3        1 IZO      0.014500
      3 C           1.8330   -0.2980   -0.1350 c         1 IZO      0.888600
      4 O           2.7490    0.3400   -0.7290 o         1 IZO     -0.842300
      5 CB         -0.6690   -0.1580   -0.1460 c3        1 IZO     -0.057400
      6 CG         -1.9140    0.3480    0.5640 c3        1 IZO     -0.018300
      7 CD         -3.1130   -0.2960    0.1100 c1        1 IZO     -0.090100
      8 CE         -4.1200   -0.8260   -0.2630 c1        1 IZO     -0.234500
      9 OXT         1.8540   -1.5400    0.0850 o         1 IZO     -0.842300
     10 HN1         1.5980    2.2390    0.3130 hn        1 IZO      0.331300
     11 HN2         0.5110    2.0830   -0.8610 hn        1 IZO      0.331300
     12 HA          0.6050    0.3940    1.5160 h1        1 IZO      0.040700
     13 HB1C       -0.7630    0.0190   -1.2480 hc        1 IZO      0.053700
     14 HB2C       -0.5560   -1.2640    0.0120 hc        1 IZO      0.053700
     15 HG1C       -1.8010    0.1780    1.6710 hc        1 IZO      0.058700
     16 HG2C       -2.0120    1.4590    0.4070 hc        1 IZO      0.058700
     17 HE         -5.0040   -1.3000   -0.5960 ha        1 IZO      0.147500
@<TRIPOS>BOND
     1    1    2 1   
     2    1   10 1   
     3    1   11 1   
     4    2    3 1   
     5    2    5 1   
     6    2   12 1   
     7    3    4 1   
     8    3    9 1   
     9    5    6 1   
    10    5   13 1   
    11    5   14 1   
    12    6    7 1   
    13    6   15 1   
    14    6   16 1   
    15    7    8 3   
    16    8   17 1   
@<TRIPOS>SUBSTRUCTURE
     1 IZO         1 TEMP              0 ****  ****    0 ROOT
