@<TRIPOS>MOLECULE
IZP
   32    29     1     0     0
SMALL
bcc


@<TRIPOS>ATOM
      1 C1         -0.4390   -3.4860    2.2120 c1        1 IZP      0.342000
      2 O1          0.0260   -4.5340    1.6930 o         1 IZP     -0.572000
      3 C2          0.2530    1.9070   -1.3110 c3        1 IZP     -0.105000
      4 O2          0.0550   -3.0410    3.2810 o         1 IZP     -0.572000
      5 C3          1.6160    2.3450   -0.8190 c3        1 IZP     -0.107000
      6 C4          1.4780    3.6260   -0.0250 c3        1 IZP     -0.206000
      7 C5          2.5280    2.5810   -2.0040 c3        1 IZP     -0.206000
      8 C6         -1.6050   -2.7740    1.5630 c2        1 IZP     -0.164000
      9 C7         -2.2810   -3.7050    0.5810 c3        1 IZP     -0.179000
     10 C8         -1.1030   -1.5470    0.8320 c2        1 IZP     -0.005000
     11 C9         -0.0480   -1.6550   -0.0600 c2        1 IZP     -0.117000
     12 C10         0.4030   -0.5340   -0.7390 c1        1 IZP     -0.139000
     13 C11        -0.2010    0.6950   -0.5260 c1        1 IZP     -0.113000
     14 C12        -1.2560    0.8030    0.3670 c1        1 IZP     -0.142000
     15 C13        -1.7070   -0.3180    1.0460 c1        1 IZP     -0.150000
     16 H2         -0.3880    2.6350   -1.1860 hc        1 IZP      0.071500
     17 H2A         0.3070    1.6790   -2.2610 hc        1 IZP      0.071500
     18 H3          1.9960    1.6490   -0.2500 hc        1 IZP      0.098000
     19 H4          2.3260    4.1180   -0.0500 hc        1 IZP      0.068167
     20 H4A         1.2520    3.4120    0.9040 hc        1 IZP      0.068167
     21 H4B         0.7690    4.1780   -0.4160 hc        1 IZP      0.068167
     22 H5          2.1350    3.2640   -2.5870 hc        1 IZP      0.068167
     23 H5A         2.6350    1.7460   -2.5050 hc        1 IZP      0.068167
     24 H5B         3.4030    2.8870   -1.6860 hc        1 IZP      0.068167
     25 H6         -2.2450   -2.5050    2.2490 ha        1 IZP      0.083000
     26 H7         -1.6010   -4.2040    0.0820 hc        1 IZP      0.059333
     27 H7A        -2.8250   -3.1810   -0.0440 hc        1 IZP      0.059333
     28 H7B        -2.8550   -4.3320    1.0680 hc        1 IZP      0.059333
     29 H9          0.3650   -2.5240   -0.2250 ha        1 IZP      0.185000
     30 H10         1.1460   -0.6110   -1.3680 ha        1 IZP      0.112000
     31 H12        -1.6870    1.6670    0.5100 ha        1 IZP      0.106000
     32 H13        -2.4500   -0.2420    1.6740 ha        1 IZP      0.119000
@<TRIPOS>BOND
     1    1    2 1   
     2    1    4 1   
     3    3    5 1   
     4    3   13 1   
     5    3   16 1   
     6    3   17 1   
     7    5    6 1   
     8    5    7 1   
     9    5   18 1   
    10    6   19 1   
    11    6   20 1   
    12    6   21 1   
    13    7   22 1   
    14    7   23 1   
    15    7   24 1   
    16    8    9 1   
    17    8   10 1   
    18    8   25 1   
    19    9   26 1   
    20    9   27 1   
    21    9   28 1   
    22   10   11 1   
    23   10   15 1   
    24   11   12 1   
    25   11   29 1   
    26   12   30 1   
    27   13   14 1   
    28   14   31 1   
    29   15   32 1   
@<TRIPOS>SUBSTRUCTURE
     1 IZP         1 TEMP              0 ****  ****    0 ROOT
