@<TRIPOS>MOLECULE
IZP
   32    32     1     0     0
SMALL
bcc


@<TRIPOS>ATOM
      1 C1         -0.1200    0.1830    0.3560 c         1 IZP      0.922600
      2 O1         -0.8690   -0.6700   -0.1920 o         1 IZP     -0.837300
      3 C2          3.5660    4.4760   -2.9440 c3        1 IZP     -0.019100
      4 O2         -0.5260    1.1150    1.1080 o         1 IZP     -0.837300
      5 C3          4.7280    5.1630   -2.2320 c3        1 IZP     -0.067700
      6 C4          5.9690    4.2960   -2.2600 c3        1 IZP     -0.088100
      7 C5          5.0090    6.5100   -2.8640 c3        1 IZP     -0.088100
      8 C6          1.4130    0.0430    0.1060 c3        1 IZP     -0.167400
      9 C7          2.1170   -0.0660    1.4420 c3        1 IZP     -0.061100
     10 C8          1.9560    1.1810   -0.6870 ca        1 IZP     -0.012300
     11 C9          1.6390    2.5060   -0.3480 ca        1 IZP     -0.133500
     12 C10         2.1650    3.5660   -1.0760 ca        1 IZP     -0.140000
     13 C11         3.0170    3.3340   -2.1640 ca        1 IZP     -0.120300
     14 C12         3.3240    2.0160   -2.5120 ca        1 IZP     -0.140000
     15 C13         2.7980    0.9510   -1.7820 ca        1 IZP     -0.133500
     16 H2          2.7510    5.2290   -3.1140 hc        1 IZP      0.035200
     17 H2A         3.9110    4.1250   -3.9530 hc        1 IZP      0.035200
     18 H3          4.4300    5.3250   -1.1570 hc        1 IZP      0.055700
     19 H4          5.7270    3.2750   -1.8760 hc        1 IZP      0.028367
     20 H4A         6.3570    4.1990   -3.3030 hc        1 IZP      0.028367
     21 H4B         6.7710    4.7420   -1.6250 hc        1 IZP      0.028367
     22 H5          4.1190    7.1770   -2.7740 hc        1 IZP      0.028367
     23 H5A         5.8750    7.0020   -2.3590 hc        1 IZP      0.028367
     24 H5B         5.2530    6.3920   -3.9470 hc        1 IZP      0.028367
     25 H6          1.5670   -0.9120   -0.4690 hc        1 IZP      0.044700
     26 H7          1.7560   -0.9730    1.9830 hc        1 IZP      0.020033
     27 H7A         1.8840    0.8320    2.0650 hc        1 IZP      0.020033
     28 H7B         3.2240   -0.1430    1.3110 hc        1 IZP      0.020033
     29 H9          0.9360    2.6730    0.4910 ha        1 IZP      0.152500
     30 H10         1.9050    4.6000   -0.8040 ha        1 IZP      0.109000
     31 H12         3.9830    1.8170   -3.3690 ha        1 IZP      0.109000
     32 H13         3.0400   -0.0810   -2.0750 ha        1 IZP      0.152500
@<TRIPOS>BOND
     1    1    2 1   
     2    1    4 1   
     3    1    8 1   
     4    3    5 1   
     5    3   13 1   
     6    3   16 1   
     7    3   17 1   
     8    5    6 1   
     9    5    7 1   
    10    5   18 1   
    11    6   19 1   
    12    6   20 1   
    13    6   21 1   
    14    7   22 1   
    15    7   23 1   
    16    7   24 1   
    17    8    9 1   
    18    8   10 1   
    19    8   25 1   
    20    9   26 1   
    21    9   27 1   
    22    9   28 1   
    23   10   11 ar  
    24   10   15 ar  
    25   11   12 ar  
    26   11   29 1   
    27   12   13 ar  
    28   12   30 1   
    29   13   14 ar  
    30   14   15 ar  
    31   14   31 1   
    32   15   32 1   
@<TRIPOS>SUBSTRUCTURE
     1 IZP         1 TEMP              0 ****  ****    0 ROOT
