@<TRIPOS>MOLECULE
IZP
   32    32     1     0     0
SMALL
bcc


@<TRIPOS>ATOM
      1 C1         -0.1330    0.1980    0.3510 c         1 IZP      0.922600
      2 O1         -0.9080   -0.6280   -0.2040 o         1 IZP     -0.837300
      3 C2          3.5660    4.5100   -2.9090 c3        1 IZP     -0.019100
      4 O2         -0.5070    1.1160    1.1350 o         1 IZP     -0.837300
      5 C3          4.7510    5.1600   -2.2000 c3        1 IZP     -0.067700
      6 C4          5.9770    4.2740   -2.2710 c3        1 IZP     -0.088100
      7 C5          5.0440    6.5180   -2.8040 c3        1 IZP     -0.088100
      8 C6          1.3920    0.0360    0.0670 c3        1 IZP     -0.167400
      9 C7          2.1210   -0.1200    1.3850 c3        1 IZP     -0.061100
     10 C8          1.9400    1.1850   -0.7070 ca        1 IZP     -0.012300
     11 C9          1.6540    2.5060   -0.3270 ca        1 IZP     -0.133500
     12 C10         2.1850    3.5760   -1.0380 ca        1 IZP     -0.140000
     13 C11         3.0120    3.3580   -2.1480 ca        1 IZP     -0.120300
     14 C12         3.2880    2.0440   -2.5360 ca        1 IZP     -0.140000
     15 C13         2.7570    0.9700   -1.8240 ca        1 IZP     -0.133500
     16 H2          3.8880    4.1790   -3.9320 hc        1 IZP      0.035200
     17 H2A         2.7610    5.2810   -3.0460 hc        1 IZP      0.035200
     18 H3          4.4740    5.3000   -1.1170 hc        1 IZP      0.055700
     19 H4          6.7970    4.6910   -1.6390 hc        1 IZP      0.028367
     20 H4A         5.7250    3.2480   -1.9070 hc        1 IZP      0.028367
     21 H4B         6.3460    4.1960   -3.3220 hc        1 IZP      0.028367
     22 H5          4.1670    7.1970   -2.6820 hc        1 IZP      0.028367
     23 H5A         5.2680    6.4230   -3.8930 hc        1 IZP      0.028367
     24 H5B         5.9260    6.9830   -2.3010 hc        1 IZP      0.028367
     25 H6          1.5180   -0.9060   -0.5350 hc        1 IZP      0.044700
     26 H7          1.9160    0.7650    2.0360 hc        1 IZP      0.020033
     27 H7A         1.7540   -1.0350    1.9090 hc        1 IZP      0.020033
     28 H7B         3.2230   -0.2130    1.2310 hc        1 IZP      0.020033
     29 H9          0.9700    2.6630    0.5290 ha        1 IZP      0.152500
     30 H10         1.9490    4.6060   -0.7340 ha        1 IZP      0.109000
     31 H12         3.9270    1.8560   -3.4110 ha        1 IZP      0.109000
     32 H13         2.9750   -0.0580   -2.1480 ha        1 IZP      0.152500
@<TRIPOS>BOND
     1    1    2 1   
     2    1    4 1   
     3    1    8 1   
     4    3    5 1   
     5    3   13 1   
     6    3   16 1   
     7    3   17 1   
     8    5    6 1   
     9    5    7 1   
    10    5   18 1   
    11    6   19 1   
    12    6   20 1   
    13    6   21 1   
    14    7   22 1   
    15    7   23 1   
    16    7   24 1   
    17    8    9 1   
    18    8   10 1   
    19    8   25 1   
    20    9   26 1   
    21    9   27 1   
    22    9   28 1   
    23   10   11 ar  
    24   10   15 ar  
    25   11   12 ar  
    26   11   29 1   
    27   12   13 ar  
    28   12   30 1   
    29   13   14 ar  
    30   14   15 ar  
    31   14   31 1   
    32   15   32 1   
@<TRIPOS>SUBSTRUCTURE
     1 IZP         1 TEMP              0 ****  ****    0 ROOT
