@<TRIPOS>MOLECULE
IZP
   32    32     1     0     0
SMALL
bcc


@<TRIPOS>ATOM
      1 C1          3.5210    0.5530   -0.1680 c         1 IZP      0.922600
      2 O1          4.3480    0.7580    0.7600 o         1 IZP     -0.837300
      3 C2         -2.9800    0.6860    0.6270 c3        1 IZP     -0.019100
      4 O2          3.4060    1.2760   -1.1980 o         1 IZP     -0.837300
      5 C3         -3.8720    0.0300   -0.4230 c3        1 IZP     -0.067700
      6 C4         -4.0160   -1.4540   -0.1610 c3        1 IZP     -0.088100
      7 C5         -5.2310    0.6960   -0.4490 c3        1 IZP     -0.088100
      8 C6          2.6080   -0.7050   -0.0370 c3        1 IZP     -0.167400
      9 C7          2.7900   -1.5710   -1.2650 c3        1 IZP     -0.061100
     10 C8          1.1750   -0.3380    0.1440 ca        1 IZP     -0.012300
     11 C9          0.5700    0.6160   -0.6890 ca        1 IZP     -0.133500
     12 C10        -0.7730    0.9410   -0.5330 ca        1 IZP     -0.140000
     13 C11        -1.5460    0.3240    0.4600 ca        1 IZP     -0.120300
     14 C12        -0.9430   -0.6170    1.2990 ca        1 IZP     -0.140000
     15 C13         0.4030   -0.9430    1.1430 ca        1 IZP     -0.133500
     16 H2         -3.0880    1.8010    0.5460 hc        1 IZP      0.035200
     17 H2A        -3.3380    0.3890    1.6480 hc        1 IZP      0.035200
     18 H3         -3.3840    0.1690   -1.4300 hc        1 IZP      0.055700
     19 H4         -3.0050   -1.9200   -0.0540 hc        1 IZP      0.028367
     20 H4A        -4.5900   -1.6340    0.7800 hc        1 IZP      0.028367
     21 H4B        -4.5550   -1.9490   -1.0040 hc        1 IZP      0.028367
     22 H5         -5.1330    1.7750   -0.7190 hc        1 IZP      0.028367
     23 H5A        -5.8920    0.2010   -1.2000 hc        1 IZP      0.028367
     24 H5B        -5.7210    0.6270    0.5520 hc        1 IZP      0.028367
     25 H6          2.9580   -1.2730    0.8690 hc        1 IZP      0.044700
     26 H7          3.8530   -1.9050   -1.3330 hc        1 IZP      0.020033
     27 H7A         2.1330   -2.4740   -1.2250 hc        1 IZP      0.020033
     28 H7B         2.5450   -0.9810   -2.1810 hc        1 IZP      0.020033
     29 H9          1.2020    1.1210   -1.4450 ha        1 IZP      0.152500
     30 H10        -1.2340    1.6930   -1.1880 ha        1 IZP      0.109000
     31 H12        -1.5340   -1.1010    2.0900 ha        1 IZP      0.109000
     32 H13         0.8660   -1.6770    1.8180 ha        1 IZP      0.152500
@<TRIPOS>BOND
     1    1    2 1   
     2    1    4 1   
     3    1    8 1   
     4    3    5 1   
     5    3   13 1   
     6    3   16 1   
     7    3   17 1   
     8    5    6 1   
     9    5    7 1   
    10    5   18 1   
    11    6   19 1   
    12    6   20 1   
    13    6   21 1   
    14    7   22 1   
    15    7   23 1   
    16    7   24 1   
    17    8    9 1   
    18    8   10 1   
    19    8   25 1   
    20    9   26 1   
    21    9   27 1   
    22    9   28 1   
    23   10   11 ar  
    24   10   15 ar  
    25   11   12 ar  
    26   11   29 1   
    27   12   13 ar  
    28   12   30 1   
    29   13   14 ar  
    30   14   15 ar  
    31   14   31 1   
    32   15   32 1   
@<TRIPOS>SUBSTRUCTURE
     1 IZP         1 TEMP              0 ****  ****    0 ROOT
