@<TRIPOS>MOLECULE
IZX
   53    57     1     0     0
SMALL
bcc


@<TRIPOS>ATOM
      1 C1          0.0170   -0.0300    0.3910 ca        1 IZX     -0.148800
      2 C2          0.9730    0.9350   -0.0430 ca        1 IZX      0.014900
      3 C3          0.0520   -0.5110    1.7210 ca        1 IZX      0.169100
      4 C4          2.0350    1.2830    0.7930 ca        1 IZX     -0.112000
      5 C5          1.1050   -0.1450    2.5510 ca        1 IZX     -0.137000
      6 C6          2.1010    0.7240    2.0670 ca        1 IZX     -0.024000
      7 C7         -0.9590   -0.3110   -0.6010 cc        1 IZX      0.069800
      8 C8         -0.8460    0.5500   -1.6870 cd        1 IZX     -0.386600
      9 S9          0.5460    1.5260   -1.5720 ss        1 IZX      0.042500
     10 C10        -1.9370    0.6070   -2.6710 c3        1 IZX      0.478900
     11 N11        -3.0310    1.5240   -2.1400 n4        1 IZX     -0.894100
     12 N12        -1.4130    0.9980   -4.0440 n4        1 IZX     -0.894100
     13 O13        -0.9620   -1.3760    2.1020 os        1 IZX     -0.315900
     14 C14        -1.8860   -0.8260    3.0630 c3        1 IZX      0.185100
     15 C15        -2.6130   -1.9650    3.7080 ca        1 IZX     -0.147300
     16 C16        -2.7690   -3.1930    3.0580 ca        1 IZX     -0.094500
     17 C17        -3.1230   -1.7830    5.0000 ca        1 IZX     -0.094500
     18 C18        -3.4340   -4.2370    3.7000 ca        1 IZX     -0.122000
     19 C19        -3.7920   -2.8290    5.6320 ca        1 IZX     -0.122000
     20 C20        -3.9470   -4.0560    4.9840 ca        1 IZX     -0.085000
     21 C21        -2.8600    0.0990    2.3750 cc        1 IZX      0.534700
     22 O22        -2.9650    0.0450    0.9530 os        1 IZX     -0.192100
     23 N23        -3.8400    0.9590    0.5600 nc        1 IZX     -0.583300
     24 N24        -3.6910    1.0230    2.8440 nd        1 IZX     -0.653000
     25 C25        -4.3260    1.5650    1.6820 cd        1 IZX      0.731500
     26 C26        -5.3430    2.6040    1.7380 ca        1 IZX     -0.200500
     27 C27        -6.3140    2.6950    0.7270 ca        1 IZX     -0.080500
     28 C28        -5.3780    3.4950    2.8220 ca        1 IZX     -0.080500
     29 C29        -7.3000    3.6740    0.7970 ca        1 IZX     -0.130000
     30 C30        -6.3670    4.4760    2.8800 ca        1 IZX     -0.130000
     31 C31        -7.3270    4.5680    1.8720 ca        1 IZX     -0.068000
     32 H4          2.8080    1.9950    0.4600 ha        1 IZX      0.176000
     33 H5          1.1630   -0.5330    3.5820 ha        1 IZX      0.186000
     34 H6          2.9490    0.9820    2.7290 ha        1 IZX      0.182000
     35 H7         -1.7140   -1.1010   -0.4710 ha        1 IZX      0.198000
     36 HN1C       -3.8650    1.5240   -2.7300 hn        1 IZX      0.490300
     37 HN12       -2.1500    0.9940   -4.7580 hn        1 IZX      0.490300
     38 HN1A       -0.6990    0.2910   -4.2960 hn        1 IZX      0.490300
     39 H14        -1.3240   -0.2190    3.8340 h1        1 IZX      0.107700
     40 H16        -2.3510   -3.3420    2.0510 ha        1 IZX      0.140000
     41 H17        -3.0010   -0.8180    5.5160 ha        1 IZX      0.140000
     42 H18        -3.5480   -5.2080    3.1930 ha        1 IZX      0.155000
     43 H19        -4.1950   -2.6860    6.6480 ha        1 IZX      0.155000
     44 H20        -4.4720   -4.8830    5.4900 ha        1 IZX      0.158000
     45 H27        -6.3250    1.9730   -0.1020 ha        1 IZX      0.142000
     46 H28        -4.6350    3.4220    3.6330 ha        1 IZX      0.142000
     47 H29        -8.0720    3.7360    0.0150 ha        1 IZX      0.160000
     48 H30        -6.3940    5.1740    3.7330 ha        1 IZX      0.160000
     49 H31        -8.1140    5.3380    1.9270 ha        1 IZX      0.164000
     50 H10        -2.4330   -0.4180   -2.7980 hx        1 IZX      0.166700
     51 HN1D       -3.3070    1.1630   -1.1610 hn        1 IZX      0.490300
     52 H113       -2.6970    2.4830   -2.0110 hn        1 IZX      0.490300
     53 H123       -0.9530    1.9170   -4.0290 hn        1 IZX      0.490300
@<TRIPOS>BOND
     1    1    2 ar  
     2    1    3 ar  
     3    1    7 1   
     4    2    4 ar  
     5    2    9 1   
     6    3    5 ar  
     7    3   13 1   
     8    4    6 ar  
     9    4   32 1   
    10    5    6 ar  
    11    5   33 1   
    12    6   34 1   
    13    7    8 2   
    14    7   35 1   
    15    8    9 1   
    16    8   10 1   
    17   10   11 1   
    18   10   12 1   
    19   10   50 1   
    20   11   36 1   
    21   11   51 1   
    22   11   52 1   
    23   12   37 1   
    24   12   38 1   
    25   12   53 1   
    26   13   14 1   
    27   14   15 1   
    28   14   21 1   
    29   14   39 1   
    30   15   16 ar  
    31   15   17 ar  
    32   16   18 ar  
    33   16   40 1   
    34   17   19 ar  
    35   17   41 1   
    36   18   20 ar  
    37   18   42 1   
    38   19   20 ar  
    39   19   43 1   
    40   20   44 1   
    41   21   22 1   
    42   21   24 2   
    43   22   23 1   
    44   23   25 2   
    45   24   25 1   
    46   25   26 1   
    47   26   27 ar  
    48   26   28 ar  
    49   27   29 ar  
    50   27   45 1   
    51   28   30 ar  
    52   28   46 1   
    53   29   31 ar  
    54   29   47 1   
    55   30   31 ar  
    56   30   48 1   
    57   31   49 1   
@<TRIPOS>SUBSTRUCTURE
     1 IZX         1 TEMP              0 ****  ****    0 ROOT
