@<TRIPOS>MOLECULE
IZX
   53    57     1     0     0
SMALL
bcc


@<TRIPOS>ATOM
      1 C1          0.0180   -0.0470    0.4040 ca        1 IZX     -0.148800
      2 C2          0.9830    0.9110   -0.0250 ca        1 IZX      0.014900
      3 C3          0.0430   -0.5290    1.7340 ca        1 IZX      0.169100
      4 C4          2.0430    1.2520    0.8170 ca        1 IZX     -0.112000
      5 C5          1.0940   -0.1700    2.5700 ca        1 IZX     -0.137000
      6 C6          2.0990    0.6920    2.0910 ca        1 IZX     -0.024000
      7 C7         -0.9550   -0.3220   -0.5920 cc        1 IZX      0.069800
      8 C8         -0.8300    0.5380   -1.6780 cd        1 IZX     -0.386600
      9 S9          0.5680    1.5050   -1.5560 ss        1 IZX      0.042500
     10 C10        -1.9150    0.6030   -2.6670 c3        1 IZX      0.478900
     11 N11        -3.0060    1.5270   -2.1420 nz        1 IZX     -0.894100
     12 N12        -1.3820    0.9910   -4.0370 nz        1 IZX     -0.894100
     13 O13        -0.9780   -1.3870    2.1110 os        1 IZX     -0.315900
     14 C14        -1.9030   -0.8310    3.0670 c3        1 IZX      0.185100
     15 C15        -2.6410   -1.9660    3.7080 ca        1 IZX     -0.147300
     16 C16        -2.8010   -3.1930    3.0570 ca        1 IZX     -0.094500
     17 C17        -3.1560   -1.7800    4.9980 ca        1 IZX     -0.094500
     18 C18        -3.4770   -4.2320    3.6960 ca        1 IZX     -0.122000
     19 C19        -3.8350   -2.8210    5.6270 ca        1 IZX     -0.122000
     20 C20        -3.9950   -4.0480    4.9780 ca        1 IZX     -0.085000
     21 C21        -2.8680    0.1000    2.3740 cc        1 IZX      0.534700
     22 O22        -2.9660    0.0480    0.9520 os        1 IZX     -0.192100
     23 N23        -3.8330    0.9670    0.5540 nc        1 IZX     -0.583300
     24 N24        -3.6960    1.0290    2.8390 nd        1 IZX     -0.653000
     25 C25        -4.3210    1.5750    1.6740 cd        1 IZX      0.731500
     26 C26        -5.3330    2.6210    1.7250 ca        1 IZX     -0.200500
     27 C27        -6.2980    2.7180    0.7090 ca        1 IZX     -0.080500
     28 C28        -5.3670    3.5110    2.8090 ca        1 IZX     -0.080500
     29 C29        -7.2780    3.7030    0.7750 ca        1 IZX     -0.130000
     30 C30        -6.3500    4.4990    2.8610 ca        1 IZX     -0.130000
     31 C31        -7.3040    4.5970    1.8490 ca        1 IZX     -0.068000
     32 H4          2.8230    1.9580    0.4880 ha        1 IZX      0.176000
     33 H5          1.1450   -0.5590    3.6010 ha        1 IZX      0.186000
     34 H6          2.9450    0.9450    2.7570 ha        1 IZX      0.182000
     35 H7         -1.7150   -1.1070   -0.4670 ha        1 IZX      0.198000
     36 HN1C       -2.6660    2.4840   -2.0100 hn        1 IZX      0.490300
     37 HN12       -0.6720    0.2790   -4.2860 hn        1 IZX      0.490300
     38 HN1A       -0.9160    1.9070   -4.0200 hn        1 IZX      0.490300
     39 H14        -1.3410   -0.2280    3.8410 h1        1 IZX      0.107700
     40 H16        -2.3800   -3.3440    2.0520 ha        1 IZX      0.140000
     41 H17        -3.0300   -0.8160    5.5140 ha        1 IZX      0.140000
     42 H18        -3.5950   -5.2020    3.1880 ha        1 IZX      0.155000
     43 H19        -4.2410   -2.6760    6.6400 ha        1 IZX      0.155000
     44 H20        -4.5270   -4.8710    5.4820 ha        1 IZX      0.158000
     45 H27        -6.3090    1.9960   -0.1200 ha        1 IZX      0.142000
     46 H28        -4.6280    3.4340    3.6240 ha        1 IZX      0.142000
     47 H29        -8.0460    3.7690   -0.0120 ha        1 IZX      0.160000
     48 H30        -6.3780    5.1970    3.7150 ha        1 IZX      0.160000
     49 H31        -8.0870    5.3720    1.9010 ha        1 IZX      0.164000
     50 H10        -2.4180   -0.4190   -2.7970 hx        1 IZX      0.166700
     51 HN1D       -3.8370    1.5330   -2.7360 hn        1 IZX      0.490300
     52 H113       -3.2900    1.1680   -1.1640 hn        1 IZX      0.490300
     53 H123       -2.1160    0.9920   -4.7550 hn        1 IZX      0.490300
@<TRIPOS>BOND
     1    1    2 ar  
     2    1    3 ar  
     3    1    7 1   
     4    2    4 ar  
     5    2    9 1   
     6    3    5 ar  
     7    3   13 1   
     8    4    6 ar  
     9    4   32 1   
    10    5    6 ar  
    11    5   33 1   
    12    6   34 1   
    13    7    8 2   
    14    7   35 1   
    15    8    9 1   
    16    8   10 1   
    17   10   11 1   
    18   10   12 1   
    19   10   50 1   
    20   11   36 1   
    21   11   51 1   
    22   11   52 1   
    23   12   37 1   
    24   12   38 1   
    25   12   53 1   
    26   13   14 1   
    27   14   15 1   
    28   14   21 1   
    29   14   39 1   
    30   15   16 ar  
    31   15   17 ar  
    32   16   18 ar  
    33   16   40 1   
    34   17   19 ar  
    35   17   41 1   
    36   18   20 ar  
    37   18   42 1   
    38   19   20 ar  
    39   19   43 1   
    40   20   44 1   
    41   21   22 1   
    42   21   24 2   
    43   22   23 1   
    44   23   25 2   
    45   24   25 1   
    46   25   26 1   
    47   26   27 ar  
    48   26   28 ar  
    49   27   29 ar  
    50   27   45 1   
    51   28   30 ar  
    52   28   46 1   
    53   29   31 ar  
    54   29   47 1   
    55   30   31 ar  
    56   30   48 1   
    57   31   49 1   
@<TRIPOS>SUBSTRUCTURE
     1 IZX         1 TEMP              0 ****  ****    0 ROOT
