@<TRIPOS>MOLECULE
IZX
   51    55     1     0     0
SMALL
bcc


@<TRIPOS>ATOM
      1 C1          2.9040    0.0080   -0.3770 ca        1 IZX     -0.099800
      2 C2          4.1240    0.1440   -1.0950 ca        1 IZX     -0.075100
      3 C3          1.9260    1.0200   -0.4910 ca        1 IZX      0.149100
      4 C4          4.3480    1.2640   -1.9070 ca        1 IZX     -0.117000
      5 C5          2.1610    2.1320   -1.2910 ca        1 IZX     -0.198000
      6 C6          3.3720    2.2420   -1.9960 ca        1 IZX     -0.096000
      7 C7          2.8750   -1.2040    0.3970 cc        1 IZX     -0.090200
      8 C8          4.0280   -1.9280    0.2400 cd        1 IZX     -0.114600
      9 S9          5.1340   -1.1710   -0.8050 ss        1 IZX      0.082500
     10 C10         4.3660   -3.2190    0.9390 c3        1 IZX      0.467900
     11 N11         3.1510   -3.9360    1.3320 n3        1 IZX     -0.950300
     12 N12         5.3770   -3.9460    0.1610 n3        1 IZX     -0.950300
     13 O13         0.7890    0.8500    0.2840 os        1 IZX     -0.312900
     14 C14        -0.4150    1.4120   -0.2670 c3        1 IZX      0.174100
     15 C15        -0.7140    2.7500    0.3470 ca        1 IZX     -0.134300
     16 C16        -0.3970    3.0070    1.6840 ca        1 IZX     -0.097500
     17 C17        -1.3160    3.7430   -0.4330 ca        1 IZX     -0.097500
     18 C18        -0.6800    4.2550    2.2380 ca        1 IZX     -0.134000
     19 C19        -1.6010    4.9880    0.1270 ca        1 IZX     -0.134000
     20 C20        -1.2820    5.2450    1.4610 ca        1 IZX     -0.113000
     21 C21        -1.5060    0.4370    0.0570 cc        1 IZX      0.494700
     22 O22        -1.4000   -0.3300    1.2500 os        1 IZX     -0.107100
     23 N23        -2.4550   -1.1020    1.3430 nc        1 IZX     -0.369300
     24 N24        -2.6310    0.1290   -0.5820 nd        1 IZX     -0.679000
     25 C25        -3.2380   -0.8600    0.2540 cd        1 IZX      0.588500
     26 C26        -4.5170   -1.4970   -0.0500 ca        1 IZX     -0.132500
     27 C27        -5.1610   -2.2740    0.9240 ca        1 IZX     -0.090000
     28 C28        -5.1060   -1.3370   -1.3120 ca        1 IZX     -0.090000
     29 C29        -6.3800   -2.8840    0.6340 ca        1 IZX     -0.141500
     30 C30        -6.3260   -1.9500   -1.5920 ca        1 IZX     -0.141500
     31 C31        -6.9650   -2.7230   -0.6220 ca        1 IZX     -0.111000
     32 H4          5.2910    1.3610   -2.4630 ha        1 IZX      0.139000
     33 H5          1.4130    2.9350   -1.3650 ha        1 IZX      0.144000
     34 H6          3.5400    3.1300   -2.6250 ha        1 IZX      0.135000
     35 H7          2.0210   -1.4670    1.0280 ha        1 IZX      0.182000
     36 HN1C        2.5050   -4.0290    0.5770 hn        1 IZX      0.356550
     37 HN12        5.7310   -4.7320    0.6650 hn        1 IZX      0.356550
     38 HN1A        5.0330   -4.2400   -0.7300 hn        1 IZX      0.356550
     39 H14        -0.3370    1.4980   -1.3900 h1        1 IZX      0.095700
     40 H16         0.0800    2.2190    2.2890 ha        1 IZX      0.146000
     41 H17        -1.5720    3.5420   -1.4840 ha        1 IZX      0.146000
     42 H18        -0.4280    4.4560    3.2900 ha        1 IZX      0.137000
     43 H19        -2.0780    5.7670   -0.4860 ha        1 IZX      0.137000
     44 H20        -1.5070    6.2280    1.9000 ha        1 IZX      0.135000
     45 H27        -4.7120   -2.4080    1.9210 ha        1 IZX      0.152000
     46 H28        -4.6140   -0.7290   -2.0870 ha        1 IZX      0.152000
     47 H29        -6.8820   -3.4920    1.4010 ha        1 IZX      0.136000
     48 H30        -6.7850   -1.8220   -2.5830 ha        1 IZX      0.136000
     49 H31        -7.9270   -3.2050   -0.8480 ha        1 IZX      0.134000
     50 H10         4.8790   -2.9420    1.9210 h2        1 IZX      0.086700
     51 HN1D        3.3600   -4.8330    1.7200 hn        1 IZX      0.356550
@<TRIPOS>BOND
     1    1    2 ar  
     2    1    3 ar  
     3    1    7 1   
     4    2    4 ar  
     5    2    9 1   
     6    3    5 ar  
     7    3   13 1   
     8    4    6 ar  
     9    4   32 1   
    10    5    6 ar  
    11    5   33 1   
    12    6   34 1   
    13    7    8 2   
    14    7   35 1   
    15    8    9 1   
    16    8   10 1   
    17   10   11 1   
    18   10   12 1   
    19   10   50 1   
    20   11   36 1   
    21   11   51 1   
    22   12   37 1   
    23   12   38 1   
    24   13   14 1   
    25   14   15 1   
    26   14   21 1   
    27   14   39 1   
    28   15   16 ar  
    29   15   17 ar  
    30   16   18 ar  
    31   16   40 1   
    32   17   19 ar  
    33   17   41 1   
    34   18   20 ar  
    35   18   42 1   
    36   19   20 ar  
    37   19   43 1   
    38   20   44 1   
    39   21   22 1   
    40   21   24 2   
    41   22   23 1   
    42   23   25 2   
    43   24   25 1   
    44   25   26 1   
    45   26   27 ar  
    46   26   28 ar  
    47   27   29 ar  
    48   27   45 1   
    49   28   30 ar  
    50   28   46 1   
    51   29   31 ar  
    52   29   47 1   
    53   30   31 ar  
    54   30   48 1   
    55   31   49 1   
@<TRIPOS>SUBSTRUCTURE
     1 IZX         1 TEMP              0 ****  ****    0 ROOT
