@<TRIPOS>MOLECULE
IZX
   51    43     1     0     0
SMALL
bcc


@<TRIPOS>ATOM
      1 C1          2.5770    0.0890   -1.0720 c1        1 IZX     -0.070000
      2 C2          3.8700    0.6870   -1.2020 c1        1 IZX     -0.319000
      3 C3          2.0010   -0.0490    0.1810 c1        1 IZX      0.074000
      4 C4          4.5450    1.1280   -0.0740 c1        1 IZX     -0.096000
      5 C5          2.6850    0.3970    1.3190 c2        1 IZX     -0.161000
      6 C6          3.9620    0.9880    1.1900 c1        1 IZX     -0.112000
      7 C7          2.0560   -0.3150   -2.5370 c1        1 IZX     -0.140000
      8 C8          3.0680    0.0610   -3.4990 c1        1 IZX     -0.376000
      9 S9          4.2440    0.7010   -2.7240 s         1 IZX      0.575000
     10 C10         3.1950   -0.1280   -4.9950 c2        1 IZX      0.098000
     11 N11         2.8080    1.0710   -5.6600 n3        1 IZX     -0.354500
     12 N12         4.5480   -0.4360   -5.3210 n3        1 IZX     -0.354500
     13 O13         0.7990   -0.7670    0.0420 o         1 IZX     -0.202000
     14 C14         0.0200   -0.8070    1.2140 c3        1 IZX      0.151000
     15 C15        -0.1710   -2.2440    1.6430 c2        1 IZX     -0.109000
     16 C16        -0.5540   -3.1990    0.7140 c2        1 IZX     -0.086000
     17 C17        -0.0250   -2.5940    2.9760 c1        1 IZX     -0.109000
     18 C18        -0.7910   -4.5030    1.1190 c1        1 IZX     -0.135000
     19 C19        -0.2620   -3.8980    3.3810 c1        1 IZX     -0.121000
     20 C20        -0.6450   -4.8530    2.4520 c1        1 IZX     -0.121000
     21 C21        -1.3290   -0.1780    0.9450 c2        1 IZX     -0.003000
     22 O22        -2.1900   -0.5380   -0.0240 os        1 IZX     -0.064000
     23 N23        -3.2940    0.2520    0.0800 n2        1 IZX     -0.044000
     24 N24        -1.8900    0.8280    1.6490 n2        1 IZX     -0.154000
     25 C25        -3.1070    1.0910    1.1100 c2        1 IZX     -0.038000
     26 C26        -3.9920    2.0720    1.5330 c1        1 IZX     -0.027000
     27 C27        -3.7900    3.3930    1.1640 c1        1 IZX     -0.121000
     28 C28        -5.0950    1.7280    2.2980 c1        1 IZX     -0.093000
     29 C29        -4.6900    4.3690    1.5600 c1        1 IZX     -0.121000
     30 C30        -5.9960    2.7040    2.6940 c1        1 IZX     -0.121000
     31 C31        -5.7930    4.0250    2.3250 c1        1 IZX     -0.121000
     32 H4          5.4270    1.5370   -0.1620 ha        1 IZX      0.140000
     33 H5          2.2790    0.2990    2.2010 ha        1 IZX      0.143000
     34 H6          4.4370    1.2980    1.9840 ha        1 IZX      0.137000
     35 H7          1.2020   -0.7420   -2.7430 DU        1 IZX      0.172000
     36 HN1C        2.2840    0.8630   -6.3820 hn        1 IZX      0.153750
     37 HN12        4.7210   -1.3110   -5.1110 hn        1 IZX      0.153750
     38 HN1A        4.6830   -0.3050   -6.2170 hn        1 IZX      0.153750
     39 H14         0.4740   -0.3130    1.9240 h1        1 IZX      0.134000
     40 H16        -0.6570   -2.9530   -0.2240 ha        1 IZX      0.155000
     41 H17         0.2450   -1.9210    3.6300 ha        1 IZX      0.140000
     42 H18        -1.0610   -5.1750    0.4650 ha        1 IZX      0.137000
     43 H19        -0.1590   -4.1440    4.3200 ha        1 IZX      0.138167
     44 H20        -0.8120   -5.7710    2.7370 ha        1 IZX      0.138167
     45 H27        -3.0130    3.6360    0.6250 ha        1 IZX      0.138167
     46 H28        -5.2370    0.7980    2.5580 ha        1 IZX      0.150000
     47 H29        -4.5480    5.2990    1.3000 ha        1 IZX      0.138167
     48 H30        -6.7720    2.4620    3.2330 ha        1 IZX      0.138167
     49 H31        -6.4280    4.7120    2.6050 ha        1 IZX      0.138167
     50 H10         2.6150   -0.8630   -5.2820 h5        1 IZX      0.121000
     51 HN1D        3.5550    1.5180   -5.9430 hn        1 IZX      0.153750
@<TRIPOS>BOND
     1    1    3 1   
     2    2    4 1   
     3    3    5 1   
     4    4   32 1   
     5    5    6 1   
     6    5   33 1   
     7    6   34 1   
     8    7    8 1   
     9    8    9 1   
    10   10   11 1   
    11   10   12 1   
    12   10   50 1   
    13   11   36 1   
    14   11   51 1   
    15   12   37 1   
    16   12   38 1   
    17   13   14 1   
    18   14   15 1   
    19   14   21 1   
    20   14   39 1   
    21   15   16 1   
    22   15   17 1   
    23   16   18 1   
    24   16   40 1   
    25   17   41 1   
    26   18   42 1   
    27   19   20 1   
    28   19   43 1   
    29   20   44 1   
    30   21   22 1   
    31   21   24 1   
    32   22   23 1   
    33   23   25 1   
    34   24   25 1   
    35   25   26 1   
    36   26   28 1   
    37   27   29 1   
    38   27   45 1   
    39   28   46 1   
    40   29   47 1   
    41   30   31 1   
    42   30   48 1   
    43   31   49 1   
@<TRIPOS>SUBSTRUCTURE
     1 IZX         1 TEMP              0 ****  ****    0 ROOT
