@<TRIPOS>MOLECULE
IZZ
   44    46     1     0     0
SMALL
bcc


@<TRIPOS>ATOM
      1 OAR         0.0010    0.1890    0.2720 oh        1 IZZ     -0.611800
      2 CAT         1.4000   -0.0180    0.1540 c3        1 IZZ      0.092400
      3 CAM         1.9970   -0.0420    1.5810 c3        1 IZZ      0.204500
      4 CAO         1.4390   -1.2620    2.3570 c3        1 IZZ     -0.067700
      5 CAW         1.9550   -2.5470    1.7390 c3        1 IZZ     -0.088100
      6 CAV         1.8190   -1.2200    3.8230 c3        1 IZZ     -0.088100
      7 NAJ         1.7680    1.1930    2.3130 nh        1 IZZ     -0.805900
      8 CAG         2.4280    2.3790    1.9510 cc        1 IZZ      0.605200
      9 CAK         1.9620    3.6150    2.5890 cc        1 IZZ     -0.266300
     10 CAI         2.6350    4.7790    2.3730 cd        1 IZZ     -0.022000
     11 NAC         3.4970    2.3510    1.1150 nd        1 IZZ     -0.553800
     12 NAA         4.1470    3.4920    0.9240 na        1 IZZ      0.210200
     13 CAD         3.7850    4.7590    1.5180 cd        1 IZZ     -0.106300
     14 NAE         4.6530    5.7420    1.1340 nc        1 IZZ     -0.257600
     15 CAF         5.5660    5.1300    0.3110 cc        1 IZZ      0.005600
     16 CAB         5.2940    3.7380    0.1500 cd        1 IZZ     -0.078300
     17 CAH         6.0350    2.7740   -0.6360 ca        1 IZZ      0.022200
     18 CAL         7.4290    2.9010   -0.6920 ca        1 IZZ     -0.177000
     19 CAQ         5.3970    1.7540   -1.3520 ca        1 IZZ     -0.145000
     20 CAS         6.1570    0.8690   -2.1140 ca        1 IZZ     -0.100000
     21 CAU         7.5400    0.9810   -2.1780 ca        1 IZZ     -0.184000
     22 CAN         8.2020    2.0120   -1.4700 ca        1 IZZ      0.134600
     23 NAP         9.5840    2.1970   -1.6010 nh        1 IZZ     -0.816200
     24 HOAR       -0.3500    0.2180   -0.6250 ho        1 IZZ      0.406000
     25 HAT         1.8600    0.8100   -0.4500 h1        1 IZZ      0.038700
     26 HATA        1.6050   -0.9940   -0.3590 h1        1 IZZ      0.038700
     27 HAM         3.1140   -0.1860    1.4710 h1        1 IZZ      0.087700
     28 HAO         0.3160   -1.2430    2.2680 hc        1 IZZ      0.064700
     29 HAW         3.0690   -2.5310    1.6640 hc        1 IZZ      0.037033
     30 HAWA        1.6580   -3.4180    2.3730 hc        1 IZZ      0.037033
     31 HAWB        1.5290   -2.7050    0.7200 hc        1 IZZ      0.037033
     32 HAV         2.9150   -1.0380    3.9390 hc        1 IZZ      0.037033
     33 HAVA        1.2660   -0.4140    4.3620 hc        1 IZZ      0.037033
     34 HAVB        1.5680   -2.1940    4.3120 hc        1 IZZ      0.037033
     35 HNAJ        0.7970    1.3430    2.5110 hn        1 IZZ      0.416800
     36 HAK         1.0790    3.5790    3.2420 ha        1 IZZ      0.154000
     37 HAI         2.3370    5.7370    2.8260 ha        1 IZZ      0.168000
     38 HAF         6.3830    5.6830   -0.1550 h4        1 IZZ      0.186000
     39 HAL         7.9170    3.7090   -0.1240 ha        1 IZZ      0.137000
     40 HAQ         4.3040    1.6490   -1.3240 ha        1 IZZ      0.141000
     41 HAS         5.6550    0.0660   -2.6750 ha        1 IZZ      0.128000
     42 HAU         8.1170    0.2710   -2.7880 ha        1 IZZ      0.131000
     43 HNAP       10.0820    1.3700   -1.8490 hn        1 IZZ      0.387300
     44 HNAA       10.0030    2.6900   -0.8440 hn        1 IZZ      0.387300
@<TRIPOS>BOND
     1    1    2 1   
     2    1   24 1   
     3    2    3 1   
     4    2   25 1   
     5    2   26 1   
     6    3    4 1   
     7    3    7 1   
     8    3   27 1   
     9    4    5 1   
    10    4    6 1   
    11    4   28 1   
    12    5   29 1   
    13    5   30 1   
    14    5   31 1   
    15    6   32 1   
    16    6   33 1   
    17    6   34 1   
    18    7    8 1   
    19    7   35 1   
    20    8    9 1   
    21    8   11 2   
    22    9   10 2   
    23    9   36 1   
    24   10   13 1   
    25   10   37 1   
    26   11   12 1   
    27   12   13 1   
    28   12   16 1   
    29   13   14 2   
    30   14   15 1   
    31   15   16 2   
    32   15   38 1   
    33   16   17 1   
    34   17   18 ar  
    35   17   19 ar  
    36   18   22 ar  
    37   18   39 1   
    38   19   20 ar  
    39   19   40 1   
    40   20   21 ar  
    41   20   41 1   
    42   21   22 ar  
    43   21   42 1   
    44   22   23 1   
    45   23   43 1   
    46   23   44 1   
@<TRIPOS>SUBSTRUCTURE
     1 IZZ         1 TEMP              0 ****  ****    0 ROOT
