@<TRIPOS>MOLECULE
IZZ
   44    46     1     0     0
SMALL
bcc


@<TRIPOS>ATOM
      1 OAR         0.0010    0.1970    0.2690 oh        1 IZZ     -0.611800
      2 CAT         1.3990   -0.0130    0.1490 c3        1 IZZ      0.092400
      3 CAM         1.9980   -0.0460    1.5750 c3        1 IZZ      0.204500
      4 CAO         1.4390   -1.2700    2.3440 c3        1 IZZ     -0.067700
      5 CAW         1.9620   -2.5510    1.7240 c3        1 IZZ     -0.088100
      6 CAV         1.8120   -1.2340    3.8130 c3        1 IZZ     -0.088100
      7 NAJ         1.7700    1.1850    2.3140 nu        1 IZZ     -0.805900
      8 CAG         2.4300    2.3720    1.9590 cc        1 IZZ      0.605200
      9 CAK         1.9660    3.6060    2.6040 cc        1 IZZ     -0.266300
     10 CAI         2.6390    4.7700    2.3940 cd        1 IZZ     -0.022000
     11 NAC         3.4990    2.3480    1.1210 nd        1 IZZ     -0.553800
     12 NAA         4.1490    3.4900    0.9350 na        1 IZZ      0.210200
     13 CAD         3.7880    4.7540    1.5380 cd        1 IZZ     -0.106300
     14 NAE         4.6560    5.7390    1.1580 nc        1 IZZ     -0.257600
     15 CAF         5.5680    5.1310    0.3300 cc        1 IZZ      0.005600
     16 CAB         5.2950    3.7400    0.1610 cd        1 IZZ     -0.078300
     17 CAH         6.0350    2.7800   -0.6310 ca        1 IZZ      0.022200
     18 CAL         7.4290    2.9070   -0.6880 ca        1 IZZ     -0.177000
     19 CAQ         5.3950    1.7650   -1.3520 ca        1 IZZ     -0.145000
     20 CAS         6.1540    0.8830   -2.1200 ca        1 IZZ     -0.100000
     21 CAU         7.5370    0.9950   -2.1850 ca        1 IZZ     -0.184000
     22 CAN         8.2000    2.0220   -1.4720 ca        1 IZZ      0.134600
     23 NAP         9.5820    2.2060   -1.6040 nv        1 IZZ     -0.816200
     24 HOAR       -0.3520    0.2310   -0.6280 ho        1 IZZ      0.406000
     25 HAT         1.6010   -0.9870   -0.3700 h1        1 IZZ      0.038700
     26 HATA        1.8600    0.8160   -0.4520 h1        1 IZZ      0.038700
     27 HAM         3.1140   -0.1900    1.4630 h1        1 IZZ      0.087700
     28 HAO         0.3170   -1.2540    2.2500 hc        1 IZZ      0.064700
     29 HAW         3.0770   -2.5350    1.6610 hc        1 IZZ      0.037033
     30 HAWA        1.5470   -2.7030    0.7000 hc        1 IZZ      0.037033
     31 HAWB        1.6590   -3.4260    2.3500 hc        1 IZZ      0.037033
     32 HAV         2.9060   -1.0470    3.9350 hc        1 IZZ      0.037033
     33 HAVA        1.2520   -0.4320    4.3510 hc        1 IZZ      0.037033
     34 HAVB        1.5620   -2.2100    4.2950 hc        1 IZZ      0.037033
     35 HNAJ        0.7990    1.3340    2.5140 hn        1 IZZ      0.416800
     36 HAK         1.0840    3.5670    3.2580 ha        1 IZZ      0.154000
     37 HAI         2.3430    5.7250    2.8520 ha        1 IZZ      0.168000
     38 HAF         6.3850    5.6860   -0.1330 h4        1 IZZ      0.186000
     39 HAL         7.9170    3.7100   -0.1150 ha        1 IZZ      0.137000
     40 HAQ         4.3020    1.6600   -1.3230 ha        1 IZZ      0.141000
     41 HAS         5.6500    0.0850   -2.6860 ha        1 IZZ      0.128000
     42 HAU         8.1120    0.2880   -2.8010 ha        1 IZZ      0.131000
     43 HNAP       10.0020    2.6950   -0.8440 hn        1 IZZ      0.387300
     44 HNAA       10.0790    1.3810   -1.8570 hn        1 IZZ      0.387300
@<TRIPOS>BOND
     1    1    2 1   
     2    1   24 1   
     3    2    3 1   
     4    2   25 1   
     5    2   26 1   
     6    3    4 1   
     7    3    7 1   
     8    3   27 1   
     9    4    5 1   
    10    4    6 1   
    11    4   28 1   
    12    5   29 1   
    13    5   30 1   
    14    5   31 1   
    15    6   32 1   
    16    6   33 1   
    17    6   34 1   
    18    7    8 1   
    19    7   35 1   
    20    8    9 1   
    21    8   11 2   
    22    9   10 2   
    23    9   36 1   
    24   10   13 1   
    25   10   37 1   
    26   11   12 1   
    27   12   13 1   
    28   12   16 1   
    29   13   14 2   
    30   14   15 1   
    31   15   16 2   
    32   15   38 1   
    33   16   17 1   
    34   17   18 ar  
    35   17   19 ar  
    36   18   22 ar  
    37   18   39 1   
    38   19   20 ar  
    39   19   40 1   
    40   20   21 ar  
    41   20   41 1   
    42   21   22 ar  
    43   21   42 1   
    44   22   23 1   
    45   23   43 1   
    46   23   44 1   
@<TRIPOS>SUBSTRUCTURE
     1 IZZ         1 TEMP              0 ****  ****    0 ROOT
