@<TRIPOS>MOLECULE
IZZ
   46    48     1     0     0
SMALL
bcc


@<TRIPOS>ATOM
      1 OAR        -0.4760    1.2530    2.5790 oh        1 IZZ     -0.624800
      2 CAT        -0.0120    0.7850    1.3300 c3        1 IZZ      0.108400
      3 CAM         1.3430    0.0590    1.5220 c3        1 IZZ      0.101500
      4 CAO         1.1160   -1.3450    2.1260 c3        1 IZZ     -0.086700
      5 CAW         0.6120   -2.2670    1.0290 c3        1 IZZ     -0.115600
      6 CAV         2.3550   -1.9480    2.7540 c3        1 IZZ     -0.115600
      7 NAJ         2.2570    0.8980    2.3910 n4        1 IZZ     -0.740700
      8 CAG         2.6940    2.1430    1.7300 cc        1 IZZ      0.441200
      9 CAK         1.8520    3.3120    1.8740 cc        1 IZZ     -0.233300
     10 CAI         2.2540    4.4820    1.2910 cd        1 IZZ      0.007000
     11 NAC         3.8630    2.1140    1.0460 nd        1 IZZ     -0.448800
     12 NAA         4.2410    3.2390    0.4890 na        1 IZZ      0.178200
     13 CAD         3.4880    4.4980    0.5650 cd        1 IZZ     -0.036300
     14 NAE         4.1440    5.4840   -0.0950 nc        1 IZZ     -0.197600
     15 CAF         5.3000    4.9170   -0.5880 cc        1 IZZ      0.072600
     16 CAB         5.4120    3.5400   -0.2510 cd        1 IZZ     -0.103300
     17 CAH         6.4900    2.6380   -0.5920 ca        1 IZZ      0.014200
     18 CAL         7.7970    3.1530   -0.6140 ca        1 IZZ     -0.092000
     19 CAQ         6.2670    1.2990   -0.9450 ca        1 IZZ     -0.061000
     20 CAS         7.3350    0.4800   -1.3130 ca        1 IZZ     -0.093000
     21 CAU         8.6370    0.9750   -1.3470 ca        1 IZZ     -0.090000
     22 CAN         8.8580    2.3190   -0.9990 ca        1 IZZ     -0.057400
     23 NAP        10.2190    2.8580   -1.0510 n4        1 IZZ     -0.704000
     24 HOAR       -1.2690    0.7560    2.8240 ho        1 IZZ      0.452000
     25 HAT        -0.7320    0.0860    0.8320 h1        1 IZZ      0.089700
     26 HATA        0.1300    1.6950    0.6820 h1        1 IZZ      0.089700
     27 HAM         1.8480   -0.0430    0.5170 hx        1 IZZ      0.112700
     28 HAO         0.3190   -1.2510    2.9190 hc        1 IZZ      0.080700
     29 HAW         1.3930   -2.4110    0.2430 hc        1 IZZ      0.061200
     30 HAWA       -0.3130   -1.8700    0.5480 hc        1 IZZ      0.061200
     31 HAWB        0.3690   -3.2670    1.4690 hc        1 IZZ      0.061200
     32 HAV         2.5980   -1.4770    3.7370 hc        1 IZZ      0.061200
     33 HAVA        3.2360   -1.8740    2.0710 hc        1 IZZ      0.061200
     34 HAVB        2.1750   -3.0370    2.9530 hc        1 IZZ      0.061200
     35 HNAJ        3.0710    0.3320    2.6690 hn        1 IZZ      0.478300
     36 HAK         0.9040    3.2450    2.4390 ha        1 IZZ      0.205000
     37 HAI         1.6700    5.4190    1.3580 ha        1 IZZ      0.218000
     38 HAF         6.0060    5.5090   -1.1800 h4        1 IZZ      0.211000
     39 HAL         7.9640    4.2060   -0.3300 ha        1 IZZ      0.165000
     40 HAQ         5.2450    0.8870   -0.9530 ha        1 IZZ      0.167000
     41 HAS         7.1510   -0.5720   -1.5930 ha        1 IZZ      0.181000
     42 HAU         9.4640    0.3090   -1.6480 ha        1 IZZ      0.172000
     43 HNAP       10.4270    3.1730   -2.0080 hn        1 IZZ      0.471133
     44 HNAA       10.3120    3.6540   -0.4090 hn        1 IZZ      0.471133
     45 HAJ2        1.7260    1.1680    3.2360 hn        1 IZZ      0.478300
     46 HAP3       10.8940    2.1310   -0.7850 hn        1 IZZ      0.471133
@<TRIPOS>BOND
     1    1    2 1   
     2    1   24 1   
     3    2    3 1   
     4    2   25 1   
     5    2   26 1   
     6    3    4 1   
     7    3    7 1   
     8    3   27 1   
     9    4    5 1   
    10    4    6 1   
    11    4   28 1   
    12    5   29 1   
    13    5   30 1   
    14    5   31 1   
    15    6   32 1   
    16    6   33 1   
    17    6   34 1   
    18    7    8 1   
    19    7   35 1   
    20    7   45 1   
    21    8    9 1   
    22    8   11 2   
    23    9   10 2   
    24    9   36 1   
    25   10   13 1   
    26   10   37 1   
    27   11   12 1   
    28   12   13 1   
    29   12   16 1   
    30   13   14 2   
    31   14   15 1   
    32   15   16 2   
    33   15   38 1   
    34   16   17 1   
    35   17   18 ar  
    36   17   19 ar  
    37   18   22 ar  
    38   18   39 1   
    39   19   20 ar  
    40   19   40 1   
    41   20   21 ar  
    42   20   41 1   
    43   21   22 ar  
    44   21   42 1   
    45   22   23 1   
    46   23   43 1   
    47   23   44 1   
    48   23   46 1   
@<TRIPOS>SUBSTRUCTURE
     1 IZZ         1 TEMP              0 ****  ****    0 ROOT
