@<TRIPOS>MOLECULE
IZZ
   44    46     1     0     0
SMALL
bcc


@<TRIPOS>ATOM
      1 OAR         3.8750   -0.7140    1.9770 oh        1 IZZ     -0.611800
      2 CAT         2.7580   -1.2710    1.3030 c3        1 IZZ      0.092400
      3 CAM         2.8320   -0.8330   -0.1790 c3        1 IZZ      0.204500
      4 CAO         4.0890   -1.4510   -0.8400 c3        1 IZZ     -0.067700
      5 CAW         3.9310   -2.9560   -0.9410 c3        1 IZZ     -0.088600
      6 CAV         4.3430   -0.8790   -2.2210 c3        1 IZZ     -0.088600
      7 NAJ         2.8090    0.6120   -0.3450 nh        1 IZZ     -0.805900
      8 CAG         1.6430    1.3500   -0.0840 cc        1 IZZ      0.605200
      9 CAK         1.7790    2.8110   -0.0510 cc        1 IZZ     -0.266300
     10 CAI         0.6690    3.5870    0.0790 cd        1 IZZ     -0.022000
     11 NAC         0.4430    0.7280    0.0470 nd        1 IZZ     -0.553800
     12 NAA        -0.6290    1.5010    0.1630 na        1 IZZ      0.210200
     13 CAD        -0.6090    2.9460    0.1860 cd        1 IZZ     -0.106300
     14 NAE        -1.8730    3.4490    0.3070 nc        1 IZZ     -0.257600
     15 CAF        -2.7040    2.3560    0.3580 cc        1 IZZ      0.005600
     16 CAB        -1.9800    1.1290    0.2730 cd        1 IZZ     -0.078300
     17 CAH        -2.5120   -0.2180    0.2910 ca        1 IZZ      0.022200
     18 CAL        -3.7380   -0.4510   -0.3450 ca        1 IZZ     -0.177000
     19 CAQ        -1.8520   -1.2670    0.9440 ca        1 IZZ     -0.145000
     20 CAS        -2.4220   -2.5380    0.9520 ca        1 IZZ     -0.100000
     21 CAU        -3.6360   -2.7850    0.3250 ca        1 IZZ     -0.184000
     22 CAN        -4.3230   -1.7360   -0.3300 ca        1 IZZ      0.134600
     23 NAP        -5.5920   -1.9480   -0.8840 nh        1 IZZ     -0.816200
     24 HOAR        3.8030   -0.9830    2.9000 ho        1 IZZ      0.406000
     25 HAT         2.7840   -2.3900    1.3690 h1        1 IZZ      0.038700
     26 HATA        1.8060   -0.9050    1.7730 h1        1 IZZ      0.038700
     27 HAM         1.9230   -1.2620   -0.6970 h1        1 IZZ      0.087700
     28 HAO         4.9740   -1.2230   -0.1810 hc        1 IZZ      0.064700
     29 HAW         2.9800   -3.2210   -1.4630 hc        1 IZZ      0.037033
     30 HAWA        4.7830   -3.3880   -1.5210 hc        1 IZZ      0.037033
     31 HAWB        3.9300   -3.4310    0.0690 hc        1 IZZ      0.037033
     32 HAV         4.6930    0.1790   -2.1620 hc        1 IZZ      0.037033
     33 HAVA        5.1320   -1.4740   -2.7420 hc        1 IZZ      0.037033
     34 HAVB        3.4110   -0.9100   -2.8350 hc        1 IZZ      0.037033
     35 HNAJ        3.6290    1.0500    0.0280 hn        1 IZZ      0.416800
     36 HAK         2.7800    3.2560   -0.1430 ha        1 IZZ      0.154000
     37 HAI         0.7050    4.6860    0.1060 ha        1 IZZ      0.168000
     38 HAF        -3.7850    2.4580    0.4620 h4        1 IZZ      0.186000
     39 HAL        -4.2450    0.3830   -0.8540 ha        1 IZZ      0.137000
     40 HAQ        -0.8940   -1.0950    1.4540 ha        1 IZZ      0.141000
     41 HAS        -1.9020   -3.3620    1.4650 ha        1 IZZ      0.128000
     42 HAU        -4.0660   -3.7980    0.3480 ha        1 IZZ      0.131000
     43 HNAP       -5.8410   -1.2940   -1.5930 hn        1 IZZ      0.387300
     44 HNAA       -5.7670   -2.8930   -1.1470 hn        1 IZZ      0.387300
@<TRIPOS>BOND
     1    1    2 1   
     2    1   24 1   
     3    2    3 1   
     4    2   25 1   
     5    2   26 1   
     6    3    4 1   
     7    3    7 1   
     8    3   27 1   
     9    4    5 1   
    10    4    6 1   
    11    4   28 1   
    12    5   29 1   
    13    5   30 1   
    14    5   31 1   
    15    6   32 1   
    16    6   33 1   
    17    6   34 1   
    18    7    8 1   
    19    7   35 1   
    20    8    9 1   
    21    8   11 2   
    22    9   10 2   
    23    9   36 1   
    24   10   13 1   
    25   10   37 1   
    26   11   12 1   
    27   12   13 1   
    28   12   16 1   
    29   13   14 2   
    30   14   15 1   
    31   15   16 2   
    32   15   38 1   
    33   16   17 1   
    34   17   18 ar  
    35   17   19 ar  
    36   18   22 ar  
    37   18   39 1   
    38   19   20 ar  
    39   19   40 1   
    40   20   21 ar  
    41   20   41 1   
    42   21   22 ar  
    43   21   42 1   
    44   22   23 1   
    45   23   43 1   
    46   23   44 1   
@<TRIPOS>SUBSTRUCTURE
     1 IZZ         1 TEMP              0 ****  ****    0 ROOT
