@<TRIPOS>MOLECULE
IZZ
   44    38     1     0     0
SMALL
bcc


@<TRIPOS>ATOM
      1 OAR         0.0890    2.6970   -2.7750 oh        1 IZZ     -0.324000
      2 CAT         1.4890    2.7310   -2.5500 c3        1 IZZ     -0.017000
      3 CAM         1.7600    2.7830   -1.0610 c3        1 IZZ     -0.046000
      4 CAO         2.9830    3.6600   -0.7950 c3        1 IZZ     -0.133000
      5 CAW         3.9760    3.5270   -1.9640 c3        1 IZZ     -0.210000
      6 CAV         2.5400    5.1320   -0.6610 c3        1 IZZ     -0.210000
      7 NAJ         2.0040    1.4730   -0.5790 n3        1 IZZ     -0.262000
      8 CAG         0.9760    0.7690    0.1500 c2        1 IZZ      0.072000
      9 CAK         1.9200    0.4500    1.1090 c2        1 IZZ     -0.205000
     10 CAI         1.7430   -0.6510    1.9060 c1        1 IZZ     -0.019000
     11 NAC        -0.1350   -0.0150   -0.0030 n1        1 IZZ     -0.101000
     12 NAA        -0.3160   -1.1350    0.8070 n1        1 IZZ     -0.016000
     13 CAD         0.6100   -1.4490    1.7490 c1        1 IZZ     -0.082000
     14 NAE         0.1900   -2.5900    2.3960 n1        1 IZZ     -0.114000
     15 CAF        -0.9820   -2.9690    1.8540 c1        1 IZZ     -0.135000
     16 CAB        -1.3040   -2.0670    0.8630 c1        1 IZZ     -0.055000
     17 CAH        -2.4020   -2.9560    0.7310 c1        1 IZZ      0.028000
     18 CAL        -3.5370   -2.7750    1.5120 c1        1 IZZ     -0.177000
     19 CAQ        -2.2960   -4.0740   -0.0960 c1        1 IZZ     -0.143000
     20 CAS        -3.3270   -5.0080   -0.1390 c1        1 IZZ     -0.141000
     21 CAU        -4.4610   -4.8270    0.6410 c1        1 IZZ     -0.141000
     22 CAN        -4.5670   -3.7100    1.4690 c1        1 IZZ      0.052000
     23 NAP        -5.6940   -3.5650    2.3260 n3        1 IZZ     -0.325000
     24 HOAR       -0.0740    2.7670   -3.6500 ho        1 IZZ      0.209000
     25 HAT         1.8710    3.5290   -2.9810 h1        1 IZZ      0.089500
     26 HATA        1.9010    1.9230   -2.9300 h1        1 IZZ      0.089500
     27 HAM         0.9840    3.1590   -0.6020 h1        1 IZZ      0.139000
     28 HAO         3.4190    3.3710    0.0420 hc        1 IZZ      0.102000
     29 HAW         3.6590    4.0620   -2.7260 hc        1 IZZ      0.077000
     30 HAWA        4.0430    2.5850   -2.2310 hc        1 IZZ      0.077000
     31 HAWB        4.8630    3.8520   -1.6800 hc        1 IZZ      0.077000
     32 HAV         3.3310    5.7030   -0.5580 hc        1 IZZ      0.077000
     33 HAVA        1.9600    5.2290    0.1270 hc        1 IZZ      0.077000
     34 HAVB        2.0440    5.4000   -1.4690 hc        1 IZZ      0.077000
     35 HNAJ        2.8210    1.0730   -0.7240 hn        1 IZZ      0.195000
     36 HAK         2.7060    1.0170    1.2270 ha        1 IZZ      0.152000
     37 HAI         2.4100   -0.8760    2.5840 ha        1 IZZ      0.169000
     38 HAF        -1.5310   -3.7210    2.1460 DU        1 IZZ      0.187000
     39 HAL        -3.6120   -1.9890    2.0950 ha        1 IZZ      0.136000
     40 HAQ        -1.5000   -4.2010   -0.6440 ha        1 IZZ      0.147000
     41 HAS        -3.2510   -5.8010   -0.7260 ha        1 IZZ      0.132000
     42 HAU        -5.1880   -5.4870    0.6110 ha        1 IZZ      0.132000
     43 HNAP       -6.3400   -4.2100    2.3430 hn        1 IZZ      0.182000
     44 HNAA       -5.7770   -2.8180    2.8530 hn        1 IZZ      0.182000
@<TRIPOS>BOND
     1    1    2 1   
     2    1   24 1   
     3    2    3 1   
     4    2   25 1   
     5    2   26 1   
     6    3    4 1   
     7    3    7 1   
     8    3   27 1   
     9    4    5 1   
    10    4    6 1   
    11    4   28 1   
    12    5   29 1   
    13    5   30 1   
    14    5   31 1   
    15    6   32 1   
    16    6   33 1   
    17    6   34 1   
    18    7    8 1   
    19    7   35 1   
    20    8    9 1   
    21    8   11 1   
    22    9   10 1   
    23    9   36 1   
    24   10   37 1   
    25   12   13 1   
    26   14   15 1   
    27   15   16 1   
    28   16   17 1   
    29   17   19 1   
    30   18   22 1   
    31   18   39 1   
    32   19   40 1   
    33   20   21 1   
    34   20   41 1   
    35   21   42 1   
    36   22   23 1   
    37   23   43 1   
    38   23   44 1   
@<TRIPOS>SUBSTRUCTURE
     1 IZZ         1 TEMP              0 ****  ****    0 ROOT
