@<TRIPOS>MOLECULE
900
   57    61     1     0     0
SMALL
bcc


@<TRIPOS>ATOM
      1 C1          0.0380    0.9430   -0.0250 ca        1 900      0.130100
      2 C2          1.3500    0.6720    0.3200 ca        1 900     -0.131000
      3 C3          1.6850    0.4400    1.6790 ca        1 900     -0.028000
      4 C4          0.6730    0.4950    2.6780 ca        1 900     -0.003000
      5 C5         -0.6610    0.7850    2.2830 ca        1 900     -0.133000
      6 C6         -0.9790    1.0060    0.9670 ca        1 900     -0.110000
      7 C10         3.0290    0.1660    2.0490 ca        1 900     -0.029000
      8 C11         3.3650   -0.0570    3.3660 ca        1 900     -0.151000
      9 C12         2.3740   -0.0220    4.3640 ca        1 900     -0.061000
     10 C13         1.0540    0.2480    4.0330 ca        1 900     -0.193600
     11 O17        -0.2310    1.0490   -1.3790 os        1 900     -0.236200
     12 C18        -1.2700    1.9050   -1.7490 ca        1 900      0.132100
     13 C19        -2.0410    1.4950   -2.8790 ca        1 900     -0.140300
     14 C20        -3.0490    2.4020   -3.3350 ca        1 900      0.423600
     15 N21        -3.2790    3.6190   -2.7230 nb        1 900     -0.650000
     16 C22        -2.5300    3.9450   -1.6830 ca        1 900      0.424200
     17 C23        -1.4980    3.1230   -1.1410 ca        1 900     -0.304300
     18 C26        -1.8330    0.2600   -3.5430 ca        1 900     -0.183000
     19 C27        -2.6040   -0.0790   -4.6300 ca        1 900      0.129100
     20 C28        -3.6290    0.8230   -5.0970 ca        1 900      0.143100
     21 C29        -3.8420    2.0270   -4.4660 ca        1 900     -0.248300
     22 O32        -2.5020   -1.2460   -5.3500 os        1 900     -0.292900
     23 C33        -1.4440   -2.1230   -4.9730 c3        1 900      0.107700
     24 O37        -4.3310    0.3640   -6.1860 os        1 900     -0.295900
     25 C38        -5.3310    1.2380   -6.7060 c3        1 900      0.104700
     26 C42         0.0370    0.3290    5.0800 c         1 900      0.595700
     27 N43         0.0740   -0.8200    6.1030 n4        1 900     -0.554200
     28 C44         0.7610   -0.4440    7.3400 ca        1 900     -0.068400
     29 C45         0.2560    0.6090    8.1240 ca        1 900     -0.093000
     30 C46         0.8980    0.9480    9.3100 ca        1 900     -0.106500
     31 C47         2.0400    0.2450    9.7200 ca        1 900      0.059400
     32 C48         2.5400   -0.8040    8.9350 ca        1 900     -0.106500
     33 C49         1.9070   -1.1520    7.7470 ca        1 900     -0.093000
     34 CL54        2.8120    0.6590   11.1590 cl        1 900     -0.006400
     35 O55        -0.8620    1.1330    5.2690 o         1 900     -0.422100
     36 H2          2.1320    0.6270   -0.4550 ha        1 900      0.172000
     37 H5         -1.4530    0.8490    3.0460 ha        1 900      0.146000
     38 H6         -2.0140    1.2340    0.6600 ha        1 900      0.173000
     39 H10         3.8020    0.1400    1.2610 ha        1 900      0.165000
     40 H11         4.4100   -0.2570    3.6540 ha        1 900      0.164000
     41 H12         2.6760   -0.1840    5.4120 ha        1 900      0.139000
     42 H22        -2.7360    4.9300   -1.2230 h4        1 900      0.032100
     43 H23        -0.9120    3.4650   -0.2800 ha        1 900      0.151000
     44 H26        -1.0400   -0.4050   -3.1700 ha        1 900      0.154000
     45 H29        -4.6180    2.7250   -4.8180 ha        1 900      0.168000
     46 H331       -1.5940   -2.4950   -3.9310 h1        1 900      0.049033
     47 H332       -0.4540   -1.6130   -5.0700 h1        1 900      0.049033
     48 H333       -1.5320   -2.9610   -5.7110 h1        1 900      0.049033
     49 H381       -5.7400    0.6650   -7.5770 h1        1 900      0.053367
     50 H382       -6.1260    1.4230   -5.9440 h1        1 900      0.053367
     51 H383       -4.8750    2.2010   -7.0440 h1        1 900      0.053367
     52 H43        -0.8920   -1.0770    6.3420 hn        1 900      0.460800
     53 H45        -0.6390    1.1750    7.8090 ha        1 900      0.165000
     54 H46         0.5020    1.7750    9.9260 ha        1 900      0.182500
     55 H48         3.4370   -1.3610    9.2590 ha        1 900      0.182500
     56 H49         2.3130   -1.9840    7.1480 ha        1 900      0.165000
     57 H432        0.5450   -1.6270    5.6810 hn        1 900      0.460800
@<TRIPOS>BOND
     1    1    2 ar  
     2    1    6 ar  
     3    1   11 1   
     4    2    3 ar  
     5    2   36 1   
     6    3    4 ar  
     7    3    7 ar  
     8    4    5 ar  
     9    4   10 ar  
    10    5    6 ar  
    11    5   37 1   
    12    6   38 1   
    13    7    8 ar  
    14    7   39 1   
    15    8    9 ar  
    16    8   40 1   
    17    9   10 ar  
    18    9   41 1   
    19   10   26 1   
    20   11   12 1   
    21   12   13 ar  
    22   12   17 ar  
    23   13   14 ar  
    24   13   18 ar  
    25   14   15 ar  
    26   14   21 ar  
    27   15   16 ar  
    28   16   17 ar  
    29   16   42 1   
    30   17   43 1   
    31   18   19 ar  
    32   18   44 1   
    33   19   20 ar  
    34   19   22 1   
    35   20   21 ar  
    36   20   24 1   
    37   21   45 1   
    38   22   23 1   
    39   23   46 1   
    40   23   47 1   
    41   23   48 1   
    42   24   25 1   
    43   25   49 1   
    44   25   50 1   
    45   25   51 1   
    46   26   27 1   
    47   26   35 2   
    48   27   28 1   
    49   27   52 1   
    50   27   57 1   
    51   28   29 ar  
    52   28   33 ar  
    53   29   30 ar  
    54   29   53 1   
    55   30   31 ar  
    56   30   54 1   
    57   31   32 ar  
    58   31   34 1   
    59   32   33 ar  
    60   32   55 1   
    61   33   56 1   
@<TRIPOS>SUBSTRUCTURE
     1 900         1 TEMP              0 ****  ****    0 ROOT
