@<TRIPOS>MOLECULE
900
   56    60     1     0     0
SMALL
bcc


@<TRIPOS>ATOM
      1 C1          0.1120    0.2070   -0.0100 ca        1 900      0.095100
      2 C2          1.4820    0.0590    0.0200 ca        1 900     -0.125000
      3 C3          2.1260   -0.2170    1.2570 ca        1 900     -0.031000
      4 C4          1.3530   -0.3170    2.4450 ca        1 900     -0.012000
      5 C5         -0.0600   -0.1590    2.3660 ca        1 900     -0.099000
      6 C6         -0.6750    0.0990    1.1680 ca        1 900     -0.140000
      7 C10         3.5350   -0.3950    1.3180 ca        1 900     -0.094000
      8 C11         4.1530   -0.6560    2.5160 ca        1 900     -0.134000
      9 C12         3.3950   -0.7410    3.7060 ca        1 900     -0.097000
     10 C13         2.0270   -0.5740    3.6740 ca        1 900     -0.129600
     11 O17        -0.4900    0.3350   -1.2630 os        1 900     -0.247200
     12 C18        -1.3510    1.4080   -1.4340 ca        1 900      0.165100
     13 C19        -2.1820    1.3370   -2.5980 ca        1 900     -0.150300
     14 C20        -3.0480    2.4450   -2.8480 ca        1 900      0.423600
     15 N21        -3.1010    3.5450   -2.0130 nb        1 900     -0.674000
     16 C22        -2.3130    3.5540   -0.9510 ca        1 900      0.434200
     17 C23        -1.4070    2.5090   -0.6030 ca        1 900     -0.326300
     18 C26        -2.1620    0.2270   -3.4790 ca        1 900     -0.165000
     19 C27        -2.9790    0.2080   -4.5860 ca        1 900      0.112100
     20 C28        -3.8570    1.3190   -4.8510 ca        1 900      0.135100
     21 C29        -3.8890    2.4040   -4.0060 ca        1 900     -0.249300
     22 O32        -3.0480   -0.8120   -5.5110 os        1 900     -0.300900
     23 C33        -2.2010   -1.9300   -5.2650 c3        1 900      0.107700
     24 O37        -4.6210    1.1790   -5.9890 os        1 900     -0.300900
     25 C38        -5.5050    2.2560   -6.2850 c3        1 900      0.107700
     26 C42         1.2380   -0.6890    4.9420 c         1 900      0.680700
     27 N43         1.6160    0.2000    5.9410 ns        1 900     -0.469100
     28 C44         1.0580    0.3340    7.2220 ca        1 900      0.069600
     29 C45         0.1130   -0.5700    7.7520 ca        1 900     -0.163000
     30 C46        -0.3930   -0.3860    9.0350 ca        1 900     -0.097500
     31 C47         0.0300    0.6930    9.8130 ca        1 900     -0.011600
     32 C48         0.9670    1.5980    9.3050 ca        1 900     -0.097500
     33 C49         1.4760    1.4250    8.0250 ca        1 900     -0.163000
     34 Cl54       -0.5920    0.9090   11.3800 cl        1 900     -0.094400
     35 O55         0.3260   -1.5220    5.0810 o         1 900     -0.575100
     36 H2          2.0780    0.1360   -0.9010 ha        1 900      0.154000
     37 H5         -0.6580   -0.2720    3.2860 ha        1 900      0.161000
     38 H6         -1.7670    0.2170    1.0950 ha        1 900      0.156000
     39 H10         4.1170   -0.3220    0.3860 ha        1 900      0.141000
     40 H11         5.2430   -0.8030    2.5670 ha        1 900      0.142000
     41 H12         3.9140   -0.9560    4.6530 ha        1 900      0.143000
     42 H22        -2.3790    4.4480   -0.3040 h4        1 900      0.023100
     43 H23        -0.7850    2.5950    0.2960 ha        1 900      0.156000
     44 H26        -1.4800   -0.6060   -3.2500 ha        1 900      0.159000
     45 H29        -4.5560    3.2570   -4.1990 ha        1 900      0.161000
     46 H331       -2.4570   -2.4130   -4.2910 h1        1 900      0.046700
     47 H332       -1.1270   -1.6220   -5.2790 h1        1 900      0.046700
     48 H333       -2.4280   -2.6160   -6.1200 h1        1 900      0.046700
     49 H381       -6.2520    2.3900   -5.4650 h1        1 900      0.048367
     50 H382       -6.0070    1.9220   -7.2280 h1        1 900      0.048367
     51 H383       -4.9330    3.2010   -6.4530 h1        1 900      0.048367
     52 H43         2.3280    0.8590    5.7110 hn        1 900      0.321500
     53 H45        -0.2390   -1.4310    7.1590 ha        1 900      0.155500
     54 H46        -1.1310   -1.1010    9.4310 ha        1 900      0.149500
     55 H48         1.3030    2.4500    9.9150 ha        1 900      0.149500
     56 H49         2.2120    2.1500    7.6450 ha        1 900      0.155500
@<TRIPOS>BOND
     1    1    2 ar  
     2    1    6 ar  
     3    1   11 1   
     4    2    3 ar  
     5    2   36 1   
     6    3    4 ar  
     7    3    7 ar  
     8    4    5 ar  
     9    4   10 ar  
    10    5    6 ar  
    11    5   37 1   
    12    6   38 1   
    13    7    8 ar  
    14    7   39 1   
    15    8    9 ar  
    16    8   40 1   
    17    9   10 ar  
    18    9   41 1   
    19   10   26 1   
    20   11   12 1   
    21   12   13 ar  
    22   12   17 ar  
    23   13   14 ar  
    24   13   18 ar  
    25   14   15 ar  
    26   14   21 ar  
    27   15   16 ar  
    28   16   17 ar  
    29   16   42 1   
    30   17   43 1   
    31   18   19 ar  
    32   18   44 1   
    33   19   20 ar  
    34   19   22 1   
    35   20   21 ar  
    36   20   24 1   
    37   21   45 1   
    38   22   23 1   
    39   23   46 1   
    40   23   47 1   
    41   23   48 1   
    42   24   25 1   
    43   25   49 1   
    44   25   50 1   
    45   25   51 1   
    46   26   27 1   
    47   26   35 2   
    48   27   28 1   
    49   27   52 1   
    50   28   29 ar  
    51   28   33 ar  
    52   29   30 ar  
    53   29   53 1   
    54   30   31 ar  
    55   30   54 1   
    56   31   32 ar  
    57   31   34 1   
    58   32   33 ar  
    59   32   55 1   
    60   33   56 1   
@<TRIPOS>SUBSTRUCTURE
     1 900         1 TEMP              0 ****  ****    0 ROOT
