@<TRIPOS>MOLECULE
900
   56    60     1     0     0
SMALL
bcc


@<TRIPOS>ATOM
      1 C1          0.1140    0.2130   -0.0110 ca        1 900      0.095100
      2 C2          1.4860    0.0740    0.0190 ca        1 900     -0.125000
      3 C3          2.1310   -0.2010    1.2550 ca        1 900     -0.031000
      4 C4          1.3590   -0.3080    2.4430 ca        1 900     -0.012000
      5 C5         -0.0550   -0.1590    2.3650 ca        1 900     -0.099000
      6 C6         -0.6720    0.0980    1.1670 ca        1 900     -0.140000
      7 C10         3.5410   -0.3700    1.3160 ca        1 900     -0.094000
      8 C11         4.1620   -0.6300    2.5130 ca        1 900     -0.134000
      9 C12         3.4040   -0.7220    3.7030 ca        1 900     -0.097000
     10 C13         2.0350   -0.5630    3.6710 ca        1 900     -0.129600
     11 O17        -0.4880    0.3390   -1.2640 os        1 900     -0.247200
     12 C18        -1.3560    1.4080   -1.4320 ca        1 900      0.165100
     13 C19        -2.1870    1.3330   -2.5960 ca        1 900     -0.150300
     14 C20        -3.0610    2.4360   -2.8430 ca        1 900      0.423600
     15 N21        -3.1210    3.5340   -2.0060 nb        1 900     -0.674000
     16 C22        -2.3320    3.5460   -0.9450 ca        1 900      0.434200
     17 C23        -1.4200    2.5070   -0.5990 ca        1 900     -0.326300
     18 C26        -2.1600    0.2250   -3.4790 ca        1 900     -0.165000
     19 C27        -2.9780    0.2030   -4.5860 ca        1 900      0.112100
     20 C28        -3.8620    1.3080   -4.8490 ca        1 900      0.135100
     21 C29        -3.9020    2.3920   -4.0010 ca        1 900     -0.249300
     22 O32        -3.0400   -0.8160   -5.5130 os        1 900     -0.300900
     23 C33        -2.1850   -1.9290   -5.2690 c3        1 900      0.107700
     24 O37        -4.6260    1.1660   -5.9860 os        1 900     -0.300900
     25 C38        -5.5180    2.2380   -6.2800 c3        1 900      0.107700
     26 C42         1.2470   -0.6850    4.9390 c         1 900      0.680700
     27 N43         1.6190    0.2050    5.9400 n         1 900     -0.469100
     28 C44         1.0600    0.3340    7.2200 ca        1 900      0.069600
     29 C45         0.1200   -0.5770    7.7490 ca        1 900     -0.163000
     30 C46        -0.3870   -0.3980    9.0320 ca        1 900     -0.097500
     31 C47         0.0290    0.6830    9.8120 ca        1 900     -0.011600
     32 C48         0.9600    1.5940    9.3060 ca        1 900     -0.097500
     33 C49         1.4710    1.4260    8.0250 ca        1 900     -0.163000
     34 CL54       -0.5950    0.8940   11.3790 cl        1 900     -0.094400
     35 O55         0.3410   -1.5240    5.0770 o         1 900     -0.574100
     36 H2          2.0810    0.1560   -0.9020 ha        1 900      0.154000
     37 H5         -0.6520   -0.2770    3.2850 ha        1 900      0.161000
     38 H6         -1.7650    0.2090    1.0940 ha        1 900      0.156000
     39 H10         4.1220   -0.2920    0.3840 ha        1 900      0.141000
     40 H11         5.2520   -0.7690    2.5640 ha        1 900      0.142000
     41 H12         3.9250   -0.9350    4.6500 ha        1 900      0.143000
     42 H22        -2.4030    4.4390   -0.2960 h4        1 900      0.023100
     43 H23        -0.7980    2.5950    0.3000 ha        1 900      0.156000
     44 H26        -1.4730   -0.6040   -3.2520 ha        1 900      0.159000
     45 H29        -4.5740    3.2410   -4.1930 ha        1 900      0.161000
     46 H331       -2.4080   -2.6150   -6.1260 h1        1 900      0.046700
     47 H332       -2.4380   -2.4150   -4.2960 h1        1 900      0.046700
     48 H333       -1.1140   -1.6130   -5.2840 h1        1 900      0.046700
     49 H381       -6.0180    1.9030   -7.2240 h1        1 900      0.048367
     50 H382       -6.2650    2.3650   -5.4600 h1        1 900      0.048367
     51 H383       -4.9520    3.1860   -6.4470 h1        1 900      0.048367
     52 H43         2.3270    0.8690    5.7100 hn        1 900      0.321500
     53 H45        -0.2260   -1.4390    7.1550 ha        1 900      0.155500
     54 H46        -1.1200   -1.1180    9.4280 ha        1 900      0.149500
     55 H48         1.2920    2.4480    9.9170 ha        1 900      0.149500
     56 H49         2.2020    2.1570    7.6460 ha        1 900      0.155500
@<TRIPOS>BOND
     1    1    2 ar  
     2    1    6 ar  
     3    1   11 1   
     4    2    3 ar  
     5    2   36 1   
     6    3    4 ar  
     7    3    7 ar  
     8    4    5 ar  
     9    4   10 ar  
    10    5    6 ar  
    11    5   37 1   
    12    6   38 1   
    13    7    8 ar  
    14    7   39 1   
    15    8    9 ar  
    16    8   40 1   
    17    9   10 ar  
    18    9   41 1   
    19   10   26 1   
    20   11   12 1   
    21   12   13 ar  
    22   12   17 ar  
    23   13   14 ar  
    24   13   18 ar  
    25   14   15 ar  
    26   14   21 ar  
    27   15   16 ar  
    28   16   17 ar  
    29   16   42 1   
    30   17   43 1   
    31   18   19 ar  
    32   18   44 1   
    33   19   20 ar  
    34   19   22 1   
    35   20   21 ar  
    36   20   24 1   
    37   21   45 1   
    38   22   23 1   
    39   23   46 1   
    40   23   47 1   
    41   23   48 1   
    42   24   25 1   
    43   25   49 1   
    44   25   50 1   
    45   25   51 1   
    46   26   27 1   
    47   26   35 2   
    48   27   28 1   
    49   27   52 1   
    50   28   29 ar  
    51   28   33 ar  
    52   29   30 ar  
    53   29   53 1   
    54   30   31 ar  
    55   30   54 1   
    56   31   32 ar  
    57   31   34 1   
    58   32   33 ar  
    59   32   55 1   
    60   33   56 1   
@<TRIPOS>SUBSTRUCTURE
     1 900         1 TEMP              0 ****  ****    0 ROOT
