@<TRIPOS>MOLECULE
900
   56    60     1     0     0
SMALL
bcc


@<TRIPOS>ATOM
      1 C1         -1.3240    1.2520   -0.0540 ca        1 900      0.095100
      2 C2         -0.8930    2.5380    0.1980 ca        1 900     -0.125000
      3 C3          0.4890    2.8450    0.0750 ca        1 900     -0.031000
      4 C4          1.4070    1.8230   -0.2850 ca        1 900     -0.012000
      5 C5          0.9170    0.5090   -0.5370 ca        1 900     -0.099000
      6 C6         -0.4190    0.2220   -0.4250 ca        1 900     -0.140000
      7 C10         0.9630    4.1650    0.3070 ca        1 900     -0.094000
      8 C11         2.3000    4.4570    0.1930 ca        1 900     -0.134000
      9 C12         3.2240    3.4420   -0.1480 ca        1 900     -0.097000
     10 C13         2.7900    2.1540   -0.3810 ca        1 900     -0.129600
     11 O17        -2.7020    1.0310   -0.0610 os        1 900     -0.247200
     12 C18        -3.1680   -0.0130    0.7250 ca        1 900      0.165100
     13 C19        -4.5180   -0.4140    0.4580 ca        1 900     -0.150300
     14 C20        -5.0620   -1.4490    1.2770 ca        1 900      0.423600
     15 N21        -4.3360   -2.0540    2.2860 nb        1 900     -0.674000
     16 C22        -3.0950   -1.6440    2.4840 ca        1 900      0.434200
     17 C23        -2.4480   -0.6190    1.7330 ca        1 900     -0.326300
     18 C26        -5.2970    0.1760   -0.5680 ca        1 900     -0.165000
     19 C27        -6.5890   -0.2440   -0.7840 ca        1 900      0.112100
     20 C28        -7.1520   -1.2860    0.0350 ca        1 900      0.135100
     21 C29        -6.4100   -1.8700    1.0350 ca        1 900     -0.249300
     22 O32        -7.4400    0.2530   -1.7480 os        1 900     -0.300900
     23 C33        -6.9040    1.2750   -2.5820 c3        1 900      0.107700
     24 O37        -8.4530   -1.6140   -0.2790 os        1 900     -0.300900
     25 C38        -9.0460   -2.6440    0.5070 c3        1 900      0.107700
     26 C42         3.7810    1.0980   -0.7620 c         1 900      0.680700
     27 N43         4.8000    0.9000    0.1630 n         1 900     -0.469100
     28 C44         5.8570   -0.0210    0.0850 ca        1 900      0.069600
     29 C45         6.1380   -0.7800   -1.0710 ca        1 900     -0.163000
     30 C46         7.2090   -1.6670   -1.0850 ca        1 900     -0.097500
     31 C47         8.0200   -1.8150    0.0420 ca        1 900     -0.011600
     32 C48         7.7580   -1.0700    1.1950 ca        1 900     -0.097500
     33 C49         6.6890   -0.1830    1.2210 ca        1 900     -0.163000
     34 CL54        9.3270   -2.9010    0.0150 cl        1 900     -0.094400
     35 O55         3.6940    0.4630   -1.8270 o         1 900     -0.575100
     36 H2         -1.6060    3.3280    0.4750 ha        1 900      0.154000
     37 H5          1.6310   -0.2720   -0.8490 ha        1 900      0.161000
     38 H6         -0.8100   -0.7870   -0.6230 ha        1 900      0.156000
     39 H10         0.2360    4.9460    0.5770 ha        1 900      0.141000
     40 H11         2.6700    5.4790    0.3640 ha        1 900      0.142000
     41 H12         4.2900    3.7030   -0.2380 ha        1 900      0.143000
     42 H22        -2.5410   -2.1470    3.2990 h4        1 900      0.023100
     43 H23        -1.4130   -0.3360    1.9640 ha        1 900      0.156000
     44 H26        -4.8380    0.9710   -1.1770 ha        1 900      0.159000
     45 H29        -6.8310   -2.6670    1.6670 ha        1 900      0.161000
     46 H331       -7.7510    1.5110   -3.2750 h1        1 900      0.046700
     47 H332       -6.6250    2.1720   -1.9770 h1        1 900      0.046700
     48 H333       -6.0210    0.8970   -3.1520 h1        1 900      0.046700
     49 H381       -9.0920   -2.3420    1.5820 h1        1 900      0.048367
     50 H382      -10.0750   -2.7330    0.0760 h1        1 900      0.048367
     51 H383       -8.4830   -3.6020    0.3910 h1        1 900      0.048367
     52 H43         4.7520    1.4290    1.0060 hn        1 900      0.321500
     53 H45         5.5140   -0.6830   -1.9750 ha        1 900      0.155500
     54 H46         7.4130   -2.2530   -1.9960 ha        1 900      0.149500
     55 H48         8.3940   -1.1830    2.0860 ha        1 900      0.149500
     56 H49         6.5010    0.3930    2.1400 ha        1 900      0.155500
@<TRIPOS>BOND
     1    1    2 ar  
     2    1    6 ar  
     3    1   11 1   
     4    2    3 ar  
     5    2   36 1   
     6    3    4 ar  
     7    3    7 ar  
     8    4    5 ar  
     9    4   10 ar  
    10    5    6 ar  
    11    5   37 1   
    12    6   38 1   
    13    7    8 ar  
    14    7   39 1   
    15    8    9 ar  
    16    8   40 1   
    17    9   10 ar  
    18    9   41 1   
    19   10   26 1   
    20   11   12 1   
    21   12   13 ar  
    22   12   17 ar  
    23   13   14 ar  
    24   13   18 ar  
    25   14   15 ar  
    26   14   21 ar  
    27   15   16 ar  
    28   16   17 ar  
    29   16   42 1   
    30   17   43 1   
    31   18   19 ar  
    32   18   44 1   
    33   19   20 ar  
    34   19   22 1   
    35   20   21 ar  
    36   20   24 1   
    37   21   45 1   
    38   22   23 1   
    39   23   46 1   
    40   23   47 1   
    41   23   48 1   
    42   24   25 1   
    43   25   49 1   
    44   25   50 1   
    45   25   51 1   
    46   26   27 1   
    47   26   35 2   
    48   27   28 1   
    49   27   52 1   
    50   28   29 ar  
    51   28   33 ar  
    52   29   30 ar  
    53   29   53 1   
    54   30   31 ar  
    55   30   54 1   
    56   31   32 ar  
    57   31   34 1   
    58   32   33 ar  
    59   32   55 1   
    60   33   56 1   
@<TRIPOS>SUBSTRUCTURE
     1 900         1 TEMP              0 ****  ****    0 ROOT
