@<TRIPOS>MOLECULE
900
   56    45     1     0     0
SMALL
bcc


@<TRIPOS>ATOM
      1 C1          0.8100   -0.1870   -0.9190 c1        1 900      0.088500
      2 C2          2.1990   -0.2200   -0.8830 c1        1 900     -0.124000
      3 C3          2.8710   -0.2730    0.3540 c1        1 900     -0.026750
      4 C4          2.1510   -0.2920    1.5270 c1        1 900     -0.026750
      5 C5          0.7440   -0.2590    1.4890 c1        1 900     -0.124000
      6 C6          0.0820   -0.2060    0.2680 c1        1 900     -0.203000
      7 C10         4.2780   -0.2840    0.3920 c1        1 900     -0.113500
      8 C11         4.9400   -0.3130    1.6140 c1        1 900     -0.113500
      9 C12         4.2120   -0.3320    2.8010 c1        1 900     -0.096000
     10 C13         2.8240   -0.3220    2.7640 c1        1 900     -0.100000
     11 O17         0.0820   -0.5520   -2.0690 os        1 900     -0.156000
     12 C18        -0.4520    0.6040   -2.6730 c1        1 900      0.088500
     13 C19        -1.3250    0.4640   -3.7430 c1        1 900     -0.026750
     14 C20        -1.8560    1.5790   -4.3460 c1        1 900     -0.026750
     15 N21        -1.5190    2.8410   -3.8860 n1        1 900     -0.155000
     16 C22        -0.6600    2.9800   -2.8330 c1        1 900     -0.019000
     17 C23        -0.1210    1.8510   -2.2200 c1        1 900     -0.203000
     18 C26        -1.6750   -0.8200   -4.2050 c1        1 900     -0.124000
     19 C27        -2.5560   -0.9580   -5.2700 c1        1 900      0.056000
     20 C28        -3.0940    0.1720   -5.8810 c1        1 900      0.056000
     21 C29        -2.7500    1.4380   -5.4260 c1        1 900     -0.124000
     22 O32        -2.9610   -1.9320   -6.1980 os        1 900     -0.207500
     23 C33        -3.5520   -3.0700   -5.6100 c3        1 900     -0.077000
     24 O37        -3.8950   -0.2080   -6.9710 os        1 900     -0.207500
     25 C38        -4.9920    0.6490   -7.2000 c3        1 900     -0.077000
     26 C42         2.2920    0.1200    4.1150 c1        1 900      0.354000
     27 N43         2.2690   -0.7940    5.2030 n2        1 900     -0.323000
     28 C44         1.7140   -0.3990    6.4520 c2        1 900      0.077000
     29 C45         2.1550    0.7620    7.0690 c2        1 900     -0.149000
     30 C46         1.5600    1.1910    8.2450 c1        1 900     -0.098000
     31 C47         0.5260    0.4580    8.8060 c1        1 900     -0.100000
     32 C48         0.0850   -0.7030    8.1900 c1        1 900     -0.096000
     33 C49         0.6800   -1.1320    7.0130 c1        1 900     -0.177000
     34 CL54       -0.2810    1.0450   10.2370 cl        1 900     -0.016000
     35 O55         1.8390    1.2390    4.2520 o         1 900     -0.337000
     36 H2          2.7090   -0.2070   -1.7150 ha        1 900      0.160500
     37 H5          0.2330   -0.2720    2.3210 ha        1 900      0.160500
     38 H6         -0.8930   -0.1830    0.2420 ha        1 900      0.157500
     39 H10         4.7890   -0.2700   -0.4400 ha        1 900      0.142000
     40 H11         5.9160   -0.3200    1.6400 ha        1 900      0.142000
     41 H12         4.6780   -0.3530    3.6590 ha        1 900      0.145500
     42 H22        -0.4240    3.8700   -2.5100 ha        1 900      0.162000
     43 H23         0.4930    1.9510   -1.4680 ha        1 900      0.157500
     44 H26        -1.2980   -1.6120   -3.7770 ha        1 900      0.160500
     45 H29        -3.1270    2.2300   -5.8540 ha        1 900      0.160500
     46 H331       -3.9440   -3.6340   -6.3110 h1        1 900      0.086000
     47 H332       -2.8680   -3.5800   -5.1250 h1        1 900      0.086000
     48 H333       -4.2550   -2.7880   -4.9860 h1        1 900      0.086000
     49 H381       -5.5600    0.2710   -7.9050 h1        1 900      0.086000
     50 H382       -4.6650    1.5310   -7.4800 h1        1 900      0.086000
     51 H383       -5.5130    0.7400   -6.3730 h1        1 900      0.086000
     52 H43         2.6230   -1.6290    5.1060 hn        1 900      0.236000
     53 H45         2.8830    1.2780    6.6740 ha        1 900      0.177000
     54 H46         1.8710    2.0090    8.6790 ha        1 900      0.151000
     55 H48        -0.6430   -1.2190    8.5850 ha        1 900      0.145500
     56 H49         0.3700   -1.9490    6.5800 ha        1 900      0.134000
@<TRIPOS>BOND
     1    1    6 1   
     2    1   11 1   
     3    2    3 1   
     4    2   36 1   
     5    3    4 1   
     6    4    5 1   
     7    5   37 1   
     8    6   38 1   
     9    7    8 1   
    10    7   39 1   
    11    8   40 1   
    12    9   10 1   
    13    9   41 1   
    14   11   12 1   
    15   12   17 1   
    16   13   14 1   
    17   13   18 1   
    18   14   21 1   
    19   15   16 1   
    20   16   42 1   
    21   17   43 1   
    22   18   44 1   
    23   19   20 1   
    24   19   22 1   
    25   20   24 1   
    26   21   45 1   
    27   22   23 1   
    28   23   46 1   
    29   23   47 1   
    30   23   48 1   
    31   24   25 1   
    32   25   49 1   
    33   25   50 1   
    34   25   51 1   
    35   26   35 1   
    36   27   28 1   
    37   27   52 1   
    38   28   29 1   
    39   28   33 1   
    40   29   30 1   
    41   29   53 1   
    42   30   54 1   
    43   31   32 1   
    44   32   55 1   
    45   33   56 1   
@<TRIPOS>SUBSTRUCTURE
     1 900         1 TEMP              0 ****  ****    0 ROOT
