@<TRIPOS>MOLECULE
901
   87    88     1     0     0
SMALL
bcc


@<TRIPOS>ATOM
      1 O6          0.0000    0.0000    0.0000 o         1 901     -0.727800
      2 C24         1.3460    0.0000    0.0000 c         1 901      0.919600
      3 O7          1.9520    0.0000    1.0510 o         1 901     -0.727800
      4 C8          2.0920    0.0000   -1.2910 c         1 901      0.532100
      5 O5          1.4850    0.0010   -2.3430 o         1 901     -0.541100
      6 N4          3.4400    0.0010   -1.2920 n         1 901      0.111800
      7 C26         4.1350    0.0010   -2.4970 ca        1 901     -0.075400
      8 C27         4.6070   -1.1900   -3.0310 ca        1 901     -0.138000
      9 C28         5.2970   -1.1870   -4.2270 ca        1 901     -0.115000
     10 C29         5.5230    0.0010   -4.9030 ca        1 901     -0.119000
     11 C30         5.0630    1.1930   -4.3890 ca        1 901     -0.051000
     12 C25         4.3580    1.2060   -3.1820 ca        1 901     -0.099600
     13 C31         3.8630    2.4780   -2.6270 c         1 901      0.964200
     14 O9          3.1580    2.4740   -1.6370 o         1 901     -0.798300
     15 O10         4.1900    3.6440   -3.2160 o         1 901     -0.798300
     16 C2          4.1390    0.0000   -0.0800 ca        1 901      0.033600
     17 C3          4.5920    1.1960    0.4620 ca        1 901     -0.052000
     18 C4          5.2820    1.1910    1.6590 ca        1 901     -0.092000
     19 C5          5.5180   -0.0000    2.3170 ca        1 901     -0.203300
     20 C6          5.0630   -1.1920    1.7840 ca        1 901     -0.148000
     21 C1          4.3720   -1.1940    0.5880 ca        1 901     -0.043300
     22 C32         3.8760   -2.4930    0.0060 c3        1 901      0.002900
     23 C33         2.6020   -2.9250    0.7340 c3        1 901     -0.012100
     24 C7          6.2720   -0.0010    3.6230 c3        1 901      0.020900
     25 C9          7.7690   -0.1530    3.3470 c3        1 901     -0.052500
     26 N1          8.0090   -1.4140    2.6430 ny        1 901      0.156200
     27 C10         7.6650   -2.5840    3.2180 c         1 901      0.332100
     28 O4          7.1530   -2.5910    4.3180 o         1 901     -0.386100
     29 C23         7.9120   -3.8810    2.4940 c3        1 901     -0.054100
     30 C11         8.5220   -0.1530    4.6510 c         1 901      0.065100
     31 O8          8.7300   -1.1990    5.2310 o         1 901     -0.574100
     32 N2          8.9660    1.0060    5.1740 ny        1 901      0.281200
     33 C12         9.6990    1.0060    6.4420 c3        1 901     -0.025200
     34 C13        10.0850    2.4400    6.8090 c3        1 901     -0.035400
     35 C15        10.8510    2.4390    8.1330 c3        1 901     -0.006400
     36 C14        11.2380    3.8720    8.5000 c3        1 901     -0.101400
     37 C16        11.9920    3.8720    9.8050 c         1 901      0.371100
     38 O1         12.1990    2.8280   10.3840 o         1 901     -0.434100
     39 N3         12.4360    5.0320   10.3280 ny        1 901      0.107200
     40 C17        13.1690    5.0310   11.5950 c3        1 901     -0.171500
     41 C22        12.1970    5.1810   12.7380 c         1 901      0.947600
     42 O2         12.4470    4.6880   13.8120 o         1 901     -0.791300
     43 O3         11.0530    5.8610   12.5610 o         1 901     -0.791300
     44 C18        14.1590    6.1970   11.6140 c3        1 901     -0.000400
     45 C34        15.1450    6.0470   10.4550 c3        1 901      0.039700
     46 S1         16.3180    7.4290   10.4760 ss        1 901     -0.343200
     47 C35        17.3360    7.0000    9.0370 c3        1 901      0.111000
     48 H27         4.4280   -2.1240   -2.5120 ha        1 901      0.103000
     49 H28         5.6630   -2.1200   -4.6390 ha        1 901      0.091000
     50 H29         6.0650   -0.0070   -5.8410 ha        1 901      0.095000
     51 H30         5.2410    2.1190   -4.9230 ha        1 901      0.134000
     52 H3          4.3560    2.1350   -0.0230 ha        1 901      0.189000
     53 H4          5.6380    2.1230    2.0810 ha        1 901      0.093000
     54 H6          5.2350   -2.1220    2.3120 ha        1 901      0.087000
     55 H321        4.6360   -3.2550    0.1240 hc        1 901      0.019200
     56 H322        3.6610   -2.3580   -1.0470 hc        1 901      0.019200
     57 H331        1.7560   -2.8390    0.0640 hc        1 901      0.021033
     58 H332        2.7030   -3.9550    1.0570 hc        1 901      0.021033
     59 H333        2.4460   -2.2900    1.5970 hc        1 901      0.021033
     60 H71         5.9320   -0.8280    4.2350 hc        1 901      0.057700
     61 H72         6.0930    0.9320    4.1440 hc        1 901      0.057700
     62 H9          8.1080    0.6730    2.7340 hx        1 901      0.069700
     63 HN1         8.9920   -1.4600    2.4560 hn        1 901      0.264300
     64 H231        7.0640   -4.5400    2.6340 hc        1 901      0.051700
     65 H232        8.0470   -3.6860    1.4370 hc        1 901      0.051700
     66 H233        8.8040   -4.3520    2.8910 hc        1 901      0.051700
     67 HN2         9.5670    1.4220    4.4900 hn        1 901      0.200300
     68 H121        9.0720    0.5910    7.2220 hx        1 901      0.088700
     69 H122       10.5950    0.4050    6.3410 hx        1 901      0.088700
     70 H131        9.1900    3.0410    6.9100 hc        1 901      0.030200
     71 H132       10.7130    2.8550    6.0300 hc        1 901      0.030200
     72 H151       11.7460    1.8370    8.0330 hc        1 901      0.046200
     73 H152       10.2230    2.0240    8.9130 hc        1 901      0.046200
     74 H141       10.3420    4.4730    8.6000 hc        1 901      0.051200
     75 H142       11.8660    4.2870    7.7200 hc        1 901      0.051200
     76 HN3        11.6360    5.6190   10.4550 hn        1 901      0.270300
     77 H17        13.7080    4.0980   11.7000 hx        1 901      0.092700
     78 H181       13.6200    7.1310   11.5110 hc        1 901      0.070200
     79 H182       14.7010    6.1950   12.5520 hc        1 901      0.070200
     80 H341       15.6850    5.1130   10.5590 h1        1 901      0.019700
     81 H342       14.6030    6.0480    9.5170 h1        1 901      0.019700
     82 H351       16.7280    7.0340    8.1410 h1        1 901      0.033367
     83 H352       18.1510    7.7090    8.9470 h1        1 901      0.033367
     84 H353       17.7380    6.0020    9.1630 h1        1 901      0.033367
     85 H12         7.5170   -1.3610    1.7740 hn        1 901      0.264300
     86 H22         8.1650    1.5930    5.3000 hn        1 901      0.200300
     87 H32        13.0380    5.4470    9.6450 hn        1 901      0.270300
@<TRIPOS>BOND
     1    1    2 1   
     2    2    3 1   
     3    2    4 1   
     4    4    5 2   
     5    4    6 1   
     6    6    7 1   
     7    6   16 1   
     8    7    8 ar  
     9    7   12 ar  
    10    8    9 ar  
    11    8   48 1   
    12    9   10 ar  
    13    9   49 1   
    14   10   11 ar  
    15   10   50 1   
    16   11   12 ar  
    17   11   51 1   
    18   12   13 1   
    19   13   14 1   
    20   13   15 1   
    21   16   17 ar  
    22   16   21 ar  
    23   17   18 ar  
    24   17   52 1   
    25   18   19 ar  
    26   18   53 1   
    27   19   20 ar  
    28   19   24 1   
    29   20   21 ar  
    30   20   54 1   
    31   21   22 1   
    32   22   23 1   
    33   22   55 1   
    34   22   56 1   
    35   23   57 1   
    36   23   58 1   
    37   23   59 1   
    38   24   25 1   
    39   24   60 1   
    40   24   61 1   
    41   25   26 1   
    42   25   30 1   
    43   25   62 1   
    44   26   27 1   
    45   26   63 1   
    46   26   85 1   
    47   27   28 2   
    48   27   29 1   
    49   29   64 1   
    50   29   65 1   
    51   29   66 1   
    52   30   31 2   
    53   30   32 1   
    54   32   33 1   
    55   32   67 1   
    56   32   86 1   
    57   33   34 1   
    58   33   68 1   
    59   33   69 1   
    60   34   35 1   
    61   34   70 1   
    62   34   71 1   
    63   35   36 1   
    64   35   72 1   
    65   35   73 1   
    66   36   37 1   
    67   36   74 1   
    68   36   75 1   
    69   37   38 2   
    70   37   39 1   
    71   39   40 1   
    72   39   76 1   
    73   39   87 1   
    74   40   41 1   
    75   40   44 1   
    76   40   77 1   
    77   41   42 1   
    78   41   43 1   
    79   44   45 1   
    80   44   78 1   
    81   44   79 1   
    82   45   46 1   
    83   45   80 1   
    84   45   81 1   
    85   46   47 1   
    86   47   82 1   
    87   47   83 1   
    88   47   84 1   
@<TRIPOS>SUBSTRUCTURE
     1 901         1 TEMP              0 ****  ****    0 ROOT
