@<TRIPOS>MOLECULE
901
   84    85     1     0     0
SMALL
bcc


@<TRIPOS>ATOM
      1 O6         -0.3510   -3.4850    7.4380 o         1 901     -0.804800
      2 C24         0.7160   -2.8200    7.3880 c         1 901      0.894600
      3 O7          1.8540   -3.2480    7.0800 o         1 901     -0.804800
      4 C8          0.6040   -1.3290    7.8370 c         1 901      0.562100
      5 O5          0.7630   -1.0190    9.0340 o         1 901     -0.650100
      6 N4          0.2550   -0.3420    6.8930 n         1 901     -0.307200
      7 C26        -0.0640    0.9870    7.2780 ca        1 901      0.102600
      8 C27        -0.8780    1.1700    8.4270 ca        1 901     -0.152000
      9 C28        -1.2550    2.4360    8.8540 ca        1 901     -0.156000
     10 C29        -0.8520    3.5640    8.1430 ca        1 901     -0.189000
     11 C30        -0.0550    3.4020    7.0160 ca        1 901     -0.115000
     12 C25         0.3620    2.1410    6.5740 ca        1 901     -0.122600
     13 C31         1.2760    2.1710    5.3580 c         1 901      0.923200
     14 O9          0.7940    2.6270    4.2710 o         1 901     -0.845300
     15 O10         2.4850    1.8460    5.4820 o         1 901     -0.845300
     16 C2          0.2250   -0.6530    5.5060 ca        1 901      0.088600
     17 C3          1.4250   -0.9900    4.8400 ca        1 901     -0.066000
     18 C4          1.4530   -1.1090    3.4570 ca        1 901     -0.127000
     19 C5          0.2940   -0.8910    2.7030 ca        1 901     -0.111300
     20 C6         -0.9200   -0.7090    3.3650 ca        1 901     -0.127000
     21 C1         -0.9790   -0.6120    4.7600 ca        1 901     -0.070300
     22 C32        -2.3130   -0.4580    5.4080 c3        1 901     -0.028100
     23 C33        -2.8220   -1.7790    5.9360 c3        1 901     -0.104100
     24 C7          0.3810   -0.7400    1.2250 c3        1 901     -0.046100
     25 C9          1.1460    0.5600    0.8950 c3        1 901      0.039700
     26 N1          0.5640    1.7760    1.4050 n         1 901     -0.532900
     27 C10        -0.7670    2.1270    1.2700 c         1 901      0.668100
     28 O4         -1.5420    1.5960    0.4350 o         1 901     -0.692100
     29 C23        -1.2570    3.2640    2.1360 c3        1 901     -0.184100
     30 C11         1.4550    0.5920   -0.6200 c         1 901      0.653100
     31 O8          2.6350    0.4250   -1.0060 o         1 901     -0.655100
     32 N2          0.4290    0.7590   -1.5150 n         1 901     -0.567900
     33 C12         0.6650    0.9250   -2.9220 c3        1 901      0.094000
     34 C13        -0.4330    0.3420   -3.8140 c3        1 901     -0.095400
     35 C15        -0.1190    0.6320   -5.2670 c3        1 901     -0.071400
     36 C14        -1.1820    0.0710   -6.1870 c3        1 901     -0.150400
     37 C16        -0.9190    0.4620   -7.6360 c         1 901      0.641100
     38 O1         -0.2110    1.4610   -7.9120 o         1 901     -0.665100
     39 N3         -1.4630   -0.3350   -8.6090 n         1 901     -0.529900
     40 C17        -1.4890    0.0180  -10.0110 c3        1 901     -0.036300
     41 C22        -2.7750   -0.5280  -10.7350 c         1 901      0.912600
     42 O2         -2.9910   -0.0800  -11.8930 o         1 901     -0.833800
     43 O3         -3.5080   -1.3620  -10.1340 o         1 901     -0.833800
     44 C18        -0.2720   -0.4950  -10.7980 c3        1 901     -0.067400
     45 C34         0.9940    0.1940  -10.3670 c3        1 901      0.020700
     46 S1          2.3130   -0.2980  -11.4610 ss        1 901     -0.365200
     47 C35         3.7090    0.4030  -10.6630 c3        1 901     -0.029000
     48 H27        -1.1950    0.2900    9.0100 ha        1 901      0.141000
     49 H28        -1.8760    2.5420    9.7540 ha        1 901      0.093000
     50 H29        -1.1580    4.5660    8.4700 ha        1 901      0.091000
     51 H30         0.2690    4.2820    6.4380 ha        1 901      0.124000
     52 H3          2.3500   -1.1220    5.4270 ha        1 901      0.169000
     53 H4          2.4050   -1.3270    2.9500 ha        1 901      0.118000
     54 H6         -1.8460   -0.6060    2.7800 ha        1 901      0.117000
     55 H321       -3.0480   -0.0430    4.6650 hc        1 901      0.036200
     56 H322       -2.2520    0.2840    6.2500 hc        1 901      0.036200
     57 H331       -3.7560   -1.6220    6.5260 hc        1 901      0.039367
     58 H332       -3.0500   -2.4760    5.0930 hc        1 901      0.039367
     59 H333       -2.0510   -2.2660    6.5910 hc        1 901      0.039367
     60 H71        -0.6410   -0.7060    0.7650 hc        1 901      0.054200
     61 H72         0.9440   -1.5970    0.7720 hc        1 901      0.054200
     62 H9          2.1680    0.4780    1.3890 h1        1 901      0.100700
     63 HN1         0.9910    2.0910    2.2720 hn        1 901      0.378500
     64 H231       -2.3530    3.3950    1.9810 hc        1 901      0.073700
     65 H232       -1.0440    3.0430    3.2180 hc        1 901      0.073700
     66 H233       -0.7260    4.2070    1.8630 hc        1 901      0.073700
     67 HN2        -0.4950    0.9200   -1.1760 hn        1 901      0.346500
     68 H121        1.6500    0.4410   -3.1850 h1        1 901      0.043200
     69 H122        0.7590    2.0270   -3.1560 h1        1 901      0.043200
     70 H131       -1.4270    0.7870   -3.5450 hc        1 901      0.043200
     71 H132       -0.5090   -0.7650   -3.6540 hc        1 901      0.043200
     72 H151        0.8760    0.1910   -5.5370 hc        1 901      0.053200
     73 H152       -0.0390    1.7400   -5.4300 hc        1 901      0.053200
     74 H141       -2.1880    0.4800   -5.9040 hc        1 901      0.056200
     75 H142       -1.2250   -1.0440   -6.0770 hc        1 901      0.056200
     76 HN3        -2.1310   -1.0330   -8.3520 hn        1 901      0.328500
     77 H17        -1.5060    1.1440  -10.0980 h1        1 901      0.056700
     78 H181       -0.4820   -0.2870  -11.8820 hc        1 901      0.059700
     79 H182       -0.1730   -1.6040  -10.6740 hc        1 901      0.059700
     80 H341        1.2590   -0.0770   -9.3160 h1        1 901      0.068700
     81 H342        0.8700    1.3030  -10.4020 h1        1 901      0.068700
     82 H351        4.6020    0.1190  -11.2620 h1        1 901      0.050700
     83 H352        3.6370    1.5120  -10.6120 h1        1 901      0.050700
     84 H353        3.8240    0.0140   -9.6260 h1        1 901      0.050700
@<TRIPOS>BOND
     1    1    2 1   
     2    2    3 1   
     3    2    4 1   
     4    4    5 2   
     5    4    6 1   
     6    6    7 1   
     7    6   16 1   
     8    7    8 ar  
     9    7   12 ar  
    10    8    9 ar  
    11    8   48 1   
    12    9   10 ar  
    13    9   49 1   
    14   10   11 ar  
    15   10   50 1   
    16   11   12 ar  
    17   11   51 1   
    18   12   13 1   
    19   13   14 1   
    20   13   15 1   
    21   16   17 ar  
    22   16   21 ar  
    23   17   18 ar  
    24   17   52 1   
    25   18   19 ar  
    26   18   53 1   
    27   19   20 ar  
    28   19   24 1   
    29   20   21 ar  
    30   20   54 1   
    31   21   22 1   
    32   22   23 1   
    33   22   55 1   
    34   22   56 1   
    35   23   57 1   
    36   23   58 1   
    37   23   59 1   
    38   24   25 1   
    39   24   60 1   
    40   24   61 1   
    41   25   26 1   
    42   25   30 1   
    43   25   62 1   
    44   26   27 1   
    45   26   63 1   
    46   27   28 2   
    47   27   29 1   
    48   29   64 1   
    49   29   65 1   
    50   29   66 1   
    51   30   31 2   
    52   30   32 1   
    53   32   33 1   
    54   32   67 1   
    55   33   34 1   
    56   33   68 1   
    57   33   69 1   
    58   34   35 1   
    59   34   70 1   
    60   34   71 1   
    61   35   36 1   
    62   35   72 1   
    63   35   73 1   
    64   36   37 1   
    65   36   74 1   
    66   36   75 1   
    67   37   38 2   
    68   37   39 1   
    69   39   40 1   
    70   39   76 1   
    71   40   41 1   
    72   40   44 1   
    73   40   77 1   
    74   41   42 1   
    75   41   43 1   
    76   44   45 1   
    77   44   78 1   
    78   44   79 1   
    79   45   46 1   
    80   45   80 1   
    81   45   81 1   
    82   46   47 1   
    83   47   82 1   
    84   47   83 1   
    85   47   84 1   
@<TRIPOS>SUBSTRUCTURE
     1 901         1 TEMP              0 ****  ****    0 ROOT
