@<TRIPOS>MOLECULE
901
   88    89     1     0     0
SMALL
bcc


@<TRIPOS>ATOM
      1 O6          7.0310    1.9980    4.1230 o         1 901     -0.845800
      2 C24         6.0230    1.4140    3.6220 c         1 901      0.909600
      3 O7          5.6980    0.2640    4.0510 o         1 901     -0.845800
      4 C8          5.2990    2.1150    2.4940 c         1 901      0.592100
      5 O5          4.8460    3.2480    2.4660 o         1 901     -0.443000
      6 N4          6.4090   -0.3670   -1.9250 nh        1 901     -0.652000
      7 C26         5.2300    0.4040   -2.0180 ca        1 901      0.180600
      8 C27         4.4310    0.2280   -3.1750 ca        1 901     -0.157000
      9 C28         3.2440    0.9320   -3.3350 ca        1 901     -0.084000
     10 C29         2.8080    1.8180   -2.3500 ca        1 901     -0.140000
     11 C30         3.5830    2.0160   -1.2130 ca        1 901     -0.071000
     12 C25         4.8010    1.3410   -1.0470 ca        1 901     -0.150600
     13 C31         5.6070    1.7470    0.1230 c         1 901      0.682700
     14 O9          5.0860    1.3500    1.3430 os        1 901     -0.514200
     15 O10         6.6580    2.3780    0.1480 o         1 901     -0.490000
     16 C2          6.9030   -0.8590   -0.7240 ca        1 901      0.205600
     17 C3          8.3060   -0.9670   -0.5170 ca        1 901     -0.176000
     18 C4          8.8150   -1.1570    0.7570 ca        1 901     -0.071000
     19 C5          7.9540   -1.1860    1.8690 ca        1 901     -0.191300
     20 C6          6.5800   -1.2700    1.6300 ca        1 901     -0.129000
     21 C1          6.0470   -1.2500    0.3410 ca        1 901     -0.103300
     22 C32         4.5970   -1.5350    0.1520 c3        1 901     -0.048100
     23 C33         4.1510   -2.7800    0.8810 c3        1 901     -0.082100
     24 C7          8.5030   -0.8160    3.1980 c3        1 901     -0.054100
     25 C9          8.2830   -1.7660    4.3800 c3        1 901      0.084500
     26 N1          6.9620   -2.4670    4.4300 n4        1 901     -0.690800
     27 C10         5.8170   -1.9020    5.2810 c         1 901      0.638100
     28 O4          6.1430   -1.3890    6.3390 o         1 901     -0.475100
     29 C23         4.4540   -2.1300    4.7340 c3        1 901     -0.190100
     30 C11         8.6420   -1.1020    5.7250 c         1 901      0.521100
     31 O8          9.2620   -1.7440    6.5680 o         1 901     -0.410100
     32 N2          8.2690    0.2970    6.0130 n4        1 901     -0.659800
     33 C12         9.4480    1.1940    6.2280 c3        1 901      0.077800
     34 C13        10.0430    1.7600    4.9460 c3        1 901     -0.101400
     35 C15        11.1080    2.7850    5.2900 c3        1 901     -0.076400
     36 C14        10.4960    4.1460    5.5820 c3        1 901     -0.162400
     37 C16        11.5080    5.0390    6.2480 c         1 901      0.556100
     38 O1         12.4530    5.5990    5.7030 o         1 901     -0.455100
     39 N3         11.3510    5.2860    7.7150 n4        1 901     -0.686800
     40 C17        11.8500    4.1220    8.5270 c3        1 901     -0.015500
     41 C22        10.7690    2.9790    8.5050 c         1 901      0.909600
     42 O2         11.1910    1.8010    8.4810 o         1 901     -0.795300
     43 O3          9.5620    3.3450    8.4320 o         1 901     -0.795300
     44 C18        12.1230    4.5000    9.9780 c3        1 901     -0.084400
     45 C34        13.2910    5.4320   10.1590 c3        1 901     -0.028300
     46 S1         12.7950    7.0770    9.6950 ss        1 901     -0.325200
     47 C35        14.3150    7.8560    9.2770 c3        1 901     -0.037000
     48 H27         4.7500   -0.4780   -3.9590 ha        1 901      0.150000
     49 H28         2.6430    0.7830   -4.2460 ha        1 901      0.150000
     50 H29         1.8600    2.3630   -2.4730 ha        1 901      0.153000
     51 H30         3.2530    2.7230   -0.4320 ha        1 901      0.159000
     52 H3          8.9990   -0.8480   -1.3640 ha        1 901      0.151000
     53 H4          9.9060   -1.2060    0.9000 ha        1 901      0.137000
     54 H6          5.8360   -1.1960    2.4450 ha        1 901      0.148000
     55 H321        4.3580   -1.6690   -0.9380 hc        1 901      0.074200
     56 H322        4.0060   -0.6460    0.5150 hc        1 901      0.074200
     57 H331        3.0720   -2.9740    0.6660 hc        1 901      0.028367
     58 H332        4.2710   -2.6650    1.9870 hc        1 901      0.028367
     59 H333        4.7420   -3.6680    0.5510 hc        1 901      0.028367
     60 H71         9.6240   -0.7060    3.1230 hc        1 901      0.101700
     61 H72         8.0850    0.2090    3.4160 hc        1 901      0.101700
     62 H9          9.0520   -2.6040    4.2650 hx        1 901      0.125700
     63 HN1         7.1330   -3.4160    4.7870 hn        1 901      0.471300
     64 H231        3.7260   -2.1180    5.5870 hc        1 901      0.127367
     65 H232        4.2040   -1.2640    4.0480 hc        1 901      0.127367
     66 H233        4.3600   -3.0900    4.1720 hc        1 901      0.127367
     67 HN2         7.7280    0.2890    6.8940 hn        1 901      0.503800
     68 H121        9.0710    2.0470    6.8840 hx        1 901      0.153200
     69 H122       10.2290    0.6410    6.8350 hx        1 901      0.153200
     70 H131       10.5150    0.9370    4.3470 hc        1 901      0.074200
     71 H132        9.2440    2.2350    4.3100 hc        1 901      0.074200
     72 H151       11.8190    2.8780    4.4260 hc        1 901      0.077700
     73 H152       11.6950    2.4290    6.1830 hc        1 901      0.077700
     74 H141       10.1840    4.6440    4.6230 hc        1 901      0.114200
     75 H142        9.5780    4.0230    6.2250 hc        1 901      0.114200
     76 HN3        11.8640    6.1550    8.0110 hn        1 901      0.474800
     77 H17        12.7950    3.7450    8.0430 hx        1 901      0.095700
     78 H181       12.3390    3.5300   10.5120 hc        1 901      0.098200
     79 H182       11.1980    4.9320   10.4490 hc        1 901      0.098200
     80 H341       14.1690    5.1070    9.5500 h1        1 901      0.083700
     81 H342       13.6050    5.4360   11.2330 h1        1 901      0.083700
     82 H351       14.0550    8.9010    8.9840 h1        1 901      0.079033
     83 H352       15.0070    7.8870   10.1480 h1        1 901      0.079033
     84 H353       14.8240    7.3500    8.4280 h1        1 901      0.079033
     85 H41         7.0560   -0.2560   -2.6740 hn        1 901      0.448800
     86 H12         6.6220   -2.5490    3.4550 hn        1 901      0.471300
     87 H22         7.6410    0.7040    5.2620 hn        1 901      0.503800
     88 H32        10.3440    5.3790    7.9350 hn        1 901      0.474800
@<TRIPOS>BOND
     1    1    2 1   
     2    2    3 1   
     3    2    4 1   
     4    4    5 2   
     5    4   14 1   
     6    6    7 1   
     7    6   16 1   
     8    6   85 1   
     9    7    8 ar  
    10    7   12 ar  
    11    8    9 ar  
    12    8   48 1   
    13    9   10 ar  
    14    9   49 1   
    15   10   11 ar  
    16   10   50 1   
    17   11   12 ar  
    18   11   51 1   
    19   12   13 1   
    20   13   14 1   
    21   13   15 2   
    22   16   17 ar  
    23   16   21 ar  
    24   17   18 ar  
    25   17   52 1   
    26   18   19 ar  
    27   18   53 1   
    28   19   20 ar  
    29   19   24 1   
    30   20   21 ar  
    31   20   54 1   
    32   21   22 1   
    33   22   23 1   
    34   22   55 1   
    35   22   56 1   
    36   23   57 1   
    37   23   58 1   
    38   23   59 1   
    39   24   25 1   
    40   24   60 1   
    41   24   61 1   
    42   25   26 1   
    43   25   30 1   
    44   25   62 1   
    45   26   27 1   
    46   26   63 1   
    47   26   86 1   
    48   27   28 2   
    49   27   29 1   
    50   29   64 1   
    51   29   65 1   
    52   29   66 1   
    53   30   31 2   
    54   30   32 1   
    55   32   33 1   
    56   32   67 1   
    57   32   87 1   
    58   33   34 1   
    59   33   68 1   
    60   33   69 1   
    61   34   35 1   
    62   34   70 1   
    63   34   71 1   
    64   35   36 1   
    65   35   72 1   
    66   35   73 1   
    67   36   37 1   
    68   36   74 1   
    69   36   75 1   
    70   37   38 2   
    71   37   39 1   
    72   39   40 1   
    73   39   76 1   
    74   39   88 1   
    75   40   41 1   
    76   40   44 1   
    77   40   77 1   
    78   41   42 1   
    79   41   43 1   
    80   44   45 1   
    81   44   78 1   
    82   44   79 1   
    83   45   46 1   
    84   45   80 1   
    85   45   81 1   
    86   46   47 1   
    87   47   82 1   
    88   47   83 1   
    89   47   84 1   
@<TRIPOS>SUBSTRUCTURE
     1 901         1 TEMP              0 ****  ****    0 ROOT
