@<TRIPOS>MOLECULE
901
   84    81     1     0     0
SMALL
bcc


@<TRIPOS>ATOM
      1 O6         -7.2350    2.7730   -3.0390 o         1 901     -0.540000
      2 C24        -6.0590    2.7180   -3.4820 c2        1 901      0.364000
      3 O7         -5.0920    3.0350   -2.7390 o         1 901     -0.540000
      4 C8         -5.7990    2.1850   -4.8870 c2        1 901      0.256000
      5 O5         -6.3020    2.7360   -5.8480 o         1 901     -0.409000
      6 N4         -4.8580    1.1400   -5.0840 n         1 901     -0.260000
      7 C26        -4.4910    0.7220   -6.4630 c2        1 901      0.116000
      8 C27        -4.8580   -0.5370   -6.9300 c1        1 901     -0.160000
      9 C28        -4.5820   -0.8970   -8.2480 c1        1 901     -0.172000
     10 C29        -3.9410   -0.0000   -9.0940 c1        1 901     -0.172000
     11 C30        -3.5750    1.2560   -8.6260 c1        1 901     -0.110000
     12 C25        -3.8500    1.6180   -7.3110 c2        1 901     -0.099000
     13 C31        -3.3740    2.9480   -6.7810 c2        1 901      0.365000
     14 O9         -4.1940    3.8780   -6.5970 o         1 901     -0.583000
     15 O10        -2.1320    3.1580   -6.6240 o         1 901     -0.583000
     16 C2         -4.2520    0.4730   -3.9290 c2        1 901      0.079000
     17 C3         -3.0560    0.9450   -3.4010 c2        1 901     -0.064000
     18 C4         -2.4660    0.2910   -2.3040 c1        1 901     -0.132000
     19 C5         -3.0750   -0.8230   -1.7500 c1        1 901     -0.095000
     20 C6         -4.2830   -1.2990   -2.2840 c1        1 901     -0.134000
     21 C1         -4.8690   -0.6510   -3.3710 c1        1 901     -0.035000
     22 C32        -6.2170   -1.1360   -3.9200 c3        1 901     -0.148000
     23 C33        -7.1730   -1.3860   -2.7700 c3        1 901     -0.196000
     24 C7         -2.4870   -1.4690   -0.4800 c3        1 901     -0.116000
     25 C9         -0.9820   -1.7680   -0.7000 c3        1 901      0.021000
     26 N1         -0.8400   -2.9360   -1.4720 n         1 901     -0.352000
     27 C10         0.4410   -3.2560   -2.0690 c2        1 901      0.313000
     28 O4          1.4680   -2.7820   -1.6020 o         1 901     -0.466000
     29 C23         0.5150   -4.2280   -3.2240 c3        1 901     -0.258000
     30 C11        -0.3090   -1.9640    0.6310 c2        1 901      0.294000
     31 O8         -0.7900   -2.7150    1.4460 o         1 901     -0.414000
     32 N2          0.8670   -1.2160    0.9550 n         1 901     -0.380000
     33 C12         1.5430   -1.4440    2.2100 c3        1 901     -0.022000
     34 C13         2.8540   -0.6180    2.2500 c3        1 901     -0.179000
     35 C15         3.6920   -1.0410    3.4780 c3        1 901     -0.148000
     36 C14         4.9790   -0.2180    3.5290 c3        1 901     -0.179000
     37 C16         5.5920   -0.3090    4.9450 c2        1 901      0.290000
     38 O1          5.3730   -1.2790    5.6400 o         1 901     -0.417000
     39 N3          6.4080    0.7610    5.4430 n         1 901     -0.350000
     40 C17         6.5950    0.9250    6.8620 c3        1 901     -0.051000
     41 C22         5.2610    1.1090    7.5250 c2        1 901      0.328000
     42 O2          4.9040    0.3300    8.4500 o         1 901     -0.574000
     43 O3          4.4720    1.9950    7.1110 o         1 901     -0.574000
     44 C18         7.4560    2.1390    7.1210 c3        1 901     -0.152000
     45 C34         7.7150    2.2740    8.6450 c3        1 901     -0.245000
     46 S1          7.5790    3.9930    9.1220 ss        1 901     -0.044000
     47 C35         7.1080    4.0980   10.8380 c3        1 901     -0.334000
     48 H27        -5.3900   -1.1250   -6.3680 ha        1 901      0.142000
     49 H28        -4.8400   -1.7820   -8.5770 ha        1 901      0.091500
     50 H29        -3.7050   -0.2730  -10.0160 ha        1 901      0.091500
     51 H30        -3.1200    1.8920   -9.2270 ha        1 901      0.121000
     52 H3         -2.6290    1.7230   -3.7880 ha        1 901      0.164000
     53 H4         -1.6250    0.6230   -1.9320 ha        1 901      0.118000
     54 H6         -4.7110   -2.0800   -1.8950 ha        1 901      0.113000
     55 H321       -6.0850   -1.9660   -4.4220 hc        1 901      0.119000
     56 H322       -6.5930   -0.4500   -4.5140 hc        1 901      0.119000
     57 H331       -6.7720   -1.0800   -1.9420 hc        1 901      0.056333
     58 H332       -7.3630   -2.3490   -2.7050 hc        1 901      0.056333
     59 H333       -8.0140   -0.8960   -2.9290 hc        1 901      0.056333
     60 H71        -2.5900   -0.8560    0.2740 hc        1 901      0.097000
     61 H72        -2.9580   -2.3000   -0.2890 hc        1 901      0.097000
     62 H9         -0.5620   -1.0120   -1.1700 h1        1 901      0.104000
     63 HN1        -1.5280   -3.5260   -1.5320 hn        1 901      0.290000
     64 H231        0.6080   -3.7270   -4.0690 hc        1 901      0.125667
     65 H232       -0.2970   -4.7620   -3.2500 hc        1 901      0.125667
     66 H233        1.2850   -4.8120   -3.1070 hc        1 901      0.125667
     67 HN2         1.1350   -0.5420    0.4140 hn        1 901      0.257000
     68 H121        0.9580   -1.1690    2.9520 h1        1 901      0.087000
     69 H122        1.7560   -2.4010    2.2990 h1        1 901      0.087000
     70 H131        3.3680   -0.7830    1.4300 hc        1 901      0.080000
     71 H132        2.6370    0.3390    2.3140 hc        1 901      0.080000
     72 H151        3.9160   -1.9860    3.4070 hc        1 901      0.093000
     73 H152        3.1770   -0.8900    4.2910 hc        1 901      0.093000
     74 H141        4.7770    0.7200    3.3190 hc        1 901      0.094000
     75 H142        5.6150   -0.5690    2.8750 hc        1 901      0.094000
     76 HN3         6.8010    1.3470    4.8590 hn        1 901      0.243000
     77 H17         7.0330    0.1320    7.2270 h1        1 901      0.095000
     78 H181        8.3060    2.0410    6.6540 hc        1 901      0.083000
     79 H182        6.9960    2.9400    6.7970 hc        1 901      0.083000
     80 H341        7.0520    1.7450    9.1370 h1        1 901      0.124500
     81 H342        8.6180    1.9460    8.8540 h1        1 901      0.124500
     82 H351        7.0340    5.0470   11.1020 h1        1 901      0.109000
     83 H352        6.2440    3.6560   10.9680 h1        1 901      0.109000
     84 H353        7.7830    3.6600   11.3880 h1        1 901      0.109000
@<TRIPOS>BOND
     1    1    2 1   
     2    2    3 1   
     3    2    4 1   
     4    4    5 1   
     5    4    6 1   
     6    6    7 1   
     7    6   16 1   
     8    7    8 1   
     9    7   12 1   
    10    8   48 1   
    11    9   10 1   
    12    9   49 1   
    13   10   50 1   
    14   11   12 1   
    15   11   51 1   
    16   12   13 1   
    17   13   14 1   
    18   13   15 1   
    19   16   17 1   
    20   16   21 1   
    21   17   18 1   
    22   17   52 1   
    23   18   53 1   
    24   19   20 1   
    25   19   24 1   
    26   20   54 1   
    27   21   22 1   
    28   22   23 1   
    29   22   55 1   
    30   22   56 1   
    31   23   57 1   
    32   23   58 1   
    33   23   59 1   
    34   24   25 1   
    35   24   60 1   
    36   24   61 1   
    37   25   26 1   
    38   25   30 1   
    39   25   62 1   
    40   26   27 1   
    41   26   63 1   
    42   27   28 1   
    43   27   29 1   
    44   29   64 1   
    45   29   65 1   
    46   29   66 1   
    47   30   31 1   
    48   30   32 1   
    49   32   33 1   
    50   32   67 1   
    51   33   34 1   
    52   33   68 1   
    53   33   69 1   
    54   34   35 1   
    55   34   70 1   
    56   34   71 1   
    57   35   36 1   
    58   35   72 1   
    59   35   73 1   
    60   36   37 1   
    61   36   74 1   
    62   36   75 1   
    63   37   38 1   
    64   37   39 1   
    65   39   40 1   
    66   39   76 1   
    67   40   41 1   
    68   40   44 1   
    69   40   77 1   
    70   41   42 1   
    71   41   43 1   
    72   44   45 1   
    73   44   78 1   
    74   44   79 1   
    75   45   46 1   
    76   45   80 1   
    77   45   81 1   
    78   46   47 1   
    79   47   82 1   
    80   47   83 1   
    81   47   84 1   
@<TRIPOS>SUBSTRUCTURE
     1 901         1 TEMP              0 ****  ****    0 ROOT
