@<TRIPOS>MOLECULE
902
   63    58     1     0     0
SMALL
bcc


@<TRIPOS>ATOM
      1 S1          0.3940   -2.4410   -4.1280 ss        1 902      0.616000
      2 C2         -0.5480   -2.8190   -5.3270 c2        1 902     -0.353000
      3 C3         -1.5880   -3.7100   -4.8180 c1        1 902      0.122000
      4 C4         -1.3340   -3.9330   -3.2410 c1        1 902     -0.206000
      5 C5         -0.1470   -3.1660   -2.8530 c2        1 902     -0.339000
      6 C6         -0.4100   -2.4210   -6.5780 c2        1 902     -0.078000
      7 N7         -1.1000   -1.4320   -7.1750 nc        1 902     -0.051000
      8 N8          0.5030   -2.8550   -7.4320 nc        1 902     -0.051000
      9 C9          0.3670   -3.0280   -1.5280 c1        1 902      0.028000
     10 C10         0.4860   -1.7630   -0.9550 c1        1 902     -0.159000
     11 C11         1.0880   -1.6180    0.2870 c1        1 902      0.047000
     12 C12         1.5760   -2.7500    0.9680 c1        1 902     -0.179000
     13 C13         1.4570   -4.0030    0.4000 c1        1 902     -0.128000
     14 C14         0.8530   -4.1500   -0.8480 c1        1 902     -0.128000
     15 BR19       -2.4080   -4.9640   -2.0820 br        1 902      0.088000
     16 O20        -2.7090   -4.2690   -5.6030 o         1 902     -0.180000
     17 C21        -3.9360   -3.5810   -5.4290 c3        1 902     -0.095000
     18 C22        -5.0460   -4.3270   -6.1800 c2        1 902      0.346000
     19 O25        -6.1710   -4.4590   -5.6600 o         1 902     -0.573500
     20 O26        -4.8390   -4.7530   -7.3320 o         1 902     -0.573500
     21 N28         1.3840   -0.2700    0.8040 n3        1 902     -0.274000
     22 C29         2.3010    0.4640    0.2270 c3        1 902      0.001000
     23 C30         1.7520    1.8850   -0.1900 c3        1 902     -0.184500
     24 C31         1.1360    2.6450    0.9710 c3        1 902     -0.016000
     25 N32         1.5330    2.1610    2.1290 n3        1 902     -0.846000
     26 C33         2.7380    1.7440    2.4110 c3        1 902     -0.016000
     27 C34         3.3560    0.9740    1.2400 c3        1 902     -0.184500
     28 S44         0.4520    2.1190    3.3080 s4        1 902      2.013800
     29 O45         0.9990    1.5440    4.4940 o         1 902     -0.532400
     30 O46        -0.5830    1.2150    3.0170 o         1 902     -0.532400
     31 C47        -0.2020    3.7880    3.6200 c2        1 902     -0.793000
     32 C48        -0.5020    3.9590    5.1540 c2        1 902     -0.059000
     33 C51         0.5530    4.1250    6.0550 c2        1 902     -0.121000
     34 C52         0.2900    4.4360    7.3900 c1        1 902     -0.125000
     35 C53        -1.0290    4.5820    7.8300 c1        1 902     -0.128000
     36 C54        -2.0880    4.4170    6.9340 c1        1 902     -0.128000
     37 C55        -1.8280    4.1050    5.5940 c1        1 902     -0.110000
     38 N61         0.3890   -2.1430   -8.5610 nc        1 902     -0.081000
     39 N62        -0.6010   -1.2660   -8.3990 nc        1 902     -0.081000
     40 H10         0.1510   -0.9870   -1.4230 ha        1 902      0.144000
     41 H12         2.0000   -2.6490    1.8440 ha        1 902      0.129000
     42 H13         1.7880   -4.7680    0.8620 ha        1 902      0.131750
     43 H14         0.7690   -5.0390   -1.2490 ha        1 902      0.131750
     44 H211       -4.1490   -3.5430   -4.5060 h1        1 902      0.072000
     45 H212       -3.8540   -2.6450   -5.7930 h1        1 902      0.072000
     46 HN28        0.9440    0.0460    1.5680 hn        1 902      0.183000
     47 H29         2.7190    0.0060   -0.5240 h1        1 902      0.118000
     48 H301        1.0610    1.7670   -0.8950 hc        1 902      0.103250
     49 H302        2.5130    2.4290   -0.5690 hc        1 902      0.103250
     50 H311        0.1540    2.5800    0.9150 h1        1 902      0.087500
     51 H312        1.3950    3.5780    0.9120 h1        1 902      0.087500
     52 H331        3.2930    2.5040    2.6160 h1        1 902      0.087500
     53 H332        2.6970    1.1390    3.2170 h1        1 902      0.087500
     54 H341        3.8320    0.2290    1.5840 hc        1 902      0.103250
     55 H342        3.9570    1.5370    0.7920 hc        1 902      0.103250
     56 H471        0.4720    4.4690    3.3350 ha        1 902      0.148000
     57 H472       -1.0370    3.9150    3.1050 ha        1 902      0.148000
     58 H51         1.4560    4.0260    5.7590 ha        1 902      0.156000
     59 H52         1.0440    4.5560    8.0320 ha        1 902      0.134000
     60 H53        -1.2100    4.8000    8.7660 ha        1 902      0.131750
     61 H54        -3.0430    4.5970    7.2370 ha        1 902      0.131750
     62 H55        -2.6030    4.0760    4.9130 ha        1 902      0.131000
     63 HN62       -0.8830   -0.6660   -9.0100 DU        1 902      0.311000
@<TRIPOS>BOND
     1    1    2 1   
     2    1    5 1   
     3    2    3 1   
     4    2    6 1   
     5    3    4 1   
     6    4    5 1   
     7    5    9 1   
     8    6    7 1   
     9    6    8 1   
    10    7   39 1   
    11    8   38 1   
    12    9   10 1   
    13   10   40 1   
    14   11   12 1   
    15   11   21 1   
    16   12   41 1   
    17   13   14 1   
    18   13   42 1   
    19   14   43 1   
    20   16   17 1   
    21   17   18 1   
    22   17   44 1   
    23   17   45 1   
    24   18   19 1   
    25   18   20 1   
    26   21   22 1   
    27   21   46 1   
    28   22   23 1   
    29   22   27 1   
    30   22   47 1   
    31   23   24 1   
    32   23   48 1   
    33   23   49 1   
    34   24   25 1   
    35   24   50 1   
    36   24   51 1   
    37   25   26 1   
    38   25   28 1   
    39   26   27 1   
    40   26   52 1   
    41   26   53 1   
    42   27   54 1   
    43   27   55 1   
    44   28   29 1   
    45   28   30 1   
    46   31   32 1   
    47   31   56 1   
    48   31   57 1   
    49   32   33 1   
    50   32   37 1   
    51   33   34 1   
    52   33   58 1   
    53   34   59 1   
    54   35   36 1   
    55   35   60 1   
    56   36   61 1   
    57   37   62 1   
    58   38   39 1   
@<TRIPOS>SUBSTRUCTURE
     1 902         1 TEMP              0 ****  ****    0 ROOT
