@<TRIPOS>MOLECULE
902
   63    67     1     0     0
SMALL
bcc


@<TRIPOS>ATOM
      1 S1          0.2940   -0.6040    0.1030 ss        1 902      0.081200
      2 C2          1.9160   -0.2160    0.1190 cc        1 902     -0.192600
      3 C3          2.2760    0.4750    1.2740 cd        1 902      0.172100
      4 C4          1.1340    0.6690    2.1370 cd        1 902     -0.065900
      5 C5         -0.0110    0.1070    1.5880 cc        1 902     -0.074100
      6 C6          2.8520   -0.5740   -0.9120 cc        1 902      0.557500
      7 N7          3.3430    0.2370   -1.8870 nd        1 902     -0.448800
      8 N8          3.5630   -1.8390   -0.9600 nc        1 902     -0.349000
      9 C9         -1.3420    0.1000    2.1620 ca        1 902      0.028000
     10 C10        -2.0110    1.3090    2.3840 ca        1 902     -0.152000
     11 C11        -3.3100    1.3220    2.9340 ca        1 902      0.124600
     12 C12        -3.9130    0.0850    3.2660 ca        1 902     -0.188000
     13 C13        -3.2400   -1.1090    3.0370 ca        1 902     -0.105000
     14 C14        -1.9600   -1.1140    2.4890 ca        1 902     -0.147000
     15 Br19        1.2060    1.5280    3.7740 br        1 902     -0.056100
     16 O20         3.5410    0.8110    1.6510 os        1 902     -0.295900
     17 C21         4.1410    1.9040    0.9170 c3        1 902      0.005400
     18 C22         5.5960    1.5310    0.5290 c         1 902      0.925600
     19 O25         5.7800    0.8600   -0.5270 o         1 902     -0.838300
     20 O26         6.5160    1.9890    1.2540 o         1 902     -0.838300
     21 N28        -4.0600    2.5090    3.0780 nu        1 902     -0.713600
     22 C29        -3.3590    3.7720    3.2370 c3        1 902      0.190500
     23 C30        -4.3410    4.9530    3.2840 c3        1 902     -0.108400
     24 C31        -5.1110    5.0080    4.6010 c3        1 902      0.218300
     25 N32        -4.2840    4.9370    5.7790 n3        1 902     -0.824500
     26 C33        -3.2460    3.9350    5.7650 c3        1 902      0.218300
     27 C34        -2.4450    3.8730    4.4680 c3        1 902     -0.108400
     28 S44        -4.5110    5.9180    7.0530 s6        1 902      1.439900
     29 O45        -5.2570    7.0540    6.6660 o         1 902     -0.644800
     30 O46        -3.2960    6.1440    7.7280 o         1 902     -0.644800
     31 C47        -5.5330    4.9330    8.0650 c3        1 902     -0.245300
     32 C48        -5.9070    5.5900    9.3390 ca        1 902     -0.065300
     33 C51        -6.7500    6.7110    9.3320 ca        1 902     -0.115000
     34 C52        -7.1260    7.3110   10.5320 ca        1 902     -0.128500
     35 C53        -6.6690    6.7980   11.7470 ca        1 902     -0.126000
     36 C54        -5.8300    5.6850   11.7580 ca        1 902     -0.128500
     37 C55        -5.4510    5.0810   10.5610 ca        1 902     -0.115000
     38 N61         4.4320   -1.7280   -1.8630 nd        1 902     -0.159800
     39 N62         4.3020   -0.5090   -2.4710 na        1 902      0.119900
     40 H10        -1.4990    2.2470    2.1210 ha        1 902      0.147000
     41 H12        -4.9230    0.0580    3.7000 ha        1 902      0.123000
     42 H13        -3.7240   -2.0620    3.2970 ha        1 902      0.126000
     43 H14        -1.4290   -2.0630    2.3230 ha        1 902      0.143000
     44 H211        4.1410    2.7700    1.6290 h1        1 902      0.034700
     45 H212        3.5510    2.1540    0.0040 h1        1 902      0.034700
     46 HN28       -4.7900    2.4040    3.7560 hn        1 902      0.377800
     47 H29        -2.7150    3.9040    2.3150 h1        1 902      0.076700
     48 H301       -3.7480    5.8940    3.1480 hc        1 902      0.068450
     49 H302       -5.0820    4.8880    2.4460 hc        1 902      0.068450
     50 H311       -5.8530    4.1550    4.6250 h1        1 902      0.050950
     51 H312       -5.6990    5.9730    4.6290 h1        1 902      0.050950
     52 H331       -2.5310    4.1460    6.6150 h1        1 902      0.050950
     53 H332       -3.7160    2.9240    5.9470 h1        1 902      0.050950
     54 H341       -1.8120    4.7920    4.3620 hc        1 902      0.068450
     55 H342       -1.7570    2.9880    4.5150 hc        1 902      0.068450
     56 H471       -5.0320    3.9540    8.2910 h1        1 902      0.108200
     57 H472       -6.4810    4.6700    7.5220 h1        1 902      0.108200
     58 H51        -7.0930    7.1290    8.3720 ha        1 902      0.144000
     59 H52        -7.7820    8.1940   10.5180 ha        1 902      0.132000
     60 H53        -6.9670    7.2740   12.6920 ha        1 902      0.129000
     61 H54        -5.4620    5.2820   12.7130 ha        1 902      0.132000
     62 H55        -4.7850    4.2050   10.5770 ha        1 902      0.144000
     63 HN62        5.1500   -0.0120   -2.7260 hn        1 902      0.359700
@<TRIPOS>BOND
     1    1    2 1   
     2    1    5 1   
     3    2    3 2   
     4    2    6 1   
     5    3    4 1   
     6    3   16 1   
     7    4    5 2   
     8    4   15 1   
     9    5    9 1   
    10    6    7 2   
    11    6    8 1   
    12    7   39 1   
    13    8   38 2   
    14    9   10 ar  
    15    9   14 ar  
    16   10   11 ar  
    17   10   40 1   
    18   11   12 ar  
    19   11   21 1   
    20   12   13 ar  
    21   12   41 1   
    22   13   14 ar  
    23   13   42 1   
    24   14   43 1   
    25   16   17 1   
    26   17   18 1   
    27   17   44 1   
    28   17   45 1   
    29   18   19 1   
    30   18   20 1   
    31   21   22 1   
    32   21   46 1   
    33   22   23 1   
    34   22   27 1   
    35   22   47 1   
    36   23   24 1   
    37   23   48 1   
    38   23   49 1   
    39   24   25 1   
    40   24   50 1   
    41   24   51 1   
    42   25   26 1   
    43   25   28 1   
    44   26   27 1   
    45   26   52 1   
    46   26   53 1   
    47   27   54 1   
    48   27   55 1   
    49   28   29 2   
    50   28   30 2   
    51   28   31 1   
    52   31   32 1   
    53   31   56 1   
    54   31   57 1   
    55   32   33 ar  
    56   32   37 ar  
    57   33   34 ar  
    58   33   58 1   
    59   34   35 ar  
    60   34   59 1   
    61   35   36 ar  
    62   35   60 1   
    63   36   37 ar  
    64   36   61 1   
    65   37   62 1   
    66   38   39 1   
    67   39   63 1   
@<TRIPOS>SUBSTRUCTURE
     1 902         1 TEMP              0 ****  ****    0 ROOT
