@<TRIPOS>MOLECULE
902
   63    67     1     0     0
SMALL
bcc


@<TRIPOS>ATOM
      1 S1          0.2850   -0.6040    0.0980 ss        1 902      0.081200
      2 C2          1.9080   -0.2200    0.1140 cc        1 902     -0.192600
      3 C3          2.2700    0.4680    1.2700 cd        1 902      0.172100
      4 C4          1.1290    0.6630    2.1340 cd        1 902     -0.065900
      5 C5         -0.0170    0.1050    1.5840 cc        1 902     -0.074100
      6 C6          2.8430   -0.5780   -0.9180 cc        1 902      0.557500
      7 N7          3.3360    0.2340   -1.8910 nd        1 902     -0.448800
      8 N8          3.5510   -1.8440   -0.9690 nc        1 902     -0.349000
      9 C9         -1.3480    0.1010    2.1590 ca        1 902      0.028000
     10 C10        -2.0140    1.3110    2.3830 ca        1 902     -0.152000
     11 C11        -3.3130    1.3270    2.9330 ca        1 902      0.124600
     12 C12        -3.9190    0.0900    3.2630 ca        1 902     -0.188000
     13 C13        -3.2490   -1.1050    3.0310 ca        1 902     -0.105000
     14 C14        -1.9690   -1.1120    2.4830 ca        1 902     -0.147000
     15 BR19        1.2040    1.5190    3.7720 br        1 902     -0.056100
     16 O20         3.5370    0.8000    1.6480 os        1 902     -0.295900
     17 C21         4.1380    1.8940    0.9150 c3        1 902      0.005400
     18 C22         5.5930    1.5190    0.5260 c         1 902      0.925600
     19 O25         5.7740    0.8490   -0.5320 o         1 902     -0.838300
     20 O26         6.5140    1.9730    1.2520 o         1 902     -0.838300
     21 N28        -4.0600    2.5150    3.0780 nh        1 902     -0.713600
     22 C29        -3.3560    3.7760    3.2390 c3        1 902      0.190500
     23 C30        -4.3360    4.9590    3.2880 c3        1 902     -0.108400
     24 C31        -5.1060    5.0140    4.6050 c3        1 902      0.218300
     25 N32        -4.2790    4.9390    5.7830 n3        1 902     -0.824500
     26 C33        -3.2420    3.9360    5.7670 c3        1 902      0.218300
     27 C34        -2.4420    3.8740    4.4690 c3        1 902     -0.108400
     28 S44        -4.5030    5.9200    7.0580 s6        1 902      1.439900
     29 O45        -5.2450    7.0590    6.6730 o         1 902     -0.644800
     30 O46        -3.2880    6.1400    7.7340 o         1 902     -0.644800
     31 C47        -5.5290    4.9370    8.0680 c3        1 902     -0.245300
     32 C48        -5.9020    5.5930    9.3430 ca        1 902     -0.065300
     33 C51        -6.7410    6.7160    9.3370 ca        1 902     -0.115000
     34 C52        -7.1160    7.3160   10.5380 ca        1 902     -0.128500
     35 C53        -6.6600    6.8000   11.7520 ca        1 902     -0.126000
     36 C54        -5.8240    5.6850   11.7620 ca        1 902     -0.128500
     37 C55        -5.4470    5.0810   10.5630 ca        1 902     -0.115000
     38 N61         4.4200   -1.7340   -1.8720 nd        1 902     -0.159800
     39 N62         4.2930   -0.5130   -2.4770 na        1 902      0.119900
     40 H10        -1.5000    2.2480    2.1210 ha        1 902      0.147000
     41 H12        -4.9300    0.0650    3.6970 ha        1 902      0.123000
     42 H13        -3.7360   -2.0570    3.2900 ha        1 902      0.126000
     43 H14        -1.4410   -2.0620    2.3160 ha        1 902      0.143000
     44 H211        3.5490    2.1470    0.0030 h1        1 902      0.034700
     45 H212        4.1400    2.7570    1.6300 h1        1 902      0.034700
     46 HN28       -4.7910    2.4110    3.7560 hn        1 902      0.377800
     47 H29        -2.7130    3.9070    2.3170 h1        1 902      0.076700
     48 H301       -5.0770    4.8960    2.4490 hc        1 902      0.068450
     49 H302       -3.7410    5.8990    3.1530 hc        1 902      0.068450
     50 H311       -5.6910    5.9800    4.6350 h1        1 902      0.050950
     51 H312       -5.8490    4.1630    4.6280 h1        1 902      0.050950
     52 H331       -3.7150    2.9250    5.9480 h1        1 902      0.050950
     53 H332       -2.5270    4.1440    6.6170 h1        1 902      0.050950
     54 H341       -1.8080    4.7910    4.3650 hc        1 902      0.068450
     55 H342       -1.7560    2.9870    4.5160 hc        1 902      0.068450
     56 H471       -5.0320    3.9550    8.2930 h1        1 902      0.108200
     57 H472       -6.4780    4.6780    7.5230 h1        1 902      0.108200
     58 H51        -7.0840    7.1360    8.3770 ha        1 902      0.144000
     59 H52        -7.7690    8.2000   10.5250 ha        1 902      0.132000
     60 H53        -6.9570    7.2760   12.6980 ha        1 902      0.129000
     61 H54        -5.4580    5.2790   12.7160 ha        1 902      0.132000
     62 H55        -4.7830    4.2030   10.5790 ha        1 902      0.144000
     63 HN62        5.1420   -0.0180   -2.7310 hn        1 902      0.359700
@<TRIPOS>BOND
     1    1    2 1   
     2    1    5 1   
     3    2    3 2   
     4    2    6 1   
     5    3    4 1   
     6    3   16 1   
     7    4    5 2   
     8    4   15 1   
     9    5    9 1   
    10    6    7 2   
    11    6    8 1   
    12    7   39 1   
    13    8   38 2   
    14    9   10 ar  
    15    9   14 ar  
    16   10   11 ar  
    17   10   40 1   
    18   11   12 ar  
    19   11   21 1   
    20   12   13 ar  
    21   12   41 1   
    22   13   14 ar  
    23   13   42 1   
    24   14   43 1   
    25   16   17 1   
    26   17   18 1   
    27   17   44 1   
    28   17   45 1   
    29   18   19 1   
    30   18   20 1   
    31   21   22 1   
    32   21   46 1   
    33   22   23 1   
    34   22   27 1   
    35   22   47 1   
    36   23   24 1   
    37   23   48 1   
    38   23   49 1   
    39   24   25 1   
    40   24   50 1   
    41   24   51 1   
    42   25   26 1   
    43   25   28 1   
    44   26   27 1   
    45   26   52 1   
    46   26   53 1   
    47   27   54 1   
    48   27   55 1   
    49   28   29 2   
    50   28   30 2   
    51   28   31 1   
    52   31   32 1   
    53   31   56 1   
    54   31   57 1   
    55   32   33 ar  
    56   32   37 ar  
    57   33   34 ar  
    58   33   58 1   
    59   34   35 ar  
    60   34   59 1   
    61   35   36 ar  
    62   35   60 1   
    63   36   37 ar  
    64   36   61 1   
    65   37   62 1   
    66   38   39 1   
    67   39   63 1   
@<TRIPOS>SUBSTRUCTURE
     1 902         1 TEMP              0 ****  ****    0 ROOT
