@<TRIPOS>MOLECULE
902
   63    67     1     0     0
SMALL
bcc


@<TRIPOS>ATOM
      1 S1          1.0020    5.9590   -0.7920 ss        1 902      0.081200
      2 C2          0.4180    6.0780   -2.3490 cc        1 902     -0.192600
      3 C3         -0.3670    4.9810   -2.6980 cd        1 902      0.172100
      4 C4         -0.4510    4.0380   -1.6060 cd        1 902     -0.065900
      5 C5          0.2660    4.4830   -0.5030 cc        1 902     -0.074100
      6 C6          0.6580    7.1890   -3.2290 cc        1 902      0.557500
      7 N7          1.5430    7.2380   -4.2610 nd        1 902     -0.448800
      8 N8         -0.1530    8.3930   -3.2580 nc        1 902     -0.349000
      9 C9          0.4110    3.8100    0.7720 ca        1 902      0.028000
     10 C10         1.0410    2.5620    0.8330 ca        1 902     -0.152000
     11 C11         1.2010    1.8950    2.0660 ca        1 902      0.124600
     12 C12         0.6980    2.5150    3.2360 ca        1 902     -0.188000
     13 C13         0.0780    3.7560    3.1630 ca        1 902     -0.105000
     14 C14        -0.0710    4.4100    1.9430 ca        1 902     -0.147000
     15 BR19       -1.4150    2.4610   -1.6710 br        1 902     -0.056100
     16 O20        -1.0970    4.8410   -3.8400 os        1 902     -0.295900
     17 C21        -0.3330    4.5630   -5.0370 c3        1 902      0.005400
     18 C22        -0.8410    5.4600   -6.1970 c         1 902      0.925600
     19 O25        -0.3710    6.6300   -6.2960 o         1 902     -0.838300
     20 O26        -1.6370    4.9360   -7.0170 o         1 902     -0.838300
     21 N28         1.9200    0.6870    2.1870 nh        1 902     -0.713600
     22 C29         2.0000   -0.2040    1.0420 c3        1 902      0.190500
     23 C30         2.8990   -1.4150    1.3400 c3        1 902     -0.107900
     24 C31         2.2320   -2.4050    2.2920 c3        1 902      0.218300
     25 N32         0.8980   -2.7940    1.9110 n3        1 902     -0.824500
     26 C33         0.0230   -1.7270    1.4890 c3        1 902      0.218300
     27 C34         0.6570   -0.7350    0.5190 c3        1 902     -0.107900
     28 S44         0.4030   -4.3400    1.9600 s6        1 902      1.439900
     29 O45         1.5180   -5.2080    1.9690 o         1 902     -0.644800
     30 O46        -0.5890   -4.5740    0.9890 o         1 902     -0.644800
     31 C47        -0.3360   -4.4110    3.5380 c3        1 902     -0.245300
     32 C48        -0.8980   -5.7430    3.8640 ca        1 902     -0.065300
     33 C51        -0.0450   -6.8390    4.0550 ca        1 902     -0.115000
     34 C52        -0.5710   -8.0840    4.3920 ca        1 902     -0.128500
     35 C53        -1.9480   -8.2470    4.5430 ca        1 902     -0.126000
     36 C54        -2.8000   -7.1600    4.3520 ca        1 902     -0.128500
     37 C55        -2.2790   -5.9110    4.0160 ca        1 902     -0.115000
     38 N61         0.2120    9.0480   -4.2680 nd        1 902     -0.159800
     39 N62         1.2580    8.4050   -4.8720 na        1 902      0.119900
     40 H10         1.4080    2.1130   -0.1030 ha        1 902      0.147000
     41 H12         0.8020    2.0220    4.2140 ha        1 902      0.123000
     42 H13        -0.3040    4.2260    4.0820 ha        1 902      0.126000
     43 H14        -0.5740    5.3870    1.8920 ha        1 902      0.143000
     44 H211        0.7580    4.7270   -4.8720 h1        1 902      0.034700
     45 H212       -0.5340    3.4840   -5.2660 h1        1 902      0.034700
     46 HN28        1.6730    0.1930    3.0230 hn        1 902      0.377800
     47 H29         2.4900    0.3840    0.2080 h1        1 902      0.076700
     48 H301        3.8690   -1.0870    1.7950 hc        1 902      0.068450
     49 H302        3.1270   -1.9170    0.3640 hc        1 902      0.068450
     50 H311        2.8770   -3.3310    2.3490 h1        1 902      0.050950
     51 H312        2.1960   -1.9480    3.3260 h1        1 902      0.050950
     52 H331       -0.3270   -1.1640    2.4040 h1        1 902      0.050950
     53 H332       -0.8840   -2.1810    0.9910 h1        1 902      0.050950
     54 H341        0.8340   -1.2260   -0.4720 hc        1 902      0.068450
     55 H342       -0.0600    0.1130    0.3570 hc        1 902      0.068450
     56 H471        0.4150   -4.1500    4.3320 h1        1 902      0.108200
     57 H472       -1.1480   -3.6390    3.6240 h1        1 902      0.108200
     58 H51         1.0410   -6.7150    3.9150 ha        1 902      0.144000
     59 H52         0.1040   -8.9410    4.5340 ha        1 902      0.132500
     60 H53        -2.3610   -9.2310    4.8080 ha        1 902      0.129000
     61 H54        -3.8870   -7.2850    4.4640 ha        1 902      0.132500
     62 H55        -2.9580   -5.0590    3.8620 ha        1 902      0.144000
     63 HN62        1.2830    8.3860   -5.8870 hn        1 902      0.359700
@<TRIPOS>BOND
     1    1    2 1   
     2    1    5 1   
     3    2    3 2   
     4    2    6 1   
     5    3    4 1   
     6    3   16 1   
     7    4    5 2   
     8    4   15 1   
     9    5    9 1   
    10    6    7 2   
    11    6    8 1   
    12    7   39 1   
    13    8   38 2   
    14    9   10 ar  
    15    9   14 ar  
    16   10   11 ar  
    17   10   40 1   
    18   11   12 ar  
    19   11   21 1   
    20   12   13 ar  
    21   12   41 1   
    22   13   14 ar  
    23   13   42 1   
    24   14   43 1   
    25   16   17 1   
    26   17   18 1   
    27   17   44 1   
    28   17   45 1   
    29   18   19 1   
    30   18   20 1   
    31   21   22 1   
    32   21   46 1   
    33   22   23 1   
    34   22   27 1   
    35   22   47 1   
    36   23   24 1   
    37   23   48 1   
    38   23   49 1   
    39   24   25 1   
    40   24   50 1   
    41   24   51 1   
    42   25   26 1   
    43   25   28 1   
    44   26   27 1   
    45   26   52 1   
    46   26   53 1   
    47   27   54 1   
    48   27   55 1   
    49   28   29 2   
    50   28   30 2   
    51   28   31 1   
    52   31   32 1   
    53   31   56 1   
    54   31   57 1   
    55   32   33 ar  
    56   32   37 ar  
    57   33   34 ar  
    58   33   58 1   
    59   34   35 ar  
    60   34   59 1   
    61   35   36 ar  
    62   35   60 1   
    63   36   37 ar  
    64   36   61 1   
    65   37   62 1   
    66   38   39 1   
    67   39   63 1   
@<TRIPOS>SUBSTRUCTURE
     1 902         1 TEMP              0 ****  ****    0 ROOT
