@<TRIPOS>MOLECULE
902
   64    68     1     0     0
SMALL
bcc


@<TRIPOS>ATOM
      1 S1          0.3300   -0.8960   -0.2630 ss        1 902      0.093200
      2 C2          1.6920   -0.2350   -0.9740 cc        1 902     -0.199600
      3 C3          2.0630    0.9700   -0.3600 cd        1 902      0.289100
      4 C4          1.0850    1.3620    0.6310 cd        1 902     -0.027900
      5 C5          0.1190    0.3730    0.8020 cc        1 902     -0.121100
      6 C6          2.3860   -0.8910   -2.0400 cc        1 902      0.606500
      7 N7          2.5200   -2.2450   -2.2210 nd        1 902     -0.505800
      8 N8          3.0740   -0.2180   -3.1150 nc        1 902     -0.334000
      9 C9         -0.8930    0.3420    1.8270 ca        1 902      0.075000
     10 C10        -1.6870    1.4690    2.0810 ca        1 902     -0.108000
     11 C11        -2.5850    1.4530    3.1590 ca        1 902     -0.064400
     12 C12        -2.7500    0.3070    3.9540 ca        1 902     -0.131000
     13 C13        -1.9900   -0.8230    3.6590 ca        1 902     -0.104000
     14 C14        -1.0620   -0.8080    2.6200 ca        1 902     -0.071000
     15 BR19        1.1430    2.9590    1.5720 br        1 902     -0.071100
     16 O20         3.1040    1.7090   -0.8130 os        1 902     -0.312900
     17 C21         4.0830    2.1610    0.1440 c3        1 902      0.000400
     18 C22         4.2410    1.2770    1.3950 c         1 902      0.895600
     19 O25         5.0900    1.6450    2.2450 o         1 902     -0.812300
     20 O26         3.5010    0.2560    1.4920 o         1 902     -0.812300
     21 N28        -3.3370    2.6720    3.4650 n4        1 902     -0.629400
     22 C29        -2.4770    3.7200    4.1440 c3        1 902      0.132500
     23 C30        -2.1630    3.3410    5.5900 c3        1 902     -0.123900
     24 C31        -3.3820    3.4720    6.5030 c3        1 902      0.210300
     25 N32        -4.0900    4.7170    6.3800 n3        1 902     -0.814500
     26 C33        -4.3630    5.1540    5.0410 c3        1 902      0.210300
     27 C34        -3.1570    5.0870    4.1020 c3        1 902     -0.123900
     28 S44        -4.4160    5.6690    7.6940 s6        1 902      1.434900
     29 O45        -3.4820    5.3730    8.7030 o         1 902     -0.629300
     30 O46        -4.5380    6.9970    7.2530 o         1 902     -0.629300
     31 C47        -5.9630    5.0630    8.1690 c3        1 902     -0.243300
     32 C48        -6.4980    5.7680    9.3610 ca        1 902     -0.094300
     33 C51        -5.9050    5.5730   10.6160 ca        1 902     -0.111000
     34 C52        -6.4240    6.2120   11.7400 ca        1 902     -0.124000
     35 C53        -7.5370    7.0450   11.6220 ca        1 902     -0.111000
     36 C54        -8.1300    7.2400   10.3750 ca        1 902     -0.124000
     37 C55        -7.6160    6.6030    9.2470 ca        1 902     -0.111000
     38 N61         3.5760   -1.1150   -3.8540 nd        1 902     -0.161800
     39 N62         3.2400   -2.3220   -3.3470 na        1 902      0.089900
     40 H10        -1.5780    2.3570    1.4350 ha        1 902      0.164000
     41 H12        -3.4540    0.2890    4.8000 ha        1 902      0.138000
     42 H13        -2.1100   -1.7300    4.2730 ha        1 902      0.160000
     43 H14        -0.4280   -1.6930    2.4280 ha        1 902      0.182000
     44 H211        3.8170    3.2090    0.4290 h1        1 902      0.053200
     45 H212        5.0300    2.1500   -0.4570 h1        1 902      0.053200
     46 HN28       -4.1280    2.4440    4.0770 hn        1 902      0.444800
     47 H29        -1.5100    3.7530    3.5510 hx        1 902      0.129700
     48 H301       -1.3430    4.0250    5.9400 hc        1 902      0.095450
     49 H302       -1.7710    2.2910    5.6530 hc        1 902      0.095450
     50 H311       -3.0270    3.3550    7.5720 h1        1 902      0.060700
     51 H312       -4.0930    2.6190    6.2870 h1        1 902      0.060700
     52 H331       -4.7270    6.2260    5.0680 h1        1 902      0.060700
     53 H332       -5.1950    4.5230    4.6060 h1        1 902      0.060700
     54 H341       -3.4860    5.3570    3.0640 hc        1 902      0.095450
     55 H342       -2.3870    5.8460    4.4120 hc        1 902      0.095450
     56 H471       -6.7090    5.1490    7.3330 h1        1 902      0.112700
     57 H472       -5.9100    3.9670    8.4130 h1        1 902      0.112700
     58 H51        -5.0160    4.9280   10.7090 ha        1 902      0.141500
     59 H52        -5.9500    6.0600   12.7210 ha        1 902      0.140500
     60 H53        -7.9440    7.5500   12.5110 ha        1 902      0.140000
     61 H54        -9.0060    7.8990   10.2780 ha        1 902      0.140500
     62 H55        -8.0880    6.7620    8.2660 ha        1 902      0.141500
     63 HN62        3.5920   -3.1910   -3.6930 hn        1 902      0.344700
     64 H282       -3.6990    3.0650    2.5890 hn        1 902      0.444800
@<TRIPOS>BOND
     1    1    2 1   
     2    1    5 1   
     3    2    3 2   
     4    2    6 1   
     5    3    4 1   
     6    3   16 1   
     7    4    5 2   
     8    4   15 1   
     9    5    9 1   
    10    6    7 2   
    11    6    8 1   
    12    7   39 1   
    13    8   38 2   
    14    9   10 ar  
    15    9   14 ar  
    16   10   11 ar  
    17   10   40 1   
    18   11   12 ar  
    19   11   21 1   
    20   12   13 ar  
    21   12   41 1   
    22   13   14 ar  
    23   13   42 1   
    24   14   43 1   
    25   16   17 1   
    26   17   18 1   
    27   17   44 1   
    28   17   45 1   
    29   18   19 1   
    30   18   20 1   
    31   21   22 1   
    32   21   46 1   
    33   21   64 1   
    34   22   23 1   
    35   22   27 1   
    36   22   47 1   
    37   23   24 1   
    38   23   48 1   
    39   23   49 1   
    40   24   25 1   
    41   24   50 1   
    42   24   51 1   
    43   25   26 1   
    44   25   28 1   
    45   26   27 1   
    46   26   52 1   
    47   26   53 1   
    48   27   54 1   
    49   27   55 1   
    50   28   29 2   
    51   28   30 2   
    52   28   31 1   
    53   31   32 1   
    54   31   56 1   
    55   31   57 1   
    56   32   33 ar  
    57   32   37 ar  
    58   33   34 ar  
    59   33   58 1   
    60   34   35 ar  
    61   34   59 1   
    62   35   36 ar  
    63   35   60 1   
    64   36   37 ar  
    65   36   61 1   
    66   37   62 1   
    67   38   39 1   
    68   39   63 1   
@<TRIPOS>SUBSTRUCTURE
     1 902         1 TEMP              0 ****  ****    0 ROOT
