@<TRIPOS>MOLECULE
903
   82    85     1     0     0
SMALL
bcc


@<TRIPOS>ATOM
      1 C1          0.6760    0.5540   -0.3490 ca        1 903     -0.172300
      2 C2          1.6880    1.2160    0.3700 ca        1 903     -0.143000
      3 C3          1.7550    1.1120    1.7470 ca        1 903     -0.057000
      4 C4          0.8100    0.3430    2.4730 ca        1 903      0.053700
      5 C5         -0.1640   -0.3500    1.7390 ca        1 903     -0.160600
      6 C6         -0.2230   -0.2520    0.3400 ca        1 903     -0.120000
      7 C7          0.5010    0.7790   -1.8070 c3        1 903     -0.034100
      8 C8         -0.1140    2.1720   -2.0640 c3        1 903      0.032700
      9 C9         -0.4050    2.3340   -3.5760 c         1 903      0.662100
     10 N10        -1.2920    1.4610   -4.1550 n         1 903     -0.570900
     11 O11         0.2010    3.2050   -4.2360 o         1 903     -0.642100
     12 N12        -1.2320    2.5280   -1.2210 n         1 903     -0.525900
     13 C13        -2.2970    1.6780   -0.9300 c         1 903      0.673100
     14 O14        -2.6760    0.7830   -1.7210 o         1 903     -0.667100
     15 C15        -3.0340    1.9120    0.3650 c3        1 903     -0.188100
     16 C16        -1.6160    1.4620   -5.5580 c3        1 903      0.064700
     17 C17        -2.6580    0.3670   -5.8840 c         1 903      0.691500
     18 N18        -2.3740   -0.9690   -5.6640 n         1 903     -0.469800
     19 O19        -3.7620    0.7160   -6.3510 o         1 903     -0.658500
     20 C20        -1.0500   -1.4620   -5.3600 c3        1 903      0.095000
     21 C21         0.0220   -1.1190   -6.3940 c3        1 903     -0.094400
     22 C22        -3.4550   -1.9330   -5.6060 c3        1 903      0.141300
     23 C23        -3.5220   -2.6980   -4.3130 ca        1 903     -0.126300
     24 C24         0.5740    0.2760   -6.2240 c3        1 903     -0.076400
     25 C25        -0.4260    1.3670   -6.5230 c3        1 903     -0.093400
     26 C26        -3.5430   -4.0960   -4.3280 ca        1 903     -0.120500
     27 C27        -3.5850   -4.8130   -3.1350 ca        1 903     -0.121500
     28 C28        -3.5980   -4.1450   -1.9030 cp        1 903     -0.024000
     29 C29        -3.5980   -2.7420   -1.8940 ca        1 903     -0.121500
     30 C30        -3.5640   -2.0260   -3.0870 ca        1 903     -0.120500
     31 C31        -3.5860   -4.8880   -0.6440 cp        1 903     -0.053000
     32 C32        -2.8420   -4.4120    0.4460 ca        1 903     -0.116000
     33 C33        -2.8270   -5.1150    1.6510 ca        1 903     -0.130000
     34 C34        -3.5520   -6.3000    1.7770 ca        1 903     -0.138000
     35 C35        -4.2940   -6.7790    0.6970 ca        1 903     -0.130000
     36 C36        -4.3120   -6.0800   -0.5080 ca        1 903     -0.116000
     37 C37        -1.2010   -1.1720    2.3860 c         1 903      0.695700
     38 O38        -2.2560   -0.4290    2.8690 os        1 903     -0.438900
     39 O39        -1.3080   -2.4010    2.4600 o         1 903     -0.585000
     40 C40         0.8960    0.3860    3.9750 c3        1 903     -0.056400
     41 C41         0.5980    1.8750    4.4460 c         1 903      0.934600
     42 O42         0.9240    2.8260    3.6820 o         1 903     -0.831050
     43 O43        -0.0010    2.0240    5.5410 o         1 903     -0.831050
     44 C75         2.3400   -0.0780    4.4360 c         1 903      0.934600
     45 O76         2.3990   -1.0500    5.2330 o         1 903     -0.831050
     46 O77         3.3530    0.5110    3.9680 o         1 903     -0.831050
     47 F80        -0.0460   -0.4600    4.5560 f         1 903     -0.248300
     48 C81        -3.0730   -1.0560    3.8520 c3        1 903      0.132700
     49 H2          2.4180    1.8330   -0.1720 ha        1 903      0.107000
     50 H3          2.5250    1.6470    2.3440 ha        1 903      0.223000
     51 H6         -1.0090   -0.7950   -0.2070 ha        1 903      0.113000
     52 H71         1.4880    0.7410   -2.3380 hc        1 903      0.047200
     53 H72        -0.1570   -0.0220   -2.2370 hc        1 903      0.047200
     54 H8          0.6970    2.9380   -1.8470 h1        1 903      0.092700
     55 H10        -1.8140    0.8490   -3.5610 hn        1 903      0.355500
     56 H12        -0.9410    3.0830   -0.4380 hn        1 903      0.320500
     57 H151       -2.5050    1.3400    1.1780 hc        1 903      0.081033
     58 H152       -4.0750    1.5220    0.2690 hc        1 903      0.081033
     59 H153       -3.0680    2.9900    0.6500 hc        1 903      0.081033
     60 H16        -2.1370    2.4450   -5.7980 h1        1 903      0.074700
     61 H201       -0.7180   -1.0920   -4.3470 h1        1 903      0.058700
     62 H202       -1.1170   -2.5870   -5.2900 h1        1 903      0.058700
     63 H211        0.8590   -1.8560   -6.2580 hc        1 903      0.042200
     64 H212       -0.3750   -1.2500   -7.4340 hc        1 903      0.042200
     65 H221       -3.3290   -2.6580   -6.4630 h1        1 903      0.058700
     66 H222       -4.4340   -1.3900   -5.7550 h1        1 903      0.058700
     67 H241        0.9700    0.4020   -5.1800 hc        1 903      0.047700
     68 H242        1.4470    0.4020   -6.9200 hc        1 903      0.047700
     69 H251        0.1120    2.3550   -6.4870 hc        1 903      0.058700
     70 H252       -0.8420    1.2320   -7.5560 hc        1 903      0.058700
     71 H26        -3.5160   -4.6360   -5.2860 ha        1 903      0.141500
     72 H27        -3.5870   -5.9130   -3.1580 ha        1 903      0.141500
     73 H29        -3.6100   -2.1960   -0.9360 ha        1 903      0.141500
     74 H30        -3.5490   -0.9220   -3.0510 ha        1 903      0.141500
     75 H32        -2.2560   -3.4800    0.3700 ha        1 903      0.142000
     76 H33        -2.2370   -4.7100    2.4920 ha        1 903      0.144500
     77 H34        -3.5400   -6.8530    2.7260 ha        1 903      0.123000
     78 H35        -4.8680   -7.7110    0.7950 ha        1 903      0.144500
     79 H36        -4.9050   -6.4570   -1.3530 ha        1 903      0.142000
     80 H811       -2.4360   -1.3780    4.7130 h1        1 903      0.039700
     81 H812       -3.6070   -1.9310    3.4080 h1        1 903      0.039700
     82 H813       -3.7890   -0.2550    4.1570 h1        1 903      0.039700
@<TRIPOS>BOND
     1    1    2 ar  
     2    1    6 ar  
     3    1    7 1   
     4    2    3 ar  
     5    2   49 1   
     6    3    4 ar  
     7    3   50 1   
     8    4    5 ar  
     9    4   40 1   
    10    5    6 ar  
    11    5   37 1   
    12    6   51 1   
    13    7    8 1   
    14    7   52 1   
    15    7   53 1   
    16    8    9 1   
    17    8   12 1   
    18    8   54 1   
    19    9   10 1   
    20    9   11 2   
    21   10   16 1   
    22   10   55 1   
    23   12   13 1   
    24   12   56 1   
    25   13   14 2   
    26   13   15 1   
    27   15   57 1   
    28   15   58 1   
    29   15   59 1   
    30   16   17 1   
    31   16   25 1   
    32   16   60 1   
    33   17   18 1   
    34   17   19 2   
    35   18   20 1   
    36   18   22 1   
    37   20   21 1   
    38   20   61 1   
    39   20   62 1   
    40   21   24 1   
    41   21   63 1   
    42   21   64 1   
    43   22   23 1   
    44   22   65 1   
    45   22   66 1   
    46   23   26 ar  
    47   23   30 ar  
    48   24   25 1   
    49   24   67 1   
    50   24   68 1   
    51   25   69 1   
    52   25   70 1   
    53   26   27 ar  
    54   26   71 1   
    55   27   28 ar  
    56   27   72 1   
    57   28   29 ar  
    58   28   31 1   
    59   29   30 ar  
    60   29   73 1   
    61   30   74 1   
    62   31   32 ar  
    63   31   36 ar  
    64   32   33 ar  
    65   32   75 1   
    66   33   34 ar  
    67   33   76 1   
    68   34   35 ar  
    69   34   77 1   
    70   35   36 ar  
    71   35   78 1   
    72   36   79 1   
    73   37   38 1   
    74   37   39 2   
    75   38   48 1   
    76   40   41 1   
    77   40   44 1   
    78   40   47 1   
    79   41   42 1   
    80   41   43 1   
    81   44   45 1   
    82   44   46 1   
    83   48   80 1   
    84   48   81 1   
    85   48   82 1   
@<TRIPOS>SUBSTRUCTURE
     1 903         1 TEMP              0 ****  ****    0 ROOT
