@<TRIPOS>MOLECULE
903
   82    85     1     0     0
SMALL
bcc


@<TRIPOS>ATOM
      1 C1         -1.9560   -0.2540   -1.0880 ca        1 903     -0.172300
      2 C2         -2.7870   -0.3400   -2.2200 ca        1 903     -0.143000
      3 C3         -2.2740   -0.1350   -3.4870 ca        1 903     -0.057000
      4 C4         -0.9030    0.1710   -3.6830 ca        1 903      0.053700
      5 C5         -0.0760    0.2060   -2.5500 ca        1 903     -0.160600
      6 C6         -0.5980   -0.0130   -1.2660 ca        1 903     -0.120000
      7 C7         -2.5220   -0.3210    0.2840 c3        1 903     -0.034100
      8 C8         -3.2600    0.9920    0.6250 c3        1 903      0.032700
      9 C9         -3.7290    0.9510    2.0990 c         1 903      0.662100
     10 N10        -2.7700    0.8400    3.0750 n         1 903     -0.570900
     11 O11        -4.9500    0.9660    2.3630 o         1 903     -0.642100
     12 N12        -2.5640    2.2100    0.2760 n         1 903     -0.525900
     13 C13        -1.2130    2.4420    0.5310 c         1 903      0.673100
     14 O14        -0.6130    1.9130    1.4950 o         1 903     -0.667100
     15 C15        -0.4970    3.4180   -0.3700 c3        1 903     -0.188100
     16 C16        -3.0660    0.7370    4.4800 c3        1 903      0.064700
     17 C17        -1.7650    0.6420    5.3110 c         1 903      0.691500
     18 N18        -0.8860   -0.4100    5.1330 n         1 903     -0.469800
     19 O19        -1.5270    1.5380    6.1480 o         1 903     -0.658500
     20 C20        -1.2060   -1.5940    4.3700 c3        1 903      0.095000
     21 C21        -2.4490   -2.3500    4.8390 c3        1 903     -0.094400
     22 C22         0.4760   -0.2990    5.6180 c3        1 903      0.141300
     23 C23         1.5200   -0.4680    4.5500 ca        1 903     -0.126300
     24 C24        -3.7310   -1.7470    4.3170 c3        1 903     -0.076400
     25 C25        -4.0360   -0.3810    4.8830 c3        1 903     -0.093400
     26 C26         2.5440   -1.4060    4.7160 ca        1 903     -0.120500
     27 C27         3.5050   -1.5840    3.7230 ca        1 903     -0.121500
     28 C28         3.4530   -0.8330    2.5400 cp        1 903     -0.024000
     29 C29         2.4360    0.1220    2.3880 ca        1 903     -0.121500
     30 C30         1.4820    0.3040    3.3850 ca        1 903     -0.120500
     31 C31         4.4230   -1.0500    1.4690 cp        1 903     -0.053000
     32 C32         4.0160   -0.9900    0.1280 ca        1 903     -0.116000
     33 C33         4.9360   -1.1950   -0.9000 ca        1 903     -0.130000
     34 C34         6.2700   -1.4640   -0.5990 ca        1 903     -0.138000
     35 C35         6.6830   -1.5270    0.7330 ca        1 903     -0.130000
     36 C36         5.7680   -1.3220    1.7620 ca        1 903     -0.116000
     37 C37         1.3600    0.5220   -2.6320 c         1 903      0.695700
     38 O38         1.6120    1.8740   -2.7190 os        1 903     -0.438900
     39 O39         2.3420   -0.2200   -2.5300 o         1 903     -0.585000
     40 C40        -0.4640    0.4920   -5.0870 c3        1 903     -0.056400
     41 C41        -1.2070    1.8210   -5.5460 c         1 903      0.934600
     42 O42        -2.3570    2.0600   -5.0820 o         1 903     -0.831050
     43 O43        -0.5800    2.5960   -6.3130 o         1 903     -0.831050
     44 C75        -0.8220   -0.7200   -6.0440 c         1 903      0.934600
     45 O76         0.1270   -1.2340   -6.6920 o         1 903     -0.831050
     46 O77        -2.0130   -1.1340   -6.0900 o         1 903     -0.831050
     47 F80         0.9110    0.7100   -5.1450 f         1 903     -0.248300
     48 C81         2.8930    2.2470   -3.2160 c3        1 903      0.132700
     49 H2         -3.8570   -0.5560   -2.0870 ha        1 903      0.107000
     50 H3         -2.9120   -0.1670   -4.3960 ha        1 903      0.223000
     51 H6          0.0720    0.0370   -0.3940 ha        1 903      0.113000
     52 H71        -1.6990   -0.5070    1.0240 hc        1 903      0.047200
     53 H72        -3.2630   -1.1580    0.3700 hc        1 903      0.047200
     54 H8         -4.2210    0.9990    0.0190 h1        1 903      0.092700
     55 H10        -1.8100    0.9270    2.8100 hn        1 903      0.355500
     56 H12        -2.8670    2.5670   -0.6110 hn        1 903      0.320500
     57 H151        0.3690    3.8550    0.1800 hc        1 903      0.081033
     58 H152       -0.1130    2.8520   -1.2640 hc        1 903      0.081033
     59 H153       -1.1620    4.2400   -0.7260 hc        1 903      0.081033
     60 H16        -3.5550    1.7110    4.8090 h1        1 903      0.074700
     61 H201       -0.3240   -2.2960    4.4490 h1        1 903      0.058700
     62 H202       -1.3210   -1.3370    3.2770 h1        1 903      0.058700
     63 H211       -2.4790   -2.4070    5.9580 hc        1 903      0.042200
     64 H212       -2.3620   -3.4010    4.4520 hc        1 903      0.042200
     65 H221        0.6310   -1.0800    6.4190 h1        1 903      0.058700
     66 H222        0.6090    0.7170    6.0960 h1        1 903      0.058700
     67 H241       -4.5820   -2.4330    4.5820 hc        1 903      0.047700
     68 H242       -3.6960   -1.6940    3.1960 hc        1 903      0.047700
     69 H251       -4.0510   -0.4260    6.0030 hc        1 903      0.058700
     70 H252       -5.0600   -0.0770    4.5300 hc        1 903      0.058700
     71 H26         2.5880   -2.0160    5.6300 ha        1 903      0.141500
     72 H27         4.2980   -2.3340    3.8570 ha        1 903      0.141500
     73 H29         2.3790    0.7260    1.4670 ha        1 903      0.141500
     74 H30         0.6830    1.0510    3.2320 ha        1 903      0.141500
     75 H32         2.9640   -0.7830   -0.1360 ha        1 903      0.142000
     76 H33         4.5830   -1.1340   -1.9450 ha        1 903      0.144500
     77 H34         6.9950   -1.6260   -1.4090 ha        1 903      0.123000
     78 H35         7.7350   -1.7370    0.9720 ha        1 903      0.144500
     79 H36         6.1000   -1.3640    2.8090 ha        1 903      0.142000
     80 H811        2.8410    3.3610   -3.2840 h1        1 903      0.039700
     81 H812        3.6920    1.9210   -2.5060 h1        1 903      0.039700
     82 H813        3.0480    1.7870   -4.2230 h1        1 903      0.039700
@<TRIPOS>BOND
     1    1    2 ar  
     2    1    6 ar  
     3    1    7 1   
     4    2    3 ar  
     5    2   49 1   
     6    3    4 ar  
     7    3   50 1   
     8    4    5 ar  
     9    4   40 1   
    10    5    6 ar  
    11    5   37 1   
    12    6   51 1   
    13    7    8 1   
    14    7   52 1   
    15    7   53 1   
    16    8    9 1   
    17    8   12 1   
    18    8   54 1   
    19    9   10 1   
    20    9   11 2   
    21   10   16 1   
    22   10   55 1   
    23   12   13 1   
    24   12   56 1   
    25   13   14 2   
    26   13   15 1   
    27   15   57 1   
    28   15   58 1   
    29   15   59 1   
    30   16   17 1   
    31   16   25 1   
    32   16   60 1   
    33   17   18 1   
    34   17   19 2   
    35   18   20 1   
    36   18   22 1   
    37   20   21 1   
    38   20   61 1   
    39   20   62 1   
    40   21   24 1   
    41   21   63 1   
    42   21   64 1   
    43   22   23 1   
    44   22   65 1   
    45   22   66 1   
    46   23   26 ar  
    47   23   30 ar  
    48   24   25 1   
    49   24   67 1   
    50   24   68 1   
    51   25   69 1   
    52   25   70 1   
    53   26   27 ar  
    54   26   71 1   
    55   27   28 ar  
    56   27   72 1   
    57   28   29 ar  
    58   28   31 1   
    59   29   30 ar  
    60   29   73 1   
    61   30   74 1   
    62   31   32 ar  
    63   31   36 ar  
    64   32   33 ar  
    65   32   75 1   
    66   33   34 ar  
    67   33   76 1   
    68   34   35 ar  
    69   34   77 1   
    70   35   36 ar  
    71   35   78 1   
    72   36   79 1   
    73   37   38 1   
    74   37   39 2   
    75   38   48 1   
    76   40   41 1   
    77   40   44 1   
    78   40   47 1   
    79   41   42 1   
    80   41   43 1   
    81   44   45 1   
    82   44   46 1   
    83   48   80 1   
    84   48   81 1   
    85   48   82 1   
@<TRIPOS>SUBSTRUCTURE
     1 903         1 TEMP              0 ****  ****    0 ROOT
