@<TRIPOS>MOLECULE
903
   82    76     1     0     0
SMALL
bcc


@<TRIPOS>ATOM
      1 C1          1.3340    1.2180    4.3090 c1        1 903     -0.166000
      2 C2          2.0590    0.0480    4.4360 c1        1 903     -0.121333
      3 C3          2.4220   -0.4200    5.7050 c1        1 903     -0.121333
      4 C4          2.0560    0.2900    6.8450 c1        1 903      0.054000
      5 C5          1.3260    1.4690    6.7240 c1        1 903     -0.128000
      6 C6          0.9610    1.9400    5.4540 c1        1 903     -0.113000
      7 C7          0.8350    1.6510    2.9340 c3        1 903     -0.106000
      8 C8          1.7710    1.1150    1.8670 c3        1 903      0.014000
      9 C9          0.9790    0.6950    0.6830 c2        1 903      0.307000
     10 N10         1.6500    0.1110   -0.4670 n         1 903     -0.372000
     11 O11        -0.2130    0.6850    0.7410 o         1 903     -0.403000
     12 N12         2.7090    2.1510    1.4780 n         1 903     -0.355000
     13 C13         4.0090    1.8030    1.0630 c2        1 903      0.309000
     14 O14         4.2080    0.7370    0.5630 o         1 903     -0.431000
     15 C15         5.1380    2.8430    1.1290 c3        1 903     -0.270000
     16 C16         0.8160   -0.5210   -1.6120 c3        1 903      0.031000
     17 C17         1.3640   -0.3150   -2.6750 c2        1 903      0.288000
     18 N18         0.5660   -0.6570   -3.6380 n         1 903     -0.329000
     19 O19         2.1650    0.5740   -2.8050 o         1 903     -0.361000
     20 C20         0.7290   -0.0140   -4.5200 c3        1 903     -0.020000
     21 C21         0.6730    1.4170   -4.1300 c3        1 903     -0.178000
     22 C22        -0.2800   -1.9030   -3.6390 c3        1 903      0.009000
     23 C23        -1.4100   -1.7680   -4.7110 c2        1 903     -0.094000
     24 C24        -0.4650    1.6700   -2.7750 c3        1 903     -0.159000
     25 C25        -0.5760    0.2040   -1.7150 c3        1 903     -0.174000
     26 C26        -1.6770   -3.1000   -5.1030 c2        1 903     -0.112000
     27 C27        -2.8100   -3.3900   -5.8600 c1        1 903     -0.119000
     28 C28        -3.6770   -2.3750   -6.2280 c1        1 903     -0.037500
     29 C29        -3.4120   -1.0480   -5.8380 c1        1 903     -0.124500
     30 C30        -2.2750   -0.7550   -5.0790 c1        1 903     -0.130000
     31 C31        -4.8830   -2.6850   -6.9070 c1        1 903     -0.037500
     32 C32        -4.8590   -3.5090   -8.0240 c1        1 903     -0.121333
     33 C33        -6.0160   -3.7150   -8.7580 c1        1 903     -0.121333
     34 C34        -7.1880   -3.1010   -8.3790 c1        1 903     -0.121333
     35 C35        -7.2100   -2.2800   -7.2640 c1        1 903     -0.121333
     36 C36        -6.0540   -2.0750   -6.5310 c1        1 903     -0.124500
     37 C37         0.8900    2.2460    7.9970 c2        1 903      0.388000
     38 O38         1.6330    3.4410    8.4190 os        1 903     -0.269000
     39 O39        -0.0380    1.8380    8.6720 o         1 903     -0.381000
     40 C40         2.3240   -0.3130    8.2520 c3        1 903     -0.025000
     41 C41         3.8080   -0.5170    8.4400 c2        1 903      0.355500
     42 O42         4.3740   -1.5280    7.9410 o         1 903     -0.571250
     43 O43         4.4690    0.3120    9.0680 o         1 903     -0.571250
     44 C75         1.6160   -1.6340    8.3810 c2        1 903      0.355500
     45 O76         0.9500   -1.8820    9.3970 o         1 903     -0.571250
     46 O77         1.6400   -2.4570    7.4290 o         1 903     -0.571250
     47 F80         1.8670    0.5310    9.1960 f         1 903     -0.176000
     48 C81         1.0520    4.1240    9.5350 c3        1 903     -0.056000
     49 H2          2.3250   -0.4660    3.6180 ha        1 903      0.141333
     50 H3          2.9250   -1.2320    5.7890 ha        1 903      0.141333
     51 H6          0.3700    2.7110    5.3730 ha        1 903      0.110000
     52 H71        -0.0520    1.2980    2.7880 hc        1 903      0.092500
     53 H72         0.8100    2.6320    2.8870 hc        1 903      0.092500
     54 H8          2.2610    0.3480    2.2200 h1        1 903      0.116000
     55 H10         2.6040    0.0670   -0.4930 hn        1 903      0.272000
     56 H12         2.4430    3.0520    1.4830 hn        1 903      0.248000
     57 H151        4.7690    3.7030    1.2850 hc        1 903      0.134333
     58 H152        5.7700    2.6070    1.8810 hc        1 903      0.134333
     59 H153        5.6240    2.8480    0.2890 hc        1 903      0.134333
     60 H16         0.7850   -1.4690   -1.3220 h1        1 903      0.138000
     61 H201        0.0220   -0.1980   -5.2010 h1        1 903      0.085500
     62 H202        1.6470   -0.2190   -4.9220 h1        1 903      0.085500
     63 H211        1.5920    1.7220   -3.8500 hc        1 903      0.080500
     64 H212        0.3860    1.9330   -4.8780 hc        1 903      0.080500
     65 H221        0.2590   -2.6490   -3.8440 h1        1 903      0.106000
     66 H222       -0.6910   -2.0280   -2.7340 h1        1 903      0.106000
     67 H241       -0.1620    2.4170   -2.2460 hc        1 903      0.084000
     68 H242       -1.3550    1.8720   -3.1390 hc        1 903      0.084000
     69 H251       -0.8640    0.4730   -0.8270 hc        1 903      0.101000
     70 H252       -1.2460   -0.4260   -2.0990 hc        1 903      0.101000
     71 H26        -1.0520   -3.8340   -4.8370 ha        1 903      0.169000
     72 H27        -2.9910   -4.2960   -6.1260 ha        1 903      0.137000
     73 H29        -4.0230   -0.3330   -6.0980 ha        1 903      0.129500
     74 H30        -2.0900    0.1820   -4.8030 ha        1 903      0.126000
     75 H32        -4.0500   -3.9320   -8.2850 ha        1 903      0.141333
     76 H33        -5.9990   -4.3000   -9.5520 ha        1 903      0.141333
     77 H34        -7.9840   -3.1680   -8.9520 ha        1 903      0.141333
     78 H35        -8.0530   -1.8390   -6.9910 ha        1 903      0.141333
     79 H36        -6.0700   -1.5230   -5.7830 ha        1 903      0.129500
     80 H811        1.6470    4.9240    9.7980 h1        1 903      0.075667
     81 H812        0.1140    4.4630    9.2790 h1        1 903      0.075667
     82 H813        0.9800    3.5070   10.2970 h1        1 903      0.075667
@<TRIPOS>BOND
     1    1    6 1   
     2    1    7 1   
     3    2    3 1   
     4    2   49 1   
     5    3   50 1   
     6    4    5 1   
     7    4   40 1   
     8    5   37 1   
     9    6   51 1   
    10    7    8 1   
    11    7   52 1   
    12    7   53 1   
    13    8    9 1   
    14    8   12 1   
    15    8   54 1   
    16    9   10 1   
    17    9   11 1   
    18   10   16 1   
    19   10   55 1   
    20   12   13 1   
    21   12   56 1   
    22   13   14 1   
    23   13   15 1   
    24   15   57 1   
    25   15   58 1   
    26   15   59 1   
    27   16   17 1   
    28   16   25 1   
    29   16   60 1   
    30   17   18 1   
    31   17   19 1   
    32   18   20 1   
    33   18   22 1   
    34   20   21 1   
    35   20   61 1   
    36   20   62 1   
    37   21   24 1   
    38   21   63 1   
    39   21   64 1   
    40   22   23 1   
    41   22   65 1   
    42   22   66 1   
    43   23   26 1   
    44   23   30 1   
    45   24   25 1   
    46   24   67 1   
    47   24   68 1   
    48   25   69 1   
    49   25   70 1   
    50   26   27 1   
    51   26   71 1   
    52   27   72 1   
    53   28   29 1   
    54   29   73 1   
    55   30   74 1   
    56   31   36 1   
    57   32   33 1   
    58   32   75 1   
    59   33   76 1   
    60   34   35 1   
    61   34   77 1   
    62   35   78 1   
    63   36   79 1   
    64   37   38 1   
    65   37   39 1   
    66   38   48 1   
    67   40   41 1   
    68   40   44 1   
    69   40   47 1   
    70   41   42 1   
    71   41   43 1   
    72   44   45 1   
    73   44   46 1   
    74   48   80 1   
    75   48   81 1   
    76   48   82 1   
@<TRIPOS>SUBSTRUCTURE
     1 903         1 TEMP              0 ****  ****    0 ROOT
