@<TRIPOS>MOLECULE
903
   84    87     1     0     0
SMALL
bcc


@<TRIPOS>ATOM
      1 C1          0.0000    0.0000    0.0000 ca        1 903     -0.210300
      2 C2          1.3840    0.0000    0.0000 ca        1 903     -0.093000
      3 C3          2.0810    0.0000    1.1950 ca        1 903     -0.054000
      4 C4          1.4000    0.0040    2.3950 ca        1 903      0.025700
      5 C5          0.0040   -0.0010    2.4010 ca        1 903     -0.070600
      6 C6         -0.6930   -0.0010    1.1910 ca        1 903     -0.117000
      7 C7         -0.7500    0.0000   -1.3070 c3        1 903      0.019900
      8 C8         -1.0040    1.4430   -1.7470 c3        1 903     -0.048500
      9 C9         -1.7550    1.4440   -3.0550 c         1 903      0.071100
     10 N10        -1.0790    1.4450   -4.2200 ny        1 903      0.131200
     11 O11        -2.9670    1.4440   -3.0560 o         1 903     -0.573100
     12 N12        -1.7980    2.1340   -0.7280 ny        1 903      0.133200
     13 C13        -3.0210    1.6730   -0.4000 c         1 903      0.331100
     14 O14        -3.4640    0.6880   -0.9500 o         1 903     -0.391100
     15 C15        -3.8380    2.3820    0.6470 c3        1 903     -0.059100
     16 C16        -1.8090    1.4450   -5.4910 c3        1 903     -0.099500
     17 C17        -2.3320    0.0540   -5.7770 c         1 903      0.614500
     18 N18        -1.5180   -1.0010   -5.6770 n         1 903     -0.144800
     19 O19        -3.4900   -0.1060   -6.1040 o         1 903     -0.604500
     20 C20        -0.1130   -0.8230   -5.2740 c3        1 903      0.014000
     21 C21         0.6490   -0.1740   -6.4320 c3        1 903     -0.057400
     22 C22        -2.0290   -2.3430   -5.9650 c3        1 903      0.121300
     23 C23        -2.5740   -2.9540   -4.7000 ca        1 903     -0.165300
     24 C24         0.5360    1.3380   -6.3730 c3        1 903     -0.051400
     25 C25        -0.8670    1.8580   -6.6240 c3        1 903     -0.031400
     26 C26        -1.7450   -3.7020   -3.8830 ca        1 903     -0.084500
     27 C27        -2.2380   -4.2610   -2.7210 ca        1 903     -0.093000
     28 C28        -3.5760   -4.0790   -2.3780 cp        1 903     -0.003000
     29 C29        -4.4070   -3.3300   -3.2070 ca        1 903     -0.093000
     30 C30        -3.9020   -2.7710   -4.3640 ca        1 903     -0.084500
     31 C31        -4.1130   -4.6820   -1.1330 cp        1 903     -0.032000
     32 C32        -5.0090   -3.9680   -0.3400 ca        1 903     -0.093000
     33 C33        -5.5100   -4.5360    0.8130 ca        1 903     -0.105000
     34 C34        -5.1160   -5.8060    1.1900 ca        1 903     -0.087000
     35 C35        -4.2210   -6.5170    0.4110 ca        1 903     -0.105000
     36 C36        -3.7180   -5.9610   -0.7490 ca        1 903     -0.093000
     37 C37        -0.7310   -0.0010    3.6820 c         1 903      0.690700
     38 O38        -2.0730    0.1150    3.6870 os        1 903     -0.461900
     39 O39        -0.1260   -0.1050    4.7300 o         1 903     -0.493000
     40 C40         2.1620    0.0040    3.6950 c3        1 903      0.067600
     41 C41         3.6320    0.1770    3.4170 c         1 903      0.987100
     42 O42         4.3270   -0.8170    2.8400 o         1 903     -0.734800
     43 O43         4.1860    1.2090    3.7130 o         1 903     -0.734800
     44 C75         1.9350   -1.3020    4.4090 c         1 903      0.987100
     45 O76         2.5190   -1.5290    5.5970 o         1 903     -0.734800
     46 O77         1.2280   -2.1470    3.9130 o         1 903     -0.734800
     47 F80         1.7130    1.0570    4.4990 f         1 903     -0.207300
     48 C81        -2.7970    0.1150    4.9460 c3        1 903      0.279700
     49 H2          1.9240   -0.0010   -0.9390 ha        1 903      0.093000
     50 H3          3.1650    0.0020    1.1890 ha        1 903      0.183000
     51 H6         -1.7770   -0.0050    1.1890 ha        1 903      0.102000
     52 H71        -0.1630   -0.5100   -2.0610 hc        1 903      0.056700
     53 H72        -1.6970   -0.5110   -1.1800 hc        1 903      0.056700
     54 H8         -0.0570    1.9540   -1.8750 hx        1 903      0.060700
     55 H10        -0.4970    2.2590   -4.2180 hn        1 903      0.250800
     56 H12        -1.2530    2.1370    0.1120 hn        1 903      0.261800
     57 H151       -4.4750    1.6670    1.1540 hc        1 903      0.050367
     58 H152       -3.1770    2.8490    1.3670 hc        1 903      0.050367
     59 H153       -4.4510    3.1400    0.1750 hc        1 903      0.050367
     60 H16        -2.6380    2.1400   -5.4390 hx        1 903      0.117700
     61 H201        0.3240   -1.7880   -5.0490 h1        1 903      0.041200
     62 H202       -0.0630   -0.1820   -4.4030 h1        1 903      0.041200
     63 H211        1.6940   -0.4550   -6.3700 hc        1 903      0.049700
     64 H212        0.2360   -0.5250   -7.3700 hc        1 903      0.049700
     65 H221       -1.2250   -2.9610   -6.3470 h1        1 903      0.044200
     66 H222       -2.8180   -2.2780   -6.7040 h1        1 903      0.044200
     67 H241        1.1980    1.7620   -7.1190 hc        1 903      0.023700
     68 H242        0.8550    1.6690   -5.3920 hc        1 903      0.023700
     69 H251       -0.8390    2.9390   -6.6870 hc        1 903      0.053200
     70 H252       -1.2350    1.4500   -7.5580 hc        1 903      0.053200
     71 H26        -0.7140   -3.8700   -4.1690 ha        1 903      0.112000
     72 H27        -1.6050   -4.9000   -2.1170 ha        1 903      0.120000
     73 H29        -5.4480   -3.1850   -2.9450 ha        1 903      0.120000
     74 H30        -4.5550   -2.2140   -5.0250 ha        1 903      0.112000
     75 H32        -5.3510   -2.9900   -0.6560 ha        1 903      0.111000
     76 H33        -6.2130   -3.9840    1.4260 ha        1 903      0.105500
     77 H34        -5.5080   -6.2460    2.0990 ha        1 903      0.105000
     78 H35        -3.9170   -7.5130    0.7090 ha        1 903      0.105500
     79 H36        -3.1450   -6.7560   -1.2110 ha        1 903      0.111000
     80 H811       -3.8510    0.2810    4.7570 h1        1 903      0.001033
     81 H812       -2.4150    0.9040    5.5820 h1        1 903      0.001033
     82 H813       -2.6650   -0.8410    5.4390 h1        1 903      0.001033
     83 H102       -0.4960    0.6310   -4.2180 hn        1 903      0.250800
     84 H122       -1.9180    3.0760   -1.0420 hn        1 903      0.261800
@<TRIPOS>BOND
     1    1    2 ar  
     2    1    6 ar  
     3    1    7 1   
     4    2    3 ar  
     5    2   49 1   
     6    3    4 ar  
     7    3   50 1   
     8    4    5 ar  
     9    4   40 1   
    10    5    6 ar  
    11    5   37 1   
    12    6   51 1   
    13    7    8 1   
    14    7   52 1   
    15    7   53 1   
    16    8    9 1   
    17    8   12 1   
    18    8   54 1   
    19    9   10 1   
    20    9   11 2   
    21   10   16 1   
    22   10   55 1   
    23   10   83 1   
    24   12   13 1   
    25   12   56 1   
    26   12   84 1   
    27   13   14 2   
    28   13   15 1   
    29   15   57 1   
    30   15   58 1   
    31   15   59 1   
    32   16   17 1   
    33   16   25 1   
    34   16   60 1   
    35   17   18 1   
    36   17   19 2   
    37   18   20 1   
    38   18   22 1   
    39   20   21 1   
    40   20   61 1   
    41   20   62 1   
    42   21   24 1   
    43   21   63 1   
    44   21   64 1   
    45   22   23 1   
    46   22   65 1   
    47   22   66 1   
    48   23   26 ar  
    49   23   30 ar  
    50   24   25 1   
    51   24   67 1   
    52   24   68 1   
    53   25   69 1   
    54   25   70 1   
    55   26   27 ar  
    56   26   71 1   
    57   27   28 ar  
    58   27   72 1   
    59   28   29 ar  
    60   28   31 1   
    61   29   30 ar  
    62   29   73 1   
    63   30   74 1   
    64   31   32 ar  
    65   31   36 ar  
    66   32   33 ar  
    67   32   75 1   
    68   33   34 ar  
    69   33   76 1   
    70   34   35 ar  
    71   34   77 1   
    72   35   36 ar  
    73   35   78 1   
    74   36   79 1   
    75   37   38 1   
    76   37   39 2   
    77   38   48 1   
    78   40   41 1   
    79   40   44 1   
    80   40   47 1   
    81   41   42 1   
    82   41   43 1   
    83   44   45 1   
    84   44   46 1   
    85   48   80 1   
    86   48   81 1   
    87   48   82 1   
@<TRIPOS>SUBSTRUCTURE
     1 903         1 TEMP              0 ****  ****    0 ROOT
