@<TRIPOS>MOLECULE
904
   59    63     1     0     0
SMALL
bcc


@<TRIPOS>ATOM
      1 S1         -0.0110    0.1660    1.1280 s6        1 904      1.509800
      2 C2          6.8890   -1.0990    2.1160 cc        1 904     -0.248400
      3 C4          4.4070   -1.5080    1.9700 ca        1 904     -0.209600
      4 C5          8.1080   -0.4900    2.6060 ca        1 904     -0.148100
      5 N6          1.2280   -0.3710    0.3180 nh        1 904     -0.786500
      6 C8          7.2580   -1.9350    1.0440 cd        1 904     -0.016100
      7 C10         2.2220   -1.2250    0.8590 ca        1 904     -0.009400
      8 C11         3.4170   -0.6790    1.4110 ca        1 904      0.172900
      9 C12         9.1850   -1.0000    1.7780 ca        1 904      0.407800
     10 N13         8.6190   -1.8810    0.8300 na        1 904     -0.254100
     11 C15        10.9280    3.4480    6.7850 ca        1 904      0.698300
     12 C16         8.4260    0.4090    3.6250 ca        1 904     -0.047000
     13 N18        10.4990   -0.6590    1.9260 nb        1 904     -0.644000
     14 N19         9.8880    2.5900    7.0580 nb        1 904     -0.694000
     15 N20        11.6110    3.4850    5.5930 nb        1 904     -0.694000
     16 C21        11.3290    4.3920    7.8670 cx        1 904     -0.193000
     17 C23         9.7650    0.7680    3.7880 cp        1 904     -0.136300
     18 N24         0.8190    1.5900    2.1360 n4        1 904     -0.619300
     19 C25        11.8310    5.7750    7.5240 cx        1 904     -0.105400
     20 C28        12.7840    4.7530    8.0570 cx        1 904     -0.105400
     21 C31        10.1710    1.6950    4.8240 cp        1 904     -0.292600
     22 C32         4.2090   -2.9040    1.9480 ca        1 904      0.219900
     23 O33        -0.9020    0.8630    0.3230 o         1 904     -0.554800
     24 O34        -0.4600   -0.6630    2.1430 o         1 904     -0.554800
     25 O35         5.3430   -0.1210    3.6200 o         1 904     -0.527100
     26 C36        11.2270    2.6190    4.6420 ca        1 904      0.447700
     27 C38         9.5320    1.7360    6.0860 ca        1 904      0.447700
     28 C40        10.7470    0.2030    2.9150 ca        1 904      0.427200
     29 C42         2.0690   -2.6250    0.8350 ca        1 904     -0.038000
     30 C44         3.0430   -3.4510    1.3710 ca        1 904     -0.168000
     31 F46         3.5870    0.6670    1.4200 f         1 904     -0.133900
     32 F47         5.1210   -3.7370    2.4850 f         1 904     -0.091900
     33 C48        -0.0810    1.9940    3.2520 c3        1 904      0.099800
     34 C51         1.1320    2.7230    1.2510 c3        1 904      0.070100
     35 C55         0.5870    2.8160    4.3340 c3        1 904     -0.126100
     36 H1          1.4070   -0.1290   -0.6390 hn        1 904      0.501800
     37 H2          6.6190   -2.5760    0.4290 h4        1 904      0.172000
     38 H3          9.1310   -2.3890    0.1530 hn        1 904      0.326700
     39 H4          7.6310    0.8170    4.2690 ha        1 904      0.164000
     40 H5         10.7040    4.2840    8.7790 hc        1 904      0.108700
     41 H6         11.5140    6.6120    8.1720 hc        1 904      0.081950
     42 H7         11.9070    6.0790    6.4640 hc        1 904      0.081950
     43 H8         13.5440    4.3220    7.3810 hc        1 904      0.081950
     44 H9         13.1580    4.8480    9.0930 hc        1 904      0.081950
     45 H10        11.7840    2.6720    3.6880 h4        1 904      0.030600
     46 H11         8.7020    1.0460    6.3270 h4        1 904      0.030600
     47 H12        11.8140    0.4700    3.0440 h4        1 904      0.039100
     48 H13         1.1640   -3.0790    0.3940 ha        1 904      0.170000
     49 H14         2.9120   -4.5470    1.3610 ha        1 904      0.187000
     50 H15        -0.9400    2.5750    2.8080 hx        1 904      0.107700
     51 H16        -0.4840    1.0440    3.7180 hx        1 904      0.107700
     52 H17         1.4520    3.6230    1.8450 hx        1 904      0.103700
     53 H18         1.9770    2.4370    0.5670 hx        1 904      0.103700
     54 H19         0.2190    2.9980    0.6530 hx        1 904      0.103700
     55 H20        -0.1660    3.0090    5.1410 hc        1 904      0.075367
     56 H21         1.4530    2.2740    4.7880 hc        1 904      0.075367
     57 H22         0.9420    3.8020    3.9480 hc        1 904      0.075367
     58 H241        1.6960    1.2720    2.5560 hn        1 904      0.450800
     59 C3          5.5750   -0.8590    2.6520 c         1 904      0.633900
@<TRIPOS>BOND
     1    1    5 1   
     2    1   18 1   
     3    1   23 2   
     4    1   24 2   
     5    2    4 1   
     6    2    6 2   
     7    2   59 1   
     8    3    8 ar  
     9    3   22 ar  
    10    3   59 1   
    11    4    9 ar  
    12    4   12 ar  
    13    5    7 1   
    14    5   36 1   
    15    6   10 1   
    16    6   37 1   
    17    7    8 ar  
    18    7   29 ar  
    19    8   31 1   
    20    9   10 1   
    21    9   13 ar  
    22   10   38 1   
    23   11   14 ar  
    24   11   15 ar  
    25   11   16 1   
    26   12   17 ar  
    27   12   39 1   
    28   13   28 ar  
    29   14   27 ar  
    30   15   26 ar  
    31   16   19 1   
    32   16   20 1   
    33   16   40 1   
    34   17   21 1   
    35   17   28 ar  
    36   18   33 1   
    37   18   34 1   
    38   18   58 1   
    39   19   20 1   
    40   19   41 1   
    41   19   42 1   
    42   20   43 1   
    43   20   44 1   
    44   21   26 ar  
    45   21   27 ar  
    46   22   30 ar  
    47   22   32 1   
    48   25   59 2   
    49   26   45 1   
    50   27   46 1   
    51   28   47 1   
    52   29   30 ar  
    53   29   48 1   
    54   30   49 1   
    55   33   35 1   
    56   33   50 1   
    57   33   51 1   
    58   34   52 1   
    59   34   53 1   
    60   34   54 1   
    61   35   55 1   
    62   35   56 1   
    63   35   57 1   
@<TRIPOS>SUBSTRUCTURE
     1 904         1 TEMP              0 ****  ****    0 ROOT
