@<TRIPOS>MOLECULE
905
   66    60     1     0     0
SMALL
bcc


@<TRIPOS>ATOM
      1 O1         -1.4210    4.2210   -3.0800 oh        1 905     -0.263000
      2 C1         -1.5170    2.7810   -3.0190 c2        1 905      0.138000
      3 C2         -0.7730    2.0620   -2.0510 c2        1 905     -0.270000
      4 C3         -0.9290    0.6740   -1.9370 c1        1 905      0.114000
      5 N1         -0.2850   -0.0460   -0.8360 n2        1 905     -0.305000
      6 C4          1.0910    0.0430   -0.6530 c3        1 905      0.039000
      7 C5          1.3980    1.0120    0.5210 c2        1 905      0.329000
      8 O2          2.2510    0.7400    1.3110 o         1 905     -0.335000
      9 N2          0.6700    2.2450    0.6470 n         1 905     -0.835000
     10 S1          0.2440    2.8270    2.2000 s4        1 905      2.070800
     11 O3          1.0230    2.1780    3.2370 o         1 905     -0.525900
     12 O4          0.6430    4.2090    2.3730 o         1 905     -0.525900
     13 C6         -1.4540    2.6270    2.4730 c1        1 905     -0.799000
     14 C7         -2.0030    1.3500    2.5390 c2        1 905     -0.058000
     15 C8         -3.3700    1.1930    2.7160 c1        1 905     -0.119000
     16 C9         -4.1950    2.3170    2.8280 c1        1 905     -0.126000
     17 C10        -3.6450    3.5950    2.7620 c1        1 905      0.037000
     18 N3         -4.4830    4.7380    2.8990 n2        1 905     -0.327000
     19 C11        -2.2820    3.7540    2.5850 c2        1 905     -0.080000
     20 C12         1.6560   -1.3510   -0.3270 c2        1 905     -0.076000
     21 C13         0.9820   -2.1860    0.5690 c2        1 905      0.021000
     22 F1         -0.1450   -1.7750    1.1390 f         1 905     -0.097000
     23 C14         1.4630   -3.4590    0.8240 c1        1 905      0.098000
     24 O5          0.7630   -4.3280    1.7610 o         1 905     -0.201500
     25 C15         1.3140   -4.3170    3.1040 c3        1 905     -0.022000
     26 C16         0.3390   -4.9730    4.0520 c3        1 905     -0.219000
     27 C17         2.6090   -3.9020    0.1920 c2        1 905     -0.254000
     28 C18         3.2770   -3.0710   -0.6980 c1        1 905      0.119000
     29 O6          4.4590   -3.5020   -1.3040 o         1 905     -0.201500
     30 C19         5.5800   -3.6210   -0.3890 c3        1 905     -0.022000
     31 C20         6.7940   -4.0890   -1.1440 c3        1 905     -0.219000
     32 C21         2.7930   -1.7920   -0.9530 c2        1 905     -0.154000
     33 C22        -1.8290   -0.0050   -2.7890 c2        1 905     -0.221000
     34 C23        -2.5670    0.7130   -3.7520 c1        1 905     -0.043000
     35 C24        -2.4100    2.1030   -3.8650 c1        1 905     -0.168000
     36 C25        -3.3160    2.9140   -4.8440 c2        1 905      0.138000
     37 N4         -4.5160    3.3070   -4.4600 n1        1 905     -0.313000
     38 N5         -2.8380    3.2420   -6.1750 n3        1 905     -0.321000
     39 HO1        -1.8570    4.5860   -2.3690 ho        1 905      0.235000
     40 H2         -0.1970    2.5200   -1.4660 ha        1 905      0.157000
     41 HN1        -0.7890   -0.5510   -0.2660 hn        1 905      0.222000
     42 H4          1.4990    0.3720   -1.4540 h1        1 905      0.136000
     43 HN2         0.5310    2.7790   -0.1020 hn        1 905      0.264000
     44 H7         -1.4130    0.5460    2.4590 ha        1 905      0.157000
     45 H8         -3.7710    0.2640    2.7640 ha        1 905      0.140000
     46 H9         -5.1870    2.2020    2.9560 ha        1 905      0.138000
     47 HN31       -4.1190    5.5870    2.8580 hn        1 905      0.190000
     48 HN32       -5.3900    4.6310    3.0070 hn        1 905      0.190000
     49 H11        -1.8900    4.6650    2.5370 ha        1 905      0.157000
     50 H151        2.1470   -4.8010    3.1150 h1        1 905      0.079750
     51 H152        1.4670   -3.4080    3.3810 h1        1 905      0.079750
     52 H161        0.0450   -5.8320    3.6760 hc        1 905      0.092667
     53 H162       -0.4230   -4.3990    4.1760 hc        1 905      0.092667
     54 H163        0.7780   -5.1300    4.9220 hc        1 905      0.092667
     55 H17         2.9370   -4.7680    0.3630 ha        1 905      0.153000
     56 H191        5.7690   -2.7280    0.0290 h1        1 905      0.079750
     57 H192        5.3630   -4.2660    0.3080 h1        1 905      0.079750
     58 H201        7.1650   -3.3700   -1.6140 hc        1 905      0.092667
     59 H202        7.4490   -4.4380   -0.5200 hc        1 905      0.092667
     60 H203        6.5380   -4.7870   -1.7700 hc        1 905      0.092667
     61 H21         3.2660   -1.2070   -1.5800 ha        1 905      0.168000
     62 H22        -1.9400   -0.9730   -2.7120 ha        1 905      0.139000
     63 H23        -3.1830    0.2470   -4.3350 ha        1 905      0.145000
     64 HN4        -4.8150    3.1040   -3.6290 DU        1 905      0.144000
     65 HN51       -2.0310    2.8890   -6.4810 hn        1 905      0.193500
     66 HN52       -3.3190    3.8380   -6.7110 hn        1 905      0.193500
@<TRIPOS>BOND
     1    1    2 1   
     2    1   39 1   
     3    2    3 1   
     4    2   35 1   
     5    3    4 1   
     6    3   40 1   
     7    4   33 1   
     8    5    6 1   
     9    5   41 1   
    10    6    7 1   
    11    6   20 1   
    12    6   42 1   
    13    7    8 1   
    14    7    9 1   
    15    9   10 1   
    16    9   43 1   
    17   10   11 1   
    18   10   12 1   
    19   13   14 1   
    20   13   19 1   
    21   14   15 1   
    22   14   44 1   
    23   15   45 1   
    24   16   17 1   
    25   16   46 1   
    26   17   19 1   
    27   18   47 1   
    28   18   48 1   
    29   19   49 1   
    30   20   21 1   
    31   20   32 1   
    32   21   22 1   
    33   21   23 1   
    34   23   27 1   
    35   24   25 1   
    36   25   26 1   
    37   25   50 1   
    38   25   51 1   
    39   26   52 1   
    40   26   53 1   
    41   26   54 1   
    42   27   28 1   
    43   27   55 1   
    44   28   32 1   
    45   29   30 1   
    46   30   31 1   
    47   30   56 1   
    48   30   57 1   
    49   31   58 1   
    50   31   59 1   
    51   31   60 1   
    52   32   61 1   
    53   33   34 1   
    54   33   62 1   
    55   34   63 1   
    56   35   36 1   
    57   36   37 1   
    58   36   38 1   
    59   38   65 1   
    60   38   66 1   
@<TRIPOS>SUBSTRUCTURE
     1 905         1 TEMP              0 ****  ****    0 ROOT
