@<TRIPOS>MOLECULE
905
   66    68     1     0     0
SMALL
bcc


@<TRIPOS>ATOM
      1 O1          0.0520    1.3850   -0.1260 oh        1 905     -0.495100
      2 C1          1.2890    0.7950   -0.2380 ca        1 905      0.172100
      3 C2          1.9100    0.1940    0.8640 ca        1 905     -0.267000
      4 C3          3.1710   -0.4220    0.7140 ca        1 905      0.178600
      5 N1          3.7410   -1.1240    1.7960 nh        1 905     -0.707600
      6 C4          5.1510   -0.9370    2.0690 c3        1 905      0.181800
      7 C5          5.4110    0.0520    3.2430 c         1 905      0.669100
      8 O2          4.5090    0.3590    4.0430 o         1 905     -0.590100
      9 N2          6.6890    0.5750    3.3620 n         1 905     -0.658300
     10 S1          7.2440    1.7380    4.4140 sy        1 905      1.508900
     11 O3          8.5850    1.9760    4.0430 o         1 905     -0.636800
     12 O4          6.3880    2.8470    4.4100 o         1 905     -0.636800
     13 C6          7.2010    0.9670    5.9010 ca        1 905     -0.359500
     14 C7          8.3680    0.4200    6.4480 ca        1 905     -0.059000
     15 C8          8.3380   -0.1860    7.7000 ca        1 905     -0.123000
     16 C9          7.1530   -0.2600    8.4240 ca        1 905     -0.125000
     17 C10         5.9610    0.2910    7.8990 ca        1 905      0.116600
     18 N3          4.7860    0.3130    8.6560 nh        1 905     -0.817200
     19 C11         6.0090    0.8980    6.6240 ca        1 905     -0.064000
     20 C12         5.8550   -2.2300    2.4210 ca        1 905     -0.064300
     21 C13         7.1790   -2.4210    1.9700 ca        1 905      0.046900
     22 F1          7.8110   -1.4600    1.2510 f         1 905     -0.134900
     23 C14         7.8570   -3.6290    2.2740 ca        1 905      0.145100
     24 O5          9.1400   -3.7030    1.7850 os        1 905     -0.313900
     25 C15         9.8460   -4.9280    2.0360 c3        1 905      0.129400
     26 C16        11.1960   -4.7630    1.3770 c3        1 905     -0.101100
     27 C17         7.2270   -4.6290    3.0210 ca        1 905     -0.257000
     28 C18         5.9180   -4.4150    3.4630 ca        1 905      0.158100
     29 O6          5.1950   -5.3140    4.2160 os        1 905     -0.324900
     30 C19         5.8220   -6.5800    4.4700 c3        1 905      0.128400
     31 C20         4.8100   -7.3940    5.2430 c3        1 905     -0.101100
     32 C21         5.2300   -3.2220    3.1680 ca        1 905     -0.143000
     33 C22         3.7850   -0.4050   -0.5590 ca        1 905     -0.205000
     34 C23         3.1570    0.2100   -1.6350 ca        1 905     -0.040000
     35 C24         1.9090    0.8220   -1.5020 ca        1 905     -0.248900
     36 C25         1.2390    1.4580   -2.6780 ce        1 905      0.647800
     37 N4          0.0030    1.2570   -3.0220 n2        1 905     -0.821100
     38 N5          2.1030    2.2600   -3.4660 nh        1 905     -0.890800
     39 HO1        -0.2240    1.3380    0.8020 ho        1 905      0.427000
     40 H2          1.4040    0.2070    1.8400 ha        1 905      0.141000
     41 HN1         3.1880   -1.0720    2.6320 hn        1 905      0.413800
     42 H4          5.6500   -0.5070    1.1430 h1        1 905      0.104700
     43 HN2         7.3470    0.1980    2.7070 hn        1 905      0.347500
     44 H7          9.3160    0.4860    5.8850 ha        1 905      0.158000
     45 H8          9.2610   -0.6110    8.1240 ha        1 905      0.139000
     46 H9          7.1500   -0.7430    9.4130 ha        1 905      0.137000
     47 HN31        3.9540    0.4440    8.1240 hn        1 905      0.394800
     48 HN32        4.7150   -0.4170    9.3290 hn        1 905      0.394800
     49 H11         5.0920    1.3310    6.1780 ha        1 905      0.169000
     50 H151        9.9480   -5.0750    3.1430 h1        1 905      0.039700
     51 H152        9.2760   -5.7840    1.5900 h1        1 905      0.039700
     52 H161       11.7970   -5.6880    1.5440 hc        1 905      0.054033
     53 H162       11.0780   -4.5940    0.2800 hc        1 905      0.054033
     54 H163       11.7390   -3.8890    1.8100 hc        1 905      0.054033
     55 H17         7.7560   -5.5630    3.2540 ha        1 905      0.151000
     56 H191        6.7550   -6.4160    5.0710 h1        1 905      0.039700
     57 H192        6.0800   -7.0720    3.4960 h1        1 905      0.039700
     58 H201        3.8780   -7.5290    4.6440 hc        1 905      0.052033
     59 H202        5.2470   -8.3940    5.4740 hc        1 905      0.052033
     60 H203        4.5420   -6.8810    6.1980 hc        1 905      0.052033
     61 H21         4.2000   -3.1030    3.5350 ha        1 905      0.165000
     62 H22         4.7550   -0.9000   -0.7200 ha        1 905      0.144000
     63 H23         3.6540    0.2040   -2.6210 ha        1 905      0.156000
     64 HN4        -0.4870    0.6180   -2.4330 hn        1 905      0.401400
     65 HN51        2.7250    2.8040   -2.9080 hn        1 905      0.391800
     66 HN52        1.6420    2.8030   -4.1650 hn        1 905      0.391800
@<TRIPOS>BOND
     1    1    2 1   
     2    1   39 1   
     3    2    3 ar  
     4    2   35 ar  
     5    3    4 ar  
     6    3   40 1   
     7    4    5 1   
     8    4   33 ar  
     9    5    6 1   
    10    5   41 1   
    11    6    7 1   
    12    6   20 1   
    13    6   42 1   
    14    7    8 2   
    15    7    9 1   
    16    9   10 1   
    17    9   43 1   
    18   10   11 2   
    19   10   12 2   
    20   10   13 1   
    21   13   14 ar  
    22   13   19 ar  
    23   14   15 ar  
    24   14   44 1   
    25   15   16 ar  
    26   15   45 1   
    27   16   17 ar  
    28   16   46 1   
    29   17   18 1   
    30   17   19 ar  
    31   18   47 1   
    32   18   48 1   
    33   19   49 1   
    34   20   21 ar  
    35   20   32 ar  
    36   21   22 1   
    37   21   23 ar  
    38   23   24 1   
    39   23   27 ar  
    40   24   25 1   
    41   25   26 1   
    42   25   50 1   
    43   25   51 1   
    44   26   52 1   
    45   26   53 1   
    46   26   54 1   
    47   27   28 ar  
    48   27   55 1   
    49   28   29 1   
    50   28   32 ar  
    51   29   30 1   
    52   30   31 1   
    53   30   56 1   
    54   30   57 1   
    55   31   58 1   
    56   31   59 1   
    57   31   60 1   
    58   32   61 1   
    59   33   34 ar  
    60   33   62 1   
    61   34   35 ar  
    62   34   63 1   
    63   35   36 1   
    64   36   37 2   
    65   36   38 1   
    66   37   64 1   
    67   38   65 1   
    68   38   66 1   
@<TRIPOS>SUBSTRUCTURE
     1 905         1 TEMP              0 ****  ****    0 ROOT
