@<TRIPOS>MOLECULE
905
   66    68     1     0     0
SMALL
bcc


@<TRIPOS>ATOM
      1 O1         -3.5420    1.3240    5.5130 oh        1 905     -0.503100
      2 C1         -2.4620    0.6150    5.0560 ca        1 905      0.205100
      3 C2         -1.9720    1.0400    3.8090 ca        1 905     -0.218000
      4 C3         -0.8680    0.3930    3.2230 ca        1 905      0.172600
      5 N1         -0.3160    0.8990    2.0280 nh        1 905     -0.706600
      6 C4          0.0870   -0.0380    1.0010 c3        1 905      0.182800
      7 C5         -0.9670   -0.1820   -0.1360 c         1 905      0.668100
      8 O2         -1.8780    0.6500   -0.2870 o         1 905     -0.586100
      9 N2         -0.8440   -1.2770   -0.9780 n         1 905     -0.660300
     10 S1         -1.8660   -1.7810   -2.1890 sy        1 905      1.507900
     11 O3         -1.3120   -2.9850   -2.6760 o         1 905     -0.637800
     12 O4         -3.1840   -1.8470   -1.7200 o         1 905     -0.637800
     13 C6         -1.7150   -0.5830   -3.3510 ca        1 905     -0.359500
     14 C7         -0.8770   -0.7720   -4.4570 ca        1 905     -0.060000
     15 C8         -0.7800    0.2090   -5.4390 ca        1 905     -0.124000
     16 C9         -1.5100    1.3880   -5.3370 ca        1 905     -0.125000
     17 C10        -2.3710    1.6020   -4.2350 ca        1 905      0.116600
     18 N3         -3.1860    2.7370   -4.1700 nh        1 905     -0.817200
     19 C11        -2.4520    0.5970   -3.2450 ca        1 905     -0.062000
     20 C12         1.3940    0.3470    0.3420 ca        1 905     -0.063300
     21 C13         2.2940   -0.6790   -0.0220 ca        1 905      0.045900
     22 F1          1.9870   -1.9810    0.2010 f         1 905     -0.134900
     23 C14         3.5310   -0.3450   -0.6280 ca        1 905      0.144100
     24 O5          4.3260   -1.4240   -0.9370 os        1 905     -0.313900
     25 C15         5.6020   -1.1250   -1.5260 c3        1 905      0.129400
     26 C16         6.2740   -2.4610   -1.7430 c3        1 905     -0.101100
     27 C17         3.8650    0.9910   -0.8750 ca        1 905     -0.258000
     28 C18         2.9550    1.9890   -0.5130 ca        1 905      0.158100
     29 O6          3.1590    3.3370   -0.7150 os        1 905     -0.323900
     30 C19         4.4370    3.7140   -1.2480 c3        1 905      0.128400
     31 C20         4.4310    5.2240   -1.3050 c3        1 905     -0.101100
     32 C21         1.7230    1.6740    0.0920 ca        1 905     -0.142000
     33 C22        -0.2700   -0.6900    3.9120 ca        1 905     -0.207000
     34 C23        -0.7820   -1.1130    5.1290 ca        1 905     -0.049000
     35 C24        -1.8920   -0.4900    5.7130 ca        1 905     -0.255900
     36 C25        -2.4160   -1.0060    7.0140 ce        1 905      0.676800
     37 N4         -2.6130   -0.1690    7.9900 n2        1 905     -0.864100
     38 N5         -2.5730   -2.4060    7.0560 nh        1 905     -0.963800
     39 HO1        -3.6640    1.1470    6.4590 ho        1 905      0.449000
     40 H2         -2.4690    1.8910    3.3180 ha        1 905      0.158000
     41 HN1        -0.8410    1.6680    1.6500 hn        1 905      0.415800
     42 H4          0.2200   -1.0630    1.4710 h1        1 905      0.103700
     43 HN2        -0.0290   -1.8330   -0.8080 hn        1 905      0.346500
     44 H7         -0.3040   -1.7110   -4.5510 ha        1 905      0.157000
     45 H8         -0.1210    0.0510   -6.3060 ha        1 905      0.139000
     46 H9         -1.4210    2.1520   -6.1250 ha        1 905      0.136000
     47 HN31       -2.8250    3.5310   -4.6490 hn        1 905      0.394800
     48 HN32       -3.5280    2.9460   -3.2580 hn        1 905      0.394800
     49 H11        -3.1070    0.7360   -2.3630 ha        1 905      0.170000
     50 H151        6.1930   -0.4800   -0.8250 h1        1 905      0.039700
     51 H152        5.4440   -0.5860   -2.4970 h1        1 905      0.039700
     52 H161        7.2750   -2.2930   -2.2070 hc        1 905      0.053367
     53 H162        6.4030   -2.9960   -0.7720 hc        1 905      0.053367
     54 H163        5.6590   -3.1030   -2.4180 hc        1 905      0.053367
     55 H17         4.8240    1.2440   -1.3440 ha        1 905      0.151000
     56 H191        5.2500    3.3350   -0.5740 h1        1 905      0.039200
     57 H192        4.5560    3.2690   -2.2710 h1        1 905      0.039200
     58 H201        5.4060    5.5770   -1.7190 hc        1 905      0.052033
     59 H202        3.6020    5.5870   -1.9580 hc        1 905      0.052033
     60 H203        4.2880    5.6530   -0.2850 hc        1 905      0.052033
     61 H21         1.0430    2.4960    0.3620 ha        1 905      0.166000
     62 H22         0.6220   -1.1900    3.5060 ha        1 905      0.142000
     63 H23        -0.2920   -1.9510    5.6510 ha        1 905      0.145000
     64 HN4        -2.9550   -0.5490    8.8460 hn        1 905      0.387400
     65 HN51       -3.1670   -2.7790    7.7590 hn        1 905      0.405300
     66 HN52       -2.6220   -2.8660    6.1780 hn        1 905      0.405300
@<TRIPOS>BOND
     1    1    2 1   
     2    1   39 1   
     3    2    3 ar  
     4    2   35 ar  
     5    3    4 ar  
     6    3   40 1   
     7    4    5 1   
     8    4   33 ar  
     9    5    6 1   
    10    5   41 1   
    11    6    7 1   
    12    6   20 1   
    13    6   42 1   
    14    7    8 2   
    15    7    9 1   
    16    9   10 1   
    17    9   43 1   
    18   10   11 2   
    19   10   12 2   
    20   10   13 1   
    21   13   14 ar  
    22   13   19 ar  
    23   14   15 ar  
    24   14   44 1   
    25   15   16 ar  
    26   15   45 1   
    27   16   17 ar  
    28   16   46 1   
    29   17   18 1   
    30   17   19 ar  
    31   18   47 1   
    32   18   48 1   
    33   19   49 1   
    34   20   21 ar  
    35   20   32 ar  
    36   21   22 1   
    37   21   23 ar  
    38   23   24 1   
    39   23   27 ar  
    40   24   25 1   
    41   25   26 1   
    42   25   50 1   
    43   25   51 1   
    44   26   52 1   
    45   26   53 1   
    46   26   54 1   
    47   27   28 ar  
    48   27   55 1   
    49   28   29 1   
    50   28   32 ar  
    51   29   30 1   
    52   30   31 1   
    53   30   56 1   
    54   30   57 1   
    55   31   58 1   
    56   31   59 1   
    57   31   60 1   
    58   32   61 1   
    59   33   34 ar  
    60   33   62 1   
    61   34   35 ar  
    62   34   63 1   
    63   35   36 1   
    64   36   37 2   
    65   36   38 1   
    66   37   64 1   
    67   38   65 1   
    68   38   66 1   
@<TRIPOS>SUBSTRUCTURE
     1 905         1 TEMP              0 ****  ****    0 ROOT
