@<TRIPOS>MOLECULE
905
   68    69     1     0     0
SMALL
bcc


@<TRIPOS>ATOM
      1 O1          0.1610    0.0290   -0.5750 oh        1 905     -0.548100
      2 C1          1.5040   -0.0460   -0.2940 ca        1 905      0.218100
      3 C2          1.9620   -0.3340    0.9920 ca        1 905     -0.282000
      4 C3          3.3560   -0.4260    1.2460 ca        1 905      0.280600
      5 N1          3.7860   -0.6270    2.5420 nh        1 905     -0.749600
      6 C4          5.1700   -0.8240    2.8860 c3        1 905      0.219800
      7 C5          5.3850   -0.6210    4.4070 c         1 905      0.618100
      8 O2          4.4830   -0.6740    5.2460 o         1 905     -0.498100
      9 N2          6.7220   -0.3350    4.8340 n         1 905     -0.714000
     10 S1          7.1720    2.0070    5.4040 s4        1 905      1.671300
     11 O3          8.2730    1.9980    4.6110 o         1 905     -0.425900
     12 O4          5.9680    2.4350    4.9500 o         1 905     -0.425900
     13 C6          7.3610    1.7530    6.9280 ca        1 905     -0.556500
     14 C7          8.6410    1.5000    7.4720 ca        1 905     -0.027000
     15 C8          8.8050    1.3220    8.8400 ca        1 905     -0.105000
     16 C9          7.7200    1.3810    9.7020 ca        1 905     -0.059000
     17 C10         6.4040    1.6230    9.2000 ca        1 905      0.197600
     18 N3          5.3220    1.6310   10.0400 nh        1 905     -0.853200
     19 C11         6.2550    1.8100    7.8100 ca        1 905     -0.100000
     20 C12         5.7550   -2.1800    2.5540 ca        1 905     -0.133300
     21 C13         7.0970   -2.2470    2.1270 ca        1 905      0.013900
     22 F1          7.8430   -1.1150    2.0320 f         1 905     -0.139900
     23 C14         7.6710   -3.5030    1.7960 ca        1 905      0.175100
     24 O5          8.9780   -3.4450    1.3980 os        1 905     -0.312900
     25 C15         9.5960   -4.6930    1.0200 c3        1 905      0.128400
     26 C16        11.0030   -4.3370    0.6040 c3        1 905     -0.104100
     27 C17         6.9100   -4.6730    1.9010 ca        1 905     -0.254000
     28 C18         5.5830   -4.5870    2.3370 ca        1 905      0.187100
     29 O6          4.7390   -5.6560    2.4800 os        1 905     -0.320900
     30 C19         5.2930   -6.9610    2.2200 c3        1 905      0.126400
     31 C20         4.1780   -7.9400    2.5010 c3        1 905     -0.104100
     32 C21         5.0040   -3.3430    2.6690 ca        1 905     -0.168000
     33 C22         4.2510   -0.2570    0.1510 ca        1 905     -0.221000
     34 C23         3.7730    0.0370   -1.1110 ca        1 905     -0.008000
     35 C24         2.3960    0.1600   -1.3660 ca        1 905     -0.344900
     36 C25         1.9600    0.5690   -2.7090 ce        1 905      0.617800
     37 N4          2.3870    1.5000   -3.4770 n2        1 905     -0.724100
     38 N5          0.8340   -0.2670   -3.2530 n4        1 905     -0.819600
     39 HO1        -0.3430    0.0140    0.2560 ho        1 905      0.469000
     40 H2          1.2330   -0.4760    1.8050 ha        1 905      0.163000
     41 HN1         3.1140   -0.9360    3.2140 hn        1 905      0.459800
     42 H4          5.7700   -0.0280    2.3380 h1        1 905      0.106700
     43 HN2         6.9290   -0.8010    5.7040 hn        1 905      0.314500
     44 H7          9.5210    1.4570    6.8040 ha        1 905      0.174000
     45 H8          9.8160    1.1350    9.2480 ha        1 905      0.182000
     46 H9          7.8780    1.2390   10.7870 ha        1 905      0.177000
     47 HN31        4.4350    1.9080    9.6990 hn        1 905      0.451800
     48 HN32        5.4650    1.6080   11.0210 hn        1 905      0.451800
     49 H11         5.2520    2.0090    7.3880 ha        1 905      0.170000
     50 H151        9.5890   -5.3850    1.9030 h1        1 905      0.048200
     51 H152        9.0180   -5.1450    0.1720 h1        1 905      0.048200
     52 H161       10.9910   -3.6220   -0.2530 hc        1 905      0.062367
     53 H162       11.5560   -3.8630    1.4510 hc        1 905      0.062367
     54 H163       11.5340   -5.2700    0.2960 hc        1 905      0.062367
     55 H17         7.3550   -5.6460    1.6440 ha        1 905      0.170000
     56 H191        5.6220   -7.0100    1.1480 h1        1 905      0.047700
     57 H192        6.1690   -7.1300    2.8980 h1        1 905      0.047700
     58 H201        4.5520   -8.9760    2.3150 hc        1 905      0.061033
     59 H202        3.3030   -7.7420    1.8370 hc        1 905      0.061033
     60 H203        3.8410   -7.8580    3.5620 hc        1 905      0.061033
     61 H21         3.9610   -3.3280    3.0190 ha        1 905      0.162000
     62 H22         5.3370   -0.3690    0.2960 ha        1 905      0.164000
     63 H23         4.4920    0.1720   -1.9380 ha        1 905      0.155000
     64 HN4         3.1180    2.0920   -3.1420 hn        1 905      0.480400
     65 HN51       -0.0170   -0.0420   -2.7170 hn        1 905      0.474467
     66 HN52        1.0670   -1.2540   -3.1110 hn        1 905      0.474467
     67 H221        7.4080   -0.5740    4.1330 hn        1 905      0.314500
     68 H53         0.6670   -0.0870   -4.2510 hn        1 905      0.474467
@<TRIPOS>BOND
     1    1    2 1   
     2    1   39 1   
     3    2    3 ar  
     4    2   35 ar  
     5    3    4 ar  
     6    3   40 1   
     7    4    5 1   
     8    4   33 ar  
     9    5    6 1   
    10    5   41 1   
    11    6    7 1   
    12    6   20 1   
    13    6   42 1   
    14    7    8 2   
    15    7    9 1   
    16    9   43 1   
    17    9   67 1   
    18   10   11 1   
    19   10   12 1   
    20   10   13 1   
    21   13   14 ar  
    22   13   19 ar  
    23   14   15 ar  
    24   14   44 1   
    25   15   16 ar  
    26   15   45 1   
    27   16   17 ar  
    28   16   46 1   
    29   17   18 1   
    30   17   19 ar  
    31   18   47 1   
    32   18   48 1   
    33   19   49 1   
    34   20   21 ar  
    35   20   32 ar  
    36   21   22 1   
    37   21   23 ar  
    38   23   24 1   
    39   23   27 ar  
    40   24   25 1   
    41   25   26 1   
    42   25   50 1   
    43   25   51 1   
    44   26   52 1   
    45   26   53 1   
    46   26   54 1   
    47   27   28 ar  
    48   27   55 1   
    49   28   29 1   
    50   28   32 ar  
    51   29   30 1   
    52   30   31 1   
    53   30   56 1   
    54   30   57 1   
    55   31   58 1   
    56   31   59 1   
    57   31   60 1   
    58   32   61 1   
    59   33   34 ar  
    60   33   62 1   
    61   34   35 ar  
    62   34   63 1   
    63   35   36 1   
    64   36   37 2   
    65   36   38 1   
    66   37   64 1   
    67   38   65 1   
    68   38   66 1   
    69   38   68 1   
@<TRIPOS>SUBSTRUCTURE
     1 905         1 TEMP              0 ****  ****    0 ROOT
