@<TRIPOS>MOLECULE
905
   68    69     1     0     0
SMALL
bcc


@<TRIPOS>ATOM
      1 O1          0.1720    0.0120   -0.5970 oh        1 905     -0.548100
      2 C1          1.5160   -0.0620   -0.3120 ca        1 905      0.218100
      3 C2          1.9700   -0.3430    0.9770 ca        1 905     -0.282000
      4 C3          3.3630   -0.4350    1.2350 ca        1 905      0.280600
      5 N1          3.7890   -0.6300    2.5330 nu        1 905     -0.749600
      6 C4          5.1720   -0.8250    2.8820 c3        1 905      0.219800
      7 C5          5.3830   -0.6140    4.4020 c         1 905      0.619100
      8 O2          4.4780   -0.6610    5.2390 o         1 905     -0.498100
      9 N2          6.7180   -0.3280    4.8330 nt        1 905     -0.714000
     10 S1          7.1710    2.0170    5.3890 s4        1 905      1.671300
     11 O3          8.2790    1.9980    4.6050 o         1 905     -0.425900
     12 O4          5.9730    2.4450    4.9220 o         1 905     -0.425900
     13 C6          7.3480    1.7740    6.9170 ca        1 905     -0.556500
     14 C7          8.6230    1.5210    7.4720 ca        1 905     -0.027000
     15 C8          8.7760    1.3520    8.8430 ca        1 905     -0.105000
     16 C9          7.6840    1.4220    9.6960 ca        1 905     -0.059000
     17 C10         6.3730    1.6640    9.1820 ca        1 905      0.197600
     18 N3          5.2850    1.6820   10.0140 nv        1 905     -0.853200
     19 C11         6.2360    1.8410    7.7900 ca        1 905     -0.100000
     20 C12         5.7580   -2.1830    2.5590 ca        1 905     -0.133300
     21 C13         7.1010   -2.2510    2.1340 ca        1 905      0.013900
     22 F1          7.8470   -1.1200    2.0350 f         1 905     -0.139900
     23 C14         7.6750   -3.5090    1.8110 ca        1 905      0.175100
     24 O5          8.9830   -3.4530    1.4150 os        1 905     -0.312900
     25 C15         9.6020   -4.7020    1.0440 c3        1 905      0.128400
     26 C16        11.0100   -4.3480    0.6290 c3        1 905     -0.104100
     27 C17         6.9150   -4.6790    1.9210 ca        1 905     -0.254000
     28 C18         5.5870   -4.5910    2.3540 ca        1 905      0.187100
     29 O6          4.7430   -5.6590    2.5010 os        1 905     -0.320900
     30 C19         5.2980   -6.9650    2.2480 c3        1 905      0.126400
     31 C20         4.1830   -7.9430    2.5330 c3        1 905     -0.104100
     32 C21         5.0070   -3.3450    2.6790 ca        1 905     -0.168000
     33 C22         4.2610   -0.2700    0.1420 ca        1 905     -0.221000
     34 C23         3.7870    0.0170   -1.1230 ca        1 905     -0.008000
     35 C24         2.4100    0.1400   -1.3830 ca        1 905     -0.344900
     36 C25         1.9780    0.5420   -2.7290 ce        1 905      0.617800
     37 N4          2.4070    1.4700   -3.4990 n2        1 905     -0.724100
     38 N5          0.8540   -0.2970   -3.2720 nz        1 905     -0.819600
     39 HO1        -0.3340    0.0010    0.2320 ho        1 905      0.469000
     40 H2          1.2380   -0.4820    1.7880 ha        1 905      0.163000
     41 HN1         3.1150   -0.9360    3.2050 hn        1 905      0.459800
     42 H4          5.7730   -0.0310    2.3330 h1        1 905      0.106700
     43 HN2         7.4070   -0.5720    4.1360 hn        1 905      0.314500
     44 H7          9.5080    1.4710    6.8110 ha        1 905      0.174000
     45 H8          9.7820    1.1650    9.2600 ha        1 905      0.182000
     46 H9          7.8320    1.2870   10.7830 ha        1 905      0.177000
     47 HN31        4.4010    1.9600    9.6630 hn        1 905      0.451800
     48 HN32        5.4200    1.6650   10.9950 hn        1 905      0.451800
     49 H11         5.2370    2.0400    7.3580 ha        1 905      0.170000
     50 H151        9.0260   -5.1590    0.1980 h1        1 905      0.048200
     51 H152        9.5950   -5.3890    1.9310 h1        1 905      0.048200
     52 H161       10.9990   -3.6370   -0.2320 hc        1 905      0.062367
     53 H162       11.5610   -3.8690    1.4740 hc        1 905      0.062367
     54 H163       11.5420   -5.2820    0.3270 hc        1 905      0.062367
     55 H17         7.3610   -5.6520    1.6690 ha        1 905      0.170000
     56 H191        5.6290   -7.0190    1.1780 h1        1 905      0.047700
     57 H192        6.1730   -7.1310    2.9300 h1        1 905      0.047700
     58 H201        3.3090   -7.7490    1.8670 hc        1 905      0.061033
     59 H202        4.5580   -8.9790    2.3530 hc        1 905      0.061033
     60 H203        3.8440   -7.8560    3.5940 hc        1 905      0.061033
     61 H21         3.9640   -3.3280    3.0260 ha        1 905      0.162000
     62 H22         5.3470   -0.3820    0.2900 ha        1 905      0.164000
     63 H23         4.5080    0.1480   -1.9480 ha        1 905      0.155000
     64 HN4         3.1370    2.0630   -3.1650 hn        1 905      0.480400
     65 HN51        0.0020   -0.0710   -2.7400 hn        1 905      0.474467
     66 HN52        1.0880   -1.2830   -3.1250 hn        1 905      0.474467
     67 H221        6.9220   -0.7890    5.7050 hn        1 905      0.314500
     68 H53         0.6900   -0.1210   -4.2710 hn        1 905      0.474467
@<TRIPOS>BOND
     1    1    2 1   
     2    1   39 1   
     3    2    3 ar  
     4    2   35 ar  
     5    3    4 ar  
     6    3   40 1   
     7    4    5 1   
     8    4   33 ar  
     9    5    6 1   
    10    5   41 1   
    11    6    7 1   
    12    6   20 1   
    13    6   42 1   
    14    7    8 2   
    15    7    9 1   
    16    9   43 1   
    17    9   67 1   
    18   10   11 1   
    19   10   12 1   
    20   10   13 1   
    21   13   14 ar  
    22   13   19 ar  
    23   14   15 ar  
    24   14   44 1   
    25   15   16 ar  
    26   15   45 1   
    27   16   17 ar  
    28   16   46 1   
    29   17   18 1   
    30   17   19 ar  
    31   18   47 1   
    32   18   48 1   
    33   19   49 1   
    34   20   21 ar  
    35   20   32 ar  
    36   21   22 1   
    37   21   23 ar  
    38   23   24 1   
    39   23   27 ar  
    40   24   25 1   
    41   25   26 1   
    42   25   50 1   
    43   25   51 1   
    44   26   52 1   
    45   26   53 1   
    46   26   54 1   
    47   27   28 ar  
    48   27   55 1   
    49   28   29 1   
    50   28   32 ar  
    51   29   30 1   
    52   30   31 1   
    53   30   56 1   
    54   30   57 1   
    55   31   58 1   
    56   31   59 1   
    57   31   60 1   
    58   32   61 1   
    59   33   34 ar  
    60   33   62 1   
    61   34   35 ar  
    62   34   63 1   
    63   35   36 1   
    64   36   37 2   
    65   36   38 1   
    66   37   64 1   
    67   38   65 1   
    68   38   66 1   
    69   38   68 1   
@<TRIPOS>SUBSTRUCTURE
     1 905         1 TEMP              0 ****  ****    0 ROOT
