@<TRIPOS>MOLECULE
906
   62    77     1     0     0
SMALL
bcc


@<TRIPOS>ATOM
      1 CAA         0.0000    0.0000    0.0000 c3        1 906      0.261000
      2 CAB        12.1280    1.5170    2.2130 c3        1 906     -0.299000
      3 CAE         3.9750   -0.0000    2.6260 c2        1 906      0.035000
      4 CAF        20.2110    8.3380    1.4540 c2        1 906     -0.416000
      5 CAG        19.4190    7.2740    1.8260 c2        1 906     -0.322000
      6 CAH         5.2710    0.1410    4.9810 c3        1 906      0.030000
      7 CAI         5.8720    0.1210    2.6400 DU        1 906      0.084000
      8 CAJ         6.6060    0.1650    5.3200 c2        1 906     -0.099000
      9 CAK         7.2050    0.1460    2.9870 c2        1 906     -0.164000
     10 CAL        21.0440    5.8080    0.8580 c2        1 906     -0.363000
     11 CAM         1.5310    0.0000    0.0000 c3        1 906      0.429000
     12 CAN         9.8370    0.1920    3.5910 DU        1 906      0.069000
     13 CAO        11.2550    0.2200    4.1630 c3        1 906     -0.378000
     14 CAP        13.6850    0.1250    3.5840 DU        1 906      0.228000
     15 CAQ        14.6880   -0.0000    2.4370 c2        1 906      0.064000
     16 CAR        17.6360    1.4060    2.4790 DU        1 906     -0.422000
     17 CAS        18.2530    2.6540    1.8210 c3        1 906      0.085000
     18 NAT         3.4190   -0.0000    1.4580 n2        1 906     -0.038000
     19 NAU        21.3530    8.1450    0.8210 n2        1 906      0.592000
     20 OAV         2.0070    0.0000    1.3460 os        1 906     -0.339000
     21 OAW         8.8910    0.1910    4.6640 os        1 906     -0.160000
     22 CAX        16.0580    2.4560    1.1930 c2        1 906      0.251000
     23 CAY        21.7850    6.9300    0.5160 c2        1 906     -0.211000
     24 CAZ         4.8930    0.1190    3.6360 c3        1 906     -0.086000
     25 CBA         7.5770    0.1670    4.3260 c2        1 906      0.072000
     26 CBB        19.8350    5.9760    1.5260 c2        1 906     -0.169000
     27 CBC        12.2670    0.2220    3.0150 DU        1 906     -0.774000
     28 NBD        16.2460    1.4020    1.9970 ny        1 906     -0.094000
     29 NBE        17.1460    3.2220    1.0360 n2        1 906     -0.298000
     30 HAA         1.0670    0.1860    0.0250 hc        1 906     -0.288333
     31 HAAA        1.0650    0.2000   -0.0080 hc        1 906     -0.288333
     32 HAAB       -0.3610   -0.8790    0.5200 hc        1 906     -0.288333
     33 HAB        11.0890    1.3870    1.9350 hc        1 906      0.171333
     34 HABA       11.0570    1.4640    2.0600 hc        1 906      0.171333
     35 HABB       12.8120    1.4970    1.3730 hc        1 906      0.171333
     36 HNAC       22.6070    5.8560   -0.1900 hn        1 906      0.266000
     37 HNAA       22.6320    5.8460   -0.1100 hn        1 906      0.266000
     38 HAE         5.0080    0.2350    2.3990 DU        1 906      0.054000
     39 HAF        21.2700    8.3550    1.2260 h4        1 906      0.054000
     40 HAG        19.1530    6.2570    1.5660 DU        1 906      0.260000
     41 HAH         6.3500    0.2310    5.0030 hc        1 906      0.094000
     42 HAI         6.9510    0.0910    2.7330 ha        1 906     -0.089000
     43 HAJ         5.5460    0.1520    5.5430 DU        1 906      0.113000
     44 HAK         6.3840    0.1250    2.2810 DU        1 906      0.033000
     45 HAL        20.5410    4.9430    0.4410 ha        1 906      0.225000
     46 HAM         2.6060   -0.0000    0.1300 h1        1 906      0.241500
     47 HAMA        2.5970    0.1860    0.0260 h1        1 906      0.241500
     48 HAN         8.8660    0.0620    3.1280 ha        1 906      0.105000
     49 HANA        8.8630    0.2810    3.1250 ha        1 906      0.105000
     50 HAO        10.4760   -0.2460    3.5730 DU        1 906      0.127500
     51 HAOA       10.4620    0.6480    3.5620 DU        1 906      0.127500
     52 HAP        13.1720   -0.3100    4.4330 ha        1 906      0.084000
     53 HAPA       12.7010    0.0230    4.0260 DU        1 906      0.462000
     54 HAQ        14.2200   -0.3780    3.3380 DU        1 906     -0.057500
     55 HAQA       14.2940    0.5130    3.3050 DU        1 906     -0.057500
     56 HAR        16.8770    0.6320    2.5000 DU        1 906      0.232000
     57 HARA       16.6560    1.0570    2.1760 DU        1 906      0.232000
     58 HAS        18.1890    1.5780    1.9320 DU        1 906      0.132500
     59 HASA       17.9200    2.1170    2.7000 DU        1 906      0.132500
     60 HBC        13.3260   -0.0040    3.0330 ha        1 906      0.089000
     61 OAD        14.9950    2.6960    0.6540 o         1 906     -0.336000
     62 NAC        22.9950    6.7770   -0.1520 nv        1 906     -0.354000
@<TRIPOS>BOND
     1    1   11 1   
     2    1   30 1   
     3    1   31 1   
     4    1   32 1   
     5    2   27 1   
     6    2   33 1   
     7    2   34 1   
     8    2   35 1   
     9    3   18 1   
    10    3   24 1   
    11    3   38 1   
    12    4    5 1   
    13    4   19 1   
    14    4   39 1   
    15    5   26 1   
    16    5   40 1   
    17    6    8 1   
    18    6   24 1   
    19    6   41 1   
    20    6   43 1   
    21    7    9 1   
    22    7   24 1   
    23    7   38 1   
    24    7   42 1   
    25    7   44 1   
    26    8   25 1   
    27    8   43 1   
    28    9   25 1   
    29    9   44 1   
    30   10   23 1   
    31   10   26 1   
    32   10   45 1   
    33   11   20 1   
    34   11   46 1   
    35   11   47 1   
    36   12   13 1   
    37   12   21 1   
    38   12   48 1   
    39   12   49 1   
    40   12   50 1   
    41   12   51 1   
    42   13   27 1   
    43   13   50 1   
    44   13   51 1   
    45   14   15 1   
    46   14   27 1   
    47   14   52 1   
    48   14   53 1   
    49   14   54 1   
    50   14   55 1   
    51   15   54 1   
    52   15   55 1   
    53   16   17 1   
    54   16   28 1   
    55   16   56 1   
    56   16   57 1   
    57   16   58 1   
    58   16   59 1   
    59   17   29 1   
    60   17   58 1   
    61   17   59 1   
    62   18   20 1   
    63   19   23 1   
    64   21   25 1   
    65   22   28 1   
    66   22   29 1   
    67   22   61 1   
    68   23   62 1   
    69   24   38 1   
    70   26   40 1   
    71   27   53 1   
    72   27   60 1   
    73   28   56 1   
    74   28   57 1   
    75   36   62 1   
    76   37   62 1   
    77   56   57 1   
@<TRIPOS>SUBSTRUCTURE
     1 906         1 TEMP              0 ****  ****    0 ROOT
