@<TRIPOS>MOLECULE
907
   35    26     1     0     0
SMALL
bcc


@<TRIPOS>ATOM
      1 C1          0.4660    0.2750   -3.4900 c1        1 907     -0.223000
      2 C2          1.8350    0.5460   -3.4740 c1        1 907     -0.126500
      3 C3          2.4790    0.7620   -2.2790 c1        1 907     -0.126500
      4 C4          1.7680    0.7100   -1.0930 c1        1 907      0.005000
      5 C5          0.4190    0.4430   -1.1140 c1        1 907      0.005000
      6 C6         -0.2300    0.2240   -2.3250 c1        1 907     -0.082000
      7 C7         -0.3480   -0.7540   -4.2600 c2        1 907      0.352000
      8 N1          0.0100   -2.1150   -4.2100 n3        1 907     -0.352000
      9 N2         -1.3940   -0.3720   -4.9780 n2        1 907     -0.349000
     10 N3          2.1410    0.8790    0.2000 n1        1 907     -0.179000
     11 CN4        -0.0280    0.4480    0.1600 c1        1 907     -0.319000
     12 C8          1.0360    0.7190    0.9810 c2        1 907      0.188000
     13 C1'         0.3320    0.6930    2.2220 c1        1 907     -0.310000
     14 C2'         0.0310   -0.5420    2.8240 c1        1 907     -0.002000
     15 C3'        -0.8240   -0.5960    3.9270 c1        1 907     -0.222000
     16 CV'        -1.1300   -1.9380    4.5840 c2        1 907     -0.145000
     17 C4'        -1.3870    0.5880    4.4390 c2        1 907     -0.019000
     18 C5'        -1.0850    1.8360    3.8340 c1        1 907     -0.293000
     19 C6'        -0.2310    1.8840    2.7340 c1        1 907      0.321000
     20 O6'         0.1360    3.1520    2.1650 o         1 907     -0.460000
     21 BR5'       -1.8990    3.4520    4.4930 br        1 907      0.014000
     22 HC2         2.3180    0.5810   -4.2840 ha        1 907      0.133500
     23 HC3         3.4040    0.9440   -2.2680 ha        1 907      0.133500
     24 HC6        -1.2050    0.0310   -2.3380 ha        1 907      0.126000
     25 HH11       -0.6750   -2.7510   -4.1020 hn        1 907      0.260500
     26 HH12        0.8580   -2.3850   -4.5530 hn        1 907      0.260500
     27 HH21       -1.6410    0.5040   -5.0210 DU        1 907      0.246667
     28 HH22       -1.9110   -1.0510   -5.4720 hn        1 907      0.245000
     29 HN3         2.9910    1.0710    0.4980 DU        1 907      0.246667
     30 HCN4       -0.9650    0.2850    0.4500 DU        1 907      0.246667
     31 HC2'        0.3450   -1.3930    2.3950 ha        1 907      0.107000
     32 H32'       -1.5860   -1.8000    5.3780 ha        1 907      0.063667
     33 H33'       -1.6940   -2.4880    3.9670 ha        1 907      0.063667
     34 H34'       -0.3200   -2.3930    4.7610 ha        1 907      0.063667
     35 HC4'       -2.0130    0.5490    5.2470 ha        1 907      0.124000
@<TRIPOS>BOND
     1    1    6 1   
     2    1    7 1   
     3    2    3 1   
     4    2   22 1   
     5    3   23 1   
     6    4    5 1   
     7    6   24 1   
     8    7    8 1   
     9    7    9 1   
    10    8   25 1   
    11    8   26 1   
    12    9   28 1   
    13   10   12 1   
    14   11   12 1   
    15   12   13 1   
    16   13   19 1   
    17   14   15 1   
    18   14   31 1   
    19   15   17 1   
    20   16   32 1   
    21   16   33 1   
    22   16   34 1   
    23   17   18 1   
    24   17   35 1   
    25   18   21 1   
    26   19   20 1   
@<TRIPOS>SUBSTRUCTURE
     1 907         1 TEMP              0 ****  ****    0 ROOT
