@<TRIPOS>MOLECULE
907
   35    37     1     0     0
SMALL
bcc


@<TRIPOS>ATOM
      1 C1         -4.9250   -0.2400   -0.0100 ca        1 907     -0.295900
      2 C2         -4.9790    1.1700    0.0720 ca        1 907     -0.121000
      3 C3         -3.8240    1.9360    0.0530 ca        1 907     -0.144000
      4 C4         -2.5900    1.2800   -0.0390 ca        1 907      0.034000
      5 C5         -2.5190   -0.1860   -0.1180 ca        1 907     -0.040000
      6 C6         -3.6930   -0.9180   -0.1050 ca        1 907     -0.082000
      7 C7         -6.1670   -1.0150   -0.0000 ce        1 907      0.530400
      8 N1         -7.2120   -0.5990    0.7670 nh        1 907     -0.501100
      9 N2         -6.2580   -2.1390   -0.7630 nh        1 907     -0.485200
     10 N3         -1.2980    1.7610   -0.0730 na        1 907     -0.234600
     11 CN4        -1.1400   -0.5280   -0.1970 cc        1 907     -0.264000
     12 C8         -0.3850    0.6730   -0.1740 cc        1 907      0.150900
     13 C1'         1.0250    0.8480   -0.2400 cd        1 907     -0.330200
     14 C2'         1.6170    2.1160   -0.0650 cd        1 907     -0.021000
     15 C3'         2.9760    2.3140   -0.1390 cc        1 907     -0.222200
     16 CV'         3.5900    3.6450    0.0510 c3        1 907     -0.022900
     17 C4'         3.8170    1.1990   -0.4030 cc        1 907     -0.027000
     18 C5'         3.3030   -0.0520   -0.5750 cd        1 907     -0.180500
     19 C6'         1.8630   -0.3180   -0.4960 c         1 907      0.601500
     20 O6'         1.3950   -1.4710   -0.6460 o         1 907     -0.656100
     21 BR5'        4.4970   -1.4660   -0.9180 br        1 907     -0.114700
     22 HC2        -5.9480    1.6890    0.1090 ha        1 907      0.116000
     23 HC3        -3.8810    3.0320    0.1030 ha        1 907      0.141000
     24 HC6        -3.6360   -2.0150   -0.1290 ha        1 907      0.132000
     25 HH11       -7.0880    0.2140    1.3290 hn        1 907      0.311700
     26 HH12       -8.0940   -1.0530    0.7740 hn        1 907      0.311700
     27 HH21       -7.0420   -2.7460   -0.7420 hn        1 907      0.311700
     28 HH22       -5.4700   -2.3950   -1.3190 hn        1 907      0.311700
     29 HN3        -1.0430    2.7140   -0.0460 hn        1 907      0.302700
     30 HCN4       -0.7110   -1.5270   -0.2700 ha        1 907      0.206000
     31 HC2'        0.9860    2.9940    0.1510 ha        1 907      0.085000
     32 H32'        4.1680    3.9440   -0.8600 hc        1 907      0.024033
     33 H33'        2.8160    4.4270    0.2460 hc        1 907      0.024033
     34 H34'        4.2980    3.6300    0.9180 hc        1 907      0.024033
     35 HC4'        4.9030    1.3830   -0.4620 ha        1 907      0.123000
@<TRIPOS>BOND
     1    1    2 ar  
     2    1    6 ar  
     3    1    7 1   
     4    2    3 ar  
     5    2   22 1   
     6    3    4 ar  
     7    3   23 1   
     8    4    5 ar  
     9    4   10 2   
    10    5    6 ar  
    11    5   11 2   
    12    6   24 1   
    13    7    8 2   
    14    7    9 1   
    15    8   25 1   
    16    8   26 1   
    17    9   27 1   
    18    9   28 1   
    19   10   12 1   
    20   10   29 1   
    21   11   12 1   
    22   11   30 1   
    23   12   13 2   
    24   13   14 1   
    25   13   19 1   
    26   14   15 2   
    27   14   31 1   
    28   15   16 1   
    29   15   17 1   
    30   16   32 1   
    31   16   33 1   
    32   16   34 1   
    33   17   18 2   
    34   17   35 1   
    35   18   19 1   
    36   18   21 1   
    37   19   20 2   
@<TRIPOS>SUBSTRUCTURE
     1 907         1 TEMP              0 ****  ****    0 ROOT
