@<TRIPOS>MOLECULE
910
   42    36     1     0     0
SMALL
bcc


@<TRIPOS>ATOM
      1 S1          2.9330    1.7610    1.0170 ss        1 910      0.576000
      2 C2          4.3520    1.4250    0.4680 c1        1 910     -0.423000
      3 C3          4.4230   -0.0150    0.2610 c1        1 910      0.095000
      4 C4          3.0170   -0.6510    0.6830 c1        1 910     -0.187000
      5 C5          2.1430    0.4250    1.1310 c2        1 910     -0.432000
      6 C6          5.4360    2.4300    0.1220 c1        1 910      0.388000
      7 O7          6.1200    2.9580    1.0390 o         1 910     -0.553000
      8 O8          5.6170    2.7750   -1.0770 o         1 910     -0.553000
      9 C9          0.8020    0.2870    1.5440 c1        1 910      0.077000
     10 C10        -0.2300    0.4420    0.6230 c1        1 910     -0.182000
     11 C11        -1.5500    0.2610    1.0210 c1        1 910      0.001000
     12 C12        -1.8380   -0.0750    2.3370 c1        1 910     -0.173000
     13 C13        -0.8070   -0.2290    3.2570 c1        1 910     -0.128250
     14 C14         0.5130   -0.0480    2.8590 c1        1 910     -0.128250
     15 BR19        2.5630   -2.5030    0.6110 br        1 910      0.038000
     16 O20         5.4990   -0.7110   -0.3300 o         1 910     -0.170000
     17 C21         6.2370   -1.5120    0.5810 c3        1 910     -0.094000
     18 C22         7.2810   -2.3050   -0.1770 c2        1 910      0.337000
     19 O25         7.1940   -2.4270   -1.4280 o         1 910     -0.586000
     20 O26         8.2620   -2.7980    0.4360 o         1 910     -0.586000
     21 N29        -2.6310    0.5080    0.0820 n3        1 910     -0.258000
     22 C30        -3.5460   -0.5580   -0.2640 c3        1 910     -0.029000
     23 C31        -4.5670   -0.0420   -1.3040 c2        1 910     -0.113000
     24 C34        -5.9090   -0.3720   -1.1820 c2        1 910     -0.136000
     25 C35        -6.8130    0.0310   -2.1550 c1        1 910     -0.142000
     26 C36        -6.3750    0.7630   -3.2480 c1        1 910     -0.128250
     27 C37        -5.0330    1.0920   -3.3700 c1        1 910     -0.128250
     28 C38        -4.1290    0.6890   -2.3980 c1        1 910     -0.115000
     29 H10        -0.0280    0.6760   -0.2970 ha        1 910      0.142000
     30 H12        -2.7670   -0.2020    2.6180 ha        1 910      0.115000
     31 H13        -1.0100   -0.4660    4.1860 ha        1 910      0.133500
     32 H14         1.2340   -0.1560    3.5030 ha        1 910      0.133500
     33 H211        6.6780   -0.9370    1.2390 h1        1 910      0.093500
     34 H212        5.6290   -2.1290    1.0410 h1        1 910      0.093500
     35 HN29       -2.7500    1.3350   -0.2630 hn        1 910      0.172000
     36 H301       -3.0430   -1.3090   -0.6450 h1        1 910      0.092000
     37 H302       -4.0210   -0.8570    0.5410 h1        1 910      0.092000
     38 H34        -6.2170   -0.8870   -0.4130 ha        1 910      0.118000
     39 H35        -7.7470   -0.1980   -2.0700 ha        1 910      0.116000
     40 H36        -7.0130    1.0470   -3.9340 ha        1 910      0.133500
     41 H37        -4.7190    1.5630   -4.1600 ha        1 910      0.133500
     42 H38        -3.1940    0.9190   -2.4840 ha        1 910      0.165000
@<TRIPOS>BOND
     1    1    2 1   
     2    1    5 1   
     3    2    3 1   
     4    3    4 1   
     5    4    5 1   
     6    5    9 1   
     7    6    7 1   
     8    6    8 1   
     9    9   10 1   
    10   10   29 1   
    11   11   12 1   
    12   11   21 1   
    13   12   30 1   
    14   13   14 1   
    15   13   31 1   
    16   14   32 1   
    17   16   17 1   
    18   17   18 1   
    19   17   33 1   
    20   17   34 1   
    21   18   19 1   
    22   18   20 1   
    23   21   22 1   
    24   21   35 1   
    25   22   23 1   
    26   22   36 1   
    27   22   37 1   
    28   23   24 1   
    29   23   28 1   
    30   24   25 1   
    31   24   38 1   
    32   25   39 1   
    33   26   27 1   
    34   26   40 1   
    35   27   41 1   
    36   28   42 1   
@<TRIPOS>SUBSTRUCTURE
     1 910         1 TEMP              0 ****  ****    0 ROOT
