@<TRIPOS>MOLECULE
910
   42    44     1     0     0
SMALL
bcc


@<TRIPOS>ATOM
      1 S1         -0.0510    0.0850    0.4130 ss        1 910      0.033200
      2 C2          1.5860   -0.2480    0.4730 cc        1 910     -0.172700
      3 C3          1.9930   -0.5310    1.7700 cd        1 910      0.139100
      4 C4          0.8870   -0.4390    2.7000 cd        1 910     -0.044900
      5 C5         -0.2980   -0.0900    2.0570 cc        1 910     -0.159100
      6 C6          2.3610   -0.1780   -0.8290 c         1 910      0.939200
      7 O7          3.1450    0.7930   -1.0030 o         1 910     -0.818300
      8 O8          2.1130   -1.0570   -1.7020 o         1 910     -0.818300
      9 C9         -1.5980    0.1070    2.6510 ca        1 910      0.083000
     10 C10        -2.7140   -0.5480    2.1140 ca        1 910     -0.177000
     11 C11        -4.0000   -0.3640    2.6650 ca        1 910      0.101600
     12 C12        -4.1480    0.4860    3.7800 ca        1 910     -0.196000
     13 C13        -3.0340    1.1370    4.3060 ca        1 910     -0.118000
     14 C14        -1.7710    0.9600    3.7550 ca        1 910     -0.140000
     15 Br19        1.0110   -0.7890    4.5200 br        1 910     -0.102100
     16 O20         3.2100   -0.8680    2.2800 os        1 910     -0.286900
     17 C21         4.2790   -1.0590    1.3370 c3        1 910      0.006400
     18 C22         5.4890   -1.5850    2.1500 c         1 910      0.917600
     19 O25         5.6930   -2.8320    2.1670 o         1 910     -0.851800
     20 O26         6.2500   -0.7460    2.7090 o         1 910     -0.851800
     21 N29        -5.1240   -0.9720    2.0480 nu        1 910     -0.711600
     22 C30        -6.1830   -1.3950    2.9460 c3        1 910      0.217100
     23 C31        -7.0820   -2.4490    2.3690 ca        1 910     -0.088300
     24 C34        -7.3970   -3.5840    3.1220 ca        1 910     -0.118000
     25 C35        -8.2610   -4.5500    2.6080 ca        1 910     -0.136500
     26 C36        -8.8110   -4.3910    1.3370 ca        1 910     -0.137000
     27 C37        -8.4960   -3.2630    0.5800 ca        1 910     -0.136500
     28 C38        -7.6360   -2.2930    1.0930 ca        1 910     -0.118000
     29 H10        -2.5660   -1.2140    1.2490 ha        1 910      0.143000
     30 H12        -5.1340    0.6480    4.2350 ha        1 910      0.111000
     31 H13        -3.1620    1.8040    5.1720 ha        1 910      0.112000
     32 H14        -0.8990    1.4820    4.1760 ha        1 910      0.150000
     33 H211        4.5120   -0.0770    0.8500 h1        1 910      0.053700
     34 H212        3.9620   -1.8030    0.5640 h1        1 910      0.053700
     35 HN29       -4.8450   -1.7080    1.4270 hn        1 910      0.383800
     36 H301       -5.7720   -1.7580    3.9350 h1        1 910      0.042700
     37 H302       -6.8120   -0.4820    3.1670 h1        1 910      0.042700
     38 H34        -6.9560   -3.7190    4.1220 ha        1 910      0.142000
     39 H35        -8.5020   -5.4420    3.2040 ha        1 910      0.125000
     40 H36        -9.4870   -5.1570    0.9300 ha        1 910      0.121000
     41 H37        -8.9220   -3.1390   -0.4260 ha        1 910      0.125000
     42 H38        -7.3860   -1.4030    0.4940 ha        1 910      0.142000
@<TRIPOS>BOND
     1    1    2 1   
     2    1    5 1   
     3    2    3 2   
     4    2    6 1   
     5    3    4 1   
     6    3   16 1   
     7    4    5 2   
     8    4   15 1   
     9    5    9 1   
    10    6    7 1   
    11    6    8 1   
    12    9   10 ar  
    13    9   14 ar  
    14   10   11 ar  
    15   10   29 1   
    16   11   12 ar  
    17   11   21 1   
    18   12   13 ar  
    19   12   30 1   
    20   13   14 ar  
    21   13   31 1   
    22   14   32 1   
    23   16   17 1   
    24   17   18 1   
    25   17   33 1   
    26   17   34 1   
    27   18   19 1   
    28   18   20 1   
    29   21   22 1   
    30   21   35 1   
    31   22   23 1   
    32   22   36 1   
    33   22   37 1   
    34   23   24 ar  
    35   23   28 ar  
    36   24   25 ar  
    37   24   38 1   
    38   25   26 ar  
    39   25   39 1   
    40   26   27 ar  
    41   26   40 1   
    42   27   28 ar  
    43   27   41 1   
    44   28   42 1   
@<TRIPOS>SUBSTRUCTURE
     1 910         1 TEMP              0 ****  ****    0 ROOT
