@<TRIPOS>MOLECULE
910
   42    44     1     0     0
SMALL
bcc


@<TRIPOS>ATOM
      1 S1          0.8970    1.5250    0.9630 ss        1 910      0.033200
      2 C2          2.4390    1.4800    0.3180 cc        1 910     -0.172700
      3 C3          2.7310    0.2250   -0.1980 cd        1 910      0.139100
      4 C4          1.6240   -0.6900   -0.0140 cd        1 910     -0.044900
      5 C5          0.5530   -0.0780    0.6330 cc        1 910     -0.159100
      6 C6          3.2670    2.7480    0.4020 c         1 910      0.939200
      7 O7          4.2270    2.7790    1.2180 o         1 910     -0.818300
      8 O8          2.8950    3.7340   -0.2950 o         1 910     -0.818300
      9 C9         -0.7110   -0.6700    0.9980 ca        1 910      0.083000
     10 C10        -1.9060   -0.0320    0.6420 ca        1 910     -0.177000
     11 C11        -3.1570   -0.5800    0.9980 ca        1 910      0.101600
     12 C12        -3.1900   -1.7940    1.7130 ca        1 910     -0.196000
     13 C13        -1.9970   -2.4200    2.0690 ca        1 910     -0.118000
     14 C14        -0.7680   -1.8730    1.7240 ca        1 910     -0.140000
     15 BR19        1.6030   -2.4500   -0.6070 br        1 910     -0.102100
     16 O20         3.8400   -0.2570   -0.8230 os        1 910     -0.286900
     17 C21         4.8930    0.6840   -1.0950 c3        1 910      0.006400
     18 C22         5.9470   -0.0730   -1.9420 c         1 910      0.917600
     19 O25         5.9120    0.0710   -3.1980 o         1 910     -0.851800
     20 O26         6.8290   -0.7510   -1.3420 o         1 910     -0.851800
     21 N29        -4.3480    0.1300    0.6980 nh        1 910     -0.711600
     22 C30        -5.5040   -0.6860    0.3760 c3        1 910      0.217100
     23 C31        -6.5600    0.0400   -0.4060 ca        1 910     -0.088300
     24 C34        -7.1130   -0.5540   -1.5460 ca        1 910     -0.118000
     25 C35        -8.1200    0.0970   -2.2570 ca        1 910     -0.136500
     26 C36        -8.5770    1.3470   -1.8390 ca        1 910     -0.137000
     27 C37        -8.0240    1.9440   -0.7060 ca        1 910     -0.136500
     28 C38        -7.0200    1.2940    0.0100 ca        1 910     -0.118000
     29 H10        -1.8500    0.9100    0.0740 ha        1 910      0.143000
     30 H12        -4.1460   -2.2490    2.0030 ha        1 910      0.111000
     31 H13        -2.0330   -3.3640    2.6330 ha        1 910      0.111000
     32 H14         0.1690   -2.3730    2.0120 ha        1 910      0.150000
     33 H211        5.3270    1.0340   -0.1240 h1        1 910      0.053700
     34 H212        4.4740    1.5540   -1.6620 h1        1 910      0.053700
     35 HN29       -4.1870    0.8380    0.0050 hn        1 910      0.383800
     36 H301       -5.2110   -1.6260   -0.1800 h1        1 910      0.042700
     37 H302       -5.9600   -1.0130    1.3570 h1        1 910      0.042700
     38 H34        -6.7480   -1.5350   -1.8850 ha        1 910      0.142000
     39 H35        -8.5490   -0.3740   -3.1530 ha        1 910      0.125000
     40 H36        -9.3660    1.8620   -2.4040 ha        1 910      0.121000
     41 H37        -8.3770    2.9330   -0.3790 ha        1 910      0.125000
     42 H38        -6.5830    1.7680    0.9030 ha        1 910      0.142000
@<TRIPOS>BOND
     1    1    2 1   
     2    1    5 1   
     3    2    3 2   
     4    2    6 1   
     5    3    4 1   
     6    3   16 1   
     7    4    5 2   
     8    4   15 1   
     9    5    9 1   
    10    6    7 1   
    11    6    8 1   
    12    9   10 ar  
    13    9   14 ar  
    14   10   11 ar  
    15   10   29 1   
    16   11   12 ar  
    17   11   21 1   
    18   12   13 ar  
    19   12   30 1   
    20   13   14 ar  
    21   13   31 1   
    22   14   32 1   
    23   16   17 1   
    24   17   18 1   
    25   17   33 1   
    26   17   34 1   
    27   18   19 1   
    28   18   20 1   
    29   21   22 1   
    30   21   35 1   
    31   22   23 1   
    32   22   36 1   
    33   22   37 1   
    34   23   24 ar  
    35   23   28 ar  
    36   24   25 ar  
    37   24   38 1   
    38   25   26 ar  
    39   25   39 1   
    40   26   27 ar  
    41   26   40 1   
    42   27   28 ar  
    43   27   41 1   
    44   28   42 1   
@<TRIPOS>SUBSTRUCTURE
     1 910         1 TEMP              0 ****  ****    0 ROOT
