@<TRIPOS>MOLECULE
910
   43    45     1     0     0
SMALL
bcc


@<TRIPOS>ATOM
      1 S1          0.0360    1.6140    1.0040 ss        1 910      0.105200
      2 C2          1.4460    0.7930    0.6700 cc        1 910     -0.143700
      3 C3          1.5680   -0.3220    1.4850 cd        1 910      0.061100
      4 C4          0.4560   -0.4650    2.3890 cd        1 910     -0.033900
      5 C5         -0.4650    0.5590    2.2040 cc        1 910     -0.128100
      6 C6          2.3960    1.3040   -0.3980 c         1 910      0.939200
      7 O7          2.7390    2.5140   -0.3330 o         1 910     -0.807800
      8 O8          2.7590    0.5020   -1.3030 o         1 910     -0.807800
      9 C9         -1.7160    0.7560    2.9060 ca        1 910      0.049000
     10 C10        -2.6920   -0.2470    2.9000 ca        1 910     -0.156000
     11 C11        -3.9270   -0.0550    3.5540 ca        1 910      0.120600
     12 C12        -4.1630    1.1770    4.2080 ca        1 910     -0.192000
     13 C13        -3.1840    2.1630    4.2140 ca        1 910     -0.107000
     14 C14        -1.9670    1.9660    3.5680 ca        1 910     -0.154000
     15 BR19        0.3050   -1.8010    3.6640 br        1 910     -0.081100
     16 O20         2.6560   -1.1640    1.5860 os        1 910     -0.291900
     17 C21         2.9930   -1.8780    0.4020 c3        1 910      0.070400
     18 C22         2.4590   -3.2880    0.4540 c         1 910      0.616100
     19 O25         1.1110   -3.4110    0.3130 oh        1 910     -0.593100
     20 O26         3.0900   -4.3470    0.5570 o         1 910     -0.587000
     21 N29        -4.8920   -1.0820    3.6360 nh        1 910     -0.717600
     22 C30        -4.8790   -2.0830    2.5870 c3        1 910      0.217100
     23 C31        -6.1670   -2.8460    2.4760 ca        1 910     -0.095300
     24 C34        -6.7370   -3.4470    3.6030 ca        1 910     -0.117500
     25 C35        -7.9170   -4.1810    3.4840 ca        1 910     -0.135000
     26 C36        -8.5300   -4.3230    2.2390 ca        1 910     -0.133000
     27 C37        -7.9630   -3.7270    1.1130 ca        1 910     -0.135000
     28 C38        -6.7860   -2.9890    1.2300 ca        1 910     -0.117500
     29 H10        -2.4700   -1.1940    2.3840 ha        1 910      0.147000
     30 H12        -5.1170    1.3580    4.7240 ha        1 910      0.120000
     31 H13        -3.3770    3.1120    4.7340 ha        1 910      0.121000
     32 H14        -1.1980    2.7530    3.5780 ha        1 910      0.141000
     33 H211        4.1160   -1.9260    0.4170 h1        1 910      0.123200
     34 H212        2.6260   -1.3590   -0.5310 h1        1 910      0.123200
     35 HN29        0.8630   -4.3470    0.3700 ho        1 910      0.424000
     36 H301       -4.6290   -1.6280    1.5820 h1        1 910      0.055200
     37 H302       -4.0530   -2.8140    2.8360 h1        1 910      0.055200
     38 H34        -6.2480   -3.3420    4.5840 ha        1 910      0.141500
     39 H35        -8.3610   -4.6510    4.3730 ha        1 910      0.128000
     40 H36        -9.4590   -4.9040    2.1460 ha        1 910      0.125000
     41 H37        -8.4430   -3.8390    0.1300 ha        1 910      0.128000
     42 H38        -6.3420   -2.5200    0.3380 ha        1 910      0.141500
     43 H292       -5.8110   -0.7230    3.8100 hn        1 910      0.382800
@<TRIPOS>BOND
     1    1    2 1   
     2    1    5 1   
     3    2    3 2   
     4    2    6 1   
     5    3    4 1   
     6    3   16 1   
     7    4    5 2   
     8    4   15 1   
     9    5    9 1   
    10    6    7 1   
    11    6    8 1   
    12    9   10 ar  
    13    9   14 ar  
    14   10   11 ar  
    15   10   29 1   
    16   11   12 ar  
    17   11   21 1   
    18   12   13 ar  
    19   12   30 1   
    20   13   14 ar  
    21   13   31 1   
    22   14   32 1   
    23   16   17 1   
    24   17   18 1   
    25   17   33 1   
    26   17   34 1   
    27   18   19 1   
    28   18   20 2   
    29   19   35 1   
    30   21   22 1   
    31   21   43 1   
    32   22   23 1   
    33   22   36 1   
    34   22   37 1   
    35   23   24 ar  
    36   23   28 ar  
    37   24   25 ar  
    38   24   38 1   
    39   25   26 ar  
    40   25   39 1   
    41   26   27 ar  
    42   26   40 1   
    43   27   28 ar  
    44   27   41 1   
    45   28   42 1   
@<TRIPOS>SUBSTRUCTURE
     1 910         1 TEMP              0 ****  ****    0 ROOT
