@<TRIPOS>MOLECULE
910
   42    44     1     0     0
SMALL
bcc


@<TRIPOS>ATOM
      1 S1         -0.0570    0.0760    0.3940 ss        1 910      0.033200
      2 C2          1.5810   -0.2540    0.4550 cc        1 910     -0.172700
      3 C3          1.9890   -0.5230    1.7540 cd        1 910      0.139100
      4 C4          0.8840   -0.4230    2.6850 cd        1 910     -0.044900
      5 C5         -0.3010   -0.0830    2.0400 cc        1 910     -0.159100
      6 C6          2.3540   -0.1950   -0.8480 c         1 910      0.939200
      7 O7          3.1410    0.7720   -1.0300 o         1 910     -0.818300
      8 O8          2.1020   -1.0800   -1.7150 o         1 910     -0.818300
      9 C9         -1.6010    0.1180    2.6330 ca        1 910      0.083000
     10 C10        -2.7160   -0.5450    2.1050 ca        1 910     -0.177000
     11 C11        -4.0030   -0.3560    2.6560 ca        1 910      0.101600
     12 C12        -4.1500    0.5050    3.7610 ca        1 910     -0.196000
     13 C13        -3.0370    1.1650    4.2780 ca        1 910     -0.118000
     14 C14        -1.7750    0.9840    3.7280 ca        1 910     -0.140000
     15 BR19        1.0110   -0.7540    4.5080 br        1 910     -0.102100
     16 O20         3.2070   -0.8530    2.2670 os        1 910     -0.286900
     17 C21         4.2750   -1.0580    1.3240 c3        1 910      0.006400
     18 C22         5.4840   -1.5790    2.1400 c         1 910      0.917600
     19 O25         5.6850   -2.8270    2.1700 o         1 910     -0.851800
     20 O26         6.2490   -0.7370    2.6900 o         1 910     -0.851800
     21 N29        -5.1260   -0.9740    2.0480 nh        1 910     -0.711600
     22 C30        -6.1810   -1.3910    2.9530 c3        1 910      0.217100
     23 C31        -7.0770   -2.4560    2.3900 ca        1 910     -0.088300
     24 C34        -7.3850   -3.5840    3.1590 ca        1 910     -0.118000
     25 C35        -8.2450   -4.5600    2.6580 ca        1 910     -0.136500
     26 C36        -8.7990   -4.4190    1.3860 ca        1 910     -0.137000
     27 C37        -8.4910   -3.2980    0.6150 ca        1 910     -0.136500
     28 C38        -7.6340   -2.3180    1.1140 ca        1 910     -0.118000
     29 H10        -2.5690   -1.2200    1.2470 ha        1 910      0.143000
     30 H12        -5.1360    0.6710    4.2160 ha        1 910      0.111000
     31 H13        -3.1640    1.8410    5.1370 ha        1 910      0.111000
     32 H14        -0.9030    1.5120    4.1410 ha        1 910      0.150000
     33 H211        4.5090   -0.0830    0.8260 h1        1 910      0.053700
     34 H212        3.9540   -1.8090    0.5590 h1        1 910      0.053700
     35 HN29       -4.8470   -1.7160    1.4350 hn        1 910      0.383800
     36 H301       -6.8150   -0.4780    3.1630 h1        1 910      0.042700
     37 H302       -5.7680   -1.7400    3.9460 h1        1 910      0.042700
     38 H34        -6.9410   -3.7040    4.1590 ha        1 910      0.142000
     39 H35        -8.4810   -5.4450    3.2650 ha        1 910      0.125000
     40 H36        -9.4720   -5.1920    0.9890 ha        1 910      0.121000
     41 H37        -8.9200   -3.1880   -0.3920 ha        1 910      0.125000
     42 H38        -7.3900   -1.4350    0.5040 ha        1 910      0.142000
@<TRIPOS>BOND
     1    1    2 1   
     2    1    5 1   
     3    2    3 2   
     4    2    6 1   
     5    3    4 1   
     6    3   16 1   
     7    4    5 2   
     8    4   15 1   
     9    5    9 1   
    10    6    7 1   
    11    6    8 1   
    12    9   10 ar  
    13    9   14 ar  
    14   10   11 ar  
    15   10   29 1   
    16   11   12 ar  
    17   11   21 1   
    18   12   13 ar  
    19   12   30 1   
    20   13   14 ar  
    21   13   31 1   
    22   14   32 1   
    23   16   17 1   
    24   17   18 1   
    25   17   33 1   
    26   17   34 1   
    27   18   19 1   
    28   18   20 1   
    29   21   22 1   
    30   21   35 1   
    31   22   23 1   
    32   22   36 1   
    33   22   37 1   
    34   23   24 ar  
    35   23   28 ar  
    36   24   25 ar  
    37   24   38 1   
    38   25   26 ar  
    39   25   39 1   
    40   26   27 ar  
    41   26   40 1   
    42   27   28 ar  
    43   27   41 1   
    44   28   42 1   
@<TRIPOS>SUBSTRUCTURE
     1 910         1 TEMP              0 ****  ****    0 ROOT
