@<TRIPOS>MOLECULE
911
   15    14     1     0     0
SMALL
bcc


@<TRIPOS>ATOM
      1 P1         -0.0680   -0.0270    0.3460 p5        1 911      1.258200
      2 O2          1.4000    0.0180    0.7420 o         1 911     -0.991500
      3 O3         -0.9220   -0.4120    1.5550 o         1 911     -0.991500
      4 O5         -0.5350    1.3240   -0.1820 o         1 911     -0.991500
      5 C7         -0.4280   -1.3290   -1.0020 c3        1 911     -0.178600
      6 P8         -0.0790   -1.7600   -2.7360 p5        1 911      1.258200
      7 O9         -1.0440   -1.0280   -3.6670 o         1 911     -0.991500
      8 O10         1.3610   -1.5300   -3.1710 o         1 911     -0.991500
      9 O12        -0.3940   -3.2680   -2.7690 o         1 911     -0.991500
     10 O14        -0.0380   -2.4730   -0.2620 oh        1 911     -0.639800
     11 C16        -1.9230   -1.1770   -1.0350 c3        1 911     -0.094100
     12 HO14       -0.2260   -3.2530   -0.8110 ho        1 911      0.356000
     13 H16        -2.3690   -1.2120   -0.0080 hc        1 911     -0.002967
     14 H16A       -2.4090   -1.9730   -1.6560 hc        1 911     -0.002967
     15 H16B       -2.1280   -0.1800   -1.4940 hc        1 911     -0.002967
@<TRIPOS>BOND
     1    1    2 1   
     2    1    3 1   
     3    1    4 1   
     4    1    5 1   
     5    5    6 1   
     6    5   10 1   
     7    5   11 1   
     8    6    7 1   
     9    6    8 1   
    10    6    9 1   
    11   10   12 1   
    12   11   13 1   
    13   11   14 1   
    14   11   15 1   
@<TRIPOS>SUBSTRUCTURE
     1 911         1 TEMP              0 ****  ****    0 ROOT
