@<TRIPOS>MOLECULE
911
   15    14     1     0     0
SMALL
bcc


@<TRIPOS>ATOM
      1 P1         -0.0420   -0.0380    0.3450 p5        1 911      1.258200
      2 O2          1.4290   -0.0080    0.7260 o         1 911     -0.991500
      3 O3         -0.8890   -0.4200    1.5610 o         1 911     -0.991500
      4 O5         -0.5030    1.3190   -0.1730 o         1 911     -0.991500
      5 C7         -0.4280   -1.3310   -1.0040 c3        1 911     -0.178600
      6 P8         -0.1000   -1.7590   -2.7440 p5        1 911      1.258200
      7 O9         -1.0670   -1.0140   -3.6630 o         1 911     -0.991500
      8 O10         1.3370   -1.5400   -3.1920 o         1 911     -0.991500
      9 O12        -0.4300   -3.2640   -2.7790 o         1 911     -0.991500
     10 O14        -0.0420   -2.4820   -0.2730 oh        1 911     -0.639800
     11 C16        -1.9220   -1.1650   -1.0220 c3        1 911     -0.094100
     12 HO14       -0.2420   -3.2580   -0.8230 ho        1 911      0.356000
     13 H16        -2.3590   -1.2000    0.0090 hc        1 911     -0.002967
     14 H16A       -2.4220   -1.9550   -1.6420 hc        1 911     -0.002967
     15 H16B       -2.1220   -0.1650   -1.4760 hc        1 911     -0.002967
@<TRIPOS>BOND
     1    1    2 1   
     2    1    3 1   
     3    1    4 1   
     4    1    5 1   
     5    5    6 1   
     6    5   10 1   
     7    5   11 1   
     8    6    7 1   
     9    6    8 1   
    10    6    9 1   
    11   10   12 1   
    12   11   13 1   
    13   11   14 1   
    14   11   15 1   
@<TRIPOS>SUBSTRUCTURE
     1 911         1 TEMP              0 ****  ****    0 ROOT
