@<TRIPOS>MOLECULE
911
   15    14     1     0     0
SMALL
bcc


@<TRIPOS>ATOM
      1 P1         -1.7340   -0.1180    0.0590 p5        1 911      1.259700
      2 O2         -2.0240   -0.6570   -1.3390 o         1 911     -0.994167
      3 O3         -2.6290    1.0890    0.3580 o         1 911     -0.994167
      4 O5         -1.9710   -1.1680    1.1350 o         1 911     -0.994167
      5 C7          0.0200    0.4970    0.0510 c3        1 911     -0.216600
      6 P8          1.7900   -0.0450    0.0310 p5        1 911      1.259700
      7 O9          2.1030   -1.0060    1.1720 o         1 911     -0.994167
      8 O10         2.0600   -0.6720   -1.3320 o         1 911     -0.994167
      9 O12         2.6530    1.2090    0.2150 o         1 911     -0.994167
     10 O14         0.0020    1.1610   -1.2340 oh        1 911     -0.669800
     11 C16        -0.0510    1.5260    1.1310 c3        1 911     -0.032100
     12 HO14       -0.0300    0.4050   -1.8360 ho        1 911      0.404000
     13 H16        -0.5950    1.1020    2.0170 hc        1 911     -0.012967
     14 H16A        0.9600    1.8760    1.4620 hc        1 911     -0.012967
     15 H16B       -0.6360    2.4190    0.7890 hc        1 911     -0.012967
@<TRIPOS>BOND
     1    1    2 1   
     2    1    3 1   
     3    1    4 1   
     4    1    5 1   
     5    5    6 1   
     6    5   10 1   
     7    5   11 1   
     8    6    7 1   
     9    6    8 1   
    10    6    9 1   
    11   10   12 1   
    12   11   13 1   
    13   11   14 1   
    14   11   15 1   
@<TRIPOS>SUBSTRUCTURE
     1 911         1 TEMP              0 ****  ****    0 ROOT
