@<TRIPOS>MOLECULE
911
   15    13     1     0     0
SMALL
bcc


@<TRIPOS>ATOM
      1 P1          0.8020    1.4320    0.5670 p4        1 911      1.635000
      2 O2          2.3120    1.4320    0.5670 o         1 911     -0.993500
      3 O3          0.2980    1.4320    1.9910 o         1 911     -1.042300
      4 O5          0.2980    2.6640   -0.1450 os        1 911     -1.300000
      5 C7          0.1970   -0.0510   -0.2890 c3        1 911     -0.178600
      6 P8         -1.6190   -0.0440   -0.3010 p5        1 911      1.249700
      7 O9         -2.1120    1.1300   -1.1140 o         1 911     -0.993833
      8 O10        -2.1320    0.0730    1.1140 o         1 911     -0.993833
      9 O12        -2.1230   -1.3280   -0.9150 o         1 911     -0.993833
     10 O14         0.6750   -0.0560   -1.6120 oh        1 911     -0.639800
     11 C16         0.6910   -1.2860    0.4310 c3        1 911     -0.094100
     12 HO14        0.3210   -0.7420   -2.0520 ho        1 911      0.356000
     13 H16         0.4050   -1.2560    1.3640 hc        1 911     -0.002967
     14 H16A        0.3220   -2.0820    0.0030 hc        1 911     -0.002967
     15 H16B        1.6660   -1.3180    0.3910 hc        1 911     -0.002967
@<TRIPOS>BOND
     1    1    2 1   
     2    1    3 2   
     3    1    5 1   
     4    5    6 1   
     5    5   10 1   
     6    5   11 1   
     7    6    7 1   
     8    6    8 1   
     9    6    9 1   
    10   10   12 1   
    11   11   13 1   
    12   11   14 1   
    13   11   15 1   
@<TRIPOS>SUBSTRUCTURE
     1 911         1 TEMP              0 ****  ****    0 ROOT
