@<TRIPOS>MOLECULE
913
   24    25     1     0     0
SMALL
bcc


@<TRIPOS>ATOM
      1 C1         -3.0650    1.1750   -0.5660 c3        1 913      0.202100
      2 N1         -4.1600    1.2130    0.3760 n3        1 913     -0.916800
      3 C2         -1.9960    0.1810   -0.2070 ca        1 913     -0.080300
      4 N2          1.7280    0.0250    0.0140 na        1 913      0.149300
      5 C3         -2.3350   -1.1330    0.1270 ca        1 913     -0.114000
      6 C4         -1.3330   -2.0500    0.4330 ca        1 913     -0.119000
      7 C5          0.0080   -1.6770    0.4080 ca        1 913     -0.148000
      8 C6          0.3580   -0.3560    0.0580 ca        1 913      0.023800
      9 C7          2.7940   -0.8590   -0.2440 cc        1 913     -0.133300
     10 C8          3.9650   -0.0970   -0.1980 cd        1 913     -0.298300
     11 C9          3.5170    1.2480    0.0950 cd        1 913      0.298200
     12 C11        -0.6570    0.5750   -0.2440 ca        1 913     -0.119000
     13 N8          2.1680    1.2840    0.2140 nc        1 913     -0.504800
     14 H11C       -3.4970    0.8770   -1.5670 h1        1 913      0.037200
     15 H12C       -2.5830    2.1890   -0.7050 h1        1 913      0.037200
     16 H11N       -3.8280    1.2730    1.3180 hn        1 913      0.353800
     17 H12N       -4.7520    1.9960    0.1830 hn        1 913      0.353800
     18 H3         -3.3930   -1.4380    0.1510 ha        1 913      0.154000
     19 H11        -0.4020    1.6140   -0.5070 ha        1 913      0.158000
     20 H7          2.6330   -1.9170   -0.4460 h4        1 913      0.178000
     21 H4         -1.6000   -3.0830    0.7040 ha        1 913      0.138000
     22 H5          0.7800   -2.4160    0.6700 ha        1 913      0.139000
     23 H8          4.9860   -0.4260   -0.3480 ha        1 913      0.167000
     24 H9          4.1290    2.1420    0.2150 h4        1 913      0.044100
@<TRIPOS>BOND
     1    1    2 1   
     2    1    3 1   
     3    1   14 1   
     4    1   15 1   
     5    2   16 1   
     6    2   17 1   
     7    3    5 ar  
     8    3   12 ar  
     9    4    8 1   
    10    4    9 1   
    11    4   13 1   
    12    5    6 ar  
    13    5   18 1   
    14    6    7 ar  
    15    6   21 1   
    16    7    8 ar  
    17    7   22 1   
    18    8   12 ar  
    19    9   10 2   
    20    9   20 1   
    21   10   11 1   
    22   10   23 1   
    23   11   13 2   
    24   11   24 1   
    25   12   19 1   
@<TRIPOS>SUBSTRUCTURE
     1 913         1 TEMP              0 ****  ****    0 ROOT
