@<TRIPOS>MOLECULE
913
   25    26     1     0     0
SMALL
bcc


@<TRIPOS>ATOM
      1 C1         -0.0460    0.1270    0.0260 c3        1 913      0.173100
      2 N1          1.3740   -0.3500   -0.0710 n4        1 913     -0.844600
      3 C2         -0.5090    0.1200    1.4430 ca        1 913     -0.172300
      4 N2         -1.3610   -2.3800    4.0690 na        1 913      0.115300
      5 C3         -0.7450    1.3220    2.1140 ca        1 913     -0.110000
      6 C4         -1.2030    1.2860    3.4310 ca        1 913     -0.093000
      7 C5         -1.4060    0.0760    4.0850 ca        1 913     -0.115000
      8 C6         -1.1700   -1.1460    3.4110 ca        1 913      0.071800
      9 C7         -2.1470   -2.5820    5.2290 cc        1 913     -0.114300
     10 C8         -2.0660   -3.9370    5.5330 cd        1 913     -0.270300
     11 C9         -1.2060   -4.5010    4.5030 cd        1 913      0.337200
     12 C11        -0.7290   -1.1090    2.0710 ca        1 913     -0.133000
     13 N8         -0.8050   -3.5440    3.6420 nc        1 913     -0.526800
     14 H11C       -0.6780   -0.5680   -0.6020 hx        1 913      0.114700
     15 H12C       -0.0920    1.1650   -0.4150 hx        1 913      0.114700
     16 H11N        1.6640   -0.4110   -1.0500 hn        1 913      0.460467
     17 H12N        1.9960    0.2960    0.4270 hn        1 913      0.460467
     18 H3         -0.5880    2.2890    1.6130 ha        1 913      0.149000
     19 H11        -0.5770   -2.0450    1.5100 ha        1 913      0.156000
     20 H7         -2.6900   -1.7690    5.7120 h4        1 913      0.187000
     21 H4         -1.4010    2.2310    3.9650 ha        1 913      0.166000
     22 H5         -1.7480    0.0830    5.1340 ha        1 913      0.165000
     23 H8         -2.5330   -4.4750    6.3520 ha        1 913      0.187000
     24 H9         -0.8970   -5.5440    4.4000 h4        1 913      0.060100
     25 H13         1.4550   -1.2750    0.3680 hn        1 913      0.460467
@<TRIPOS>BOND
     1    1    2 1   
     2    1    3 1   
     3    1   14 1   
     4    1   15 1   
     5    2   16 1   
     6    2   17 1   
     7    2   25 1   
     8    3    5 ar  
     9    3   12 ar  
    10    4    8 1   
    11    4    9 1   
    12    4   13 1   
    13    5    6 ar  
    14    5   18 1   
    15    6    7 ar  
    16    6   21 1   
    17    7    8 ar  
    18    7   22 1   
    19    8   12 ar  
    20    9   10 2   
    21    9   20 1   
    22   10   11 1   
    23   10   23 1   
    24   11   13 2   
    25   11   24 1   
    26   12   19 1   
@<TRIPOS>SUBSTRUCTURE
     1 913         1 TEMP              0 ****  ****    0 ROOT
