@<TRIPOS>MOLECULE
913
   25    26     1     0     0
SMALL
bcc


@<TRIPOS>ATOM
      1 C1         -0.0260    0.1340    0.0360 c3        1 913      0.173100
      2 N1          1.4020   -0.3250   -0.0450 n4        1 913     -0.844600
      3 C2         -0.5030    0.1220    1.4470 ca        1 913     -0.172300
      4 N2         -1.3500   -2.3860    4.0670 na        1 913      0.115300
      5 C3         -0.7620    1.3210    2.1140 ca        1 913     -0.110000
      6 C4         -1.2340    1.2810    3.4270 ca        1 913     -0.093000
      7 C5         -1.4280    0.0690    4.0800 ca        1 913     -0.115000
      8 C6         -1.1680   -1.1510    3.4100 ca        1 913      0.071800
      9 C7         -2.1470   -2.5970    5.2190 cc        1 913     -0.114300
     10 C8         -2.0500   -3.9510    5.5260 cd        1 913     -0.270300
     11 C9         -1.1700   -4.5040    4.5070 cd        1 913      0.337200
     12 C11        -0.7140   -1.1090    2.0750 ca        1 913     -0.133000
     13 N8         -0.7730   -3.5430    3.6500 nc        1 913     -0.526800
     14 H11C       -0.6420   -0.5700   -0.5980 hx        1 913      0.114700
     15 H12C       -0.0800    1.1700   -0.4080 hx        1 913      0.114700
     16 H11N        1.4900   -1.2490    0.3950 hn        1 913      0.460467
     17 H12N        1.7030   -0.3830   -1.0220 hn        1 913      0.460467
     18 H3         -0.6130    2.2900    1.6140 ha        1 913      0.149000
     19 H11        -0.5440   -2.0440    1.5160 ha        1 913      0.156000
     20 H7         -2.7060   -1.7920    5.6940 h4        1 913      0.187000
     21 H4         -1.4510    2.2240    3.9570 ha        1 913      0.166000
     22 H5         -1.7810    0.0730    5.1250 ha        1 913      0.165000
     23 H8         -2.5190   -4.4940    6.3400 ha        1 913      0.187000
     24 H9         -0.8470   -5.5430    4.4090 h4        1 913      0.060100
     25 H13         2.0090    0.3300    0.4580 hn        1 913      0.460467
@<TRIPOS>BOND
     1    1    2 1   
     2    1    3 1   
     3    1   14 1   
     4    1   15 1   
     5    2   16 1   
     6    2   17 1   
     7    2   25 1   
     8    3    5 ar  
     9    3   12 ar  
    10    4    8 1   
    11    4    9 1   
    12    4   13 1   
    13    5    6 ar  
    14    5   18 1   
    15    6    7 ar  
    16    6   21 1   
    17    7    8 ar  
    18    7   22 1   
    19    8   12 ar  
    20    9   10 2   
    21    9   20 1   
    22   10   11 1   
    23   10   23 1   
    24   11   13 2   
    25   11   24 1   
    26   12   19 1   
@<TRIPOS>SUBSTRUCTURE
     1 913         1 TEMP              0 ****  ****    0 ROOT
