@<TRIPOS>MOLECULE
913
   24    19     1     0     0
SMALL
bcc


@<TRIPOS>ATOM
      1 C1          0.8980    1.0550   -2.8410 c3        1 913     -0.050000
      2 N1          2.3220    1.0740   -2.9250 n3        1 913     -0.333000
      3 C2          0.4790    1.0550   -1.3870 c2        1 913     -0.108000
      4 N2         -0.6900   -1.2600    1.3110 n2        1 913     -0.081000
      5 C3          0.4100    2.2490   -0.6870 c1        1 913     -0.136000
      6 C4         -0.0120    2.2540    0.6330 c1        1 913     -0.131500
      7 C5         -0.3650    1.0660    1.2530 c1        1 913     -0.131500
      8 C6         -0.2960   -0.1280    0.5530 c1        1 913      0.076000
      9 C7         -0.2180   -2.0880    2.2670 c1        1 913     -0.137000
     10 C8         -1.2180   -2.9510    2.6090 c1        1 913     -0.232000
     11 C9         -2.3130   -2.6470    1.8530 c1        1 913     -0.137000
     12 C11         0.1260   -0.1340   -0.7680 c2        1 913     -0.113000
     13 N8         -1.9920   -1.6080    1.0540 n2        1 913     -0.081000
     14 H11C        0.5340    1.8470   -3.2860 h1        1 913      0.103000
     15 H12C        0.5570    0.2480   -3.2790 h1        1 913      0.103000
     16 H11N        2.6750    0.5870   -2.2340 hn        1 913      0.144000
     17 H12N        2.6190    1.9390   -2.8720 hn        1 913      0.144000
     18 H3          0.6580    3.0860   -1.1230 ha        1 913      0.136000
     19 H11         0.2020   -0.9780   -1.2520 ha        1 913      0.161000
     20 H7          0.6810   -2.0720    2.6480 DU        1 913      0.176000
     21 H4         -0.0610    3.0950    1.1270 ha        1 913      0.139000
     22 H5         -0.6620    1.0700    2.1830 ha        1 913      0.139000
     23 H8         -1.1610   -3.6610    3.2770 DU        1 913      0.176000
     24 H9         -3.1760   -3.1010    1.8850 DU        1 913      0.176000
@<TRIPOS>BOND
     1    1    2 1   
     2    1    3 1   
     3    1   14 1   
     4    1   15 1   
     5    2   16 1   
     6    2   17 1   
     7    3    5 1   
     8    3   12 1   
     9    4    9 1   
    10    4   13 1   
    11    5   18 1   
    12    6    7 1   
    13    6   21 1   
    14    7   22 1   
    15    8   12 1   
    16    9   10 1   
    17   10   11 1   
    18   11   13 1   
    19   12   19 1   
@<TRIPOS>SUBSTRUCTURE
     1 913         1 TEMP              0 ****  ****    0 ROOT
