@<TRIPOS>MOLECULE
913
   25    26     1     0     0
SMALL
bcc


@<TRIPOS>ATOM
      1 C1         -0.0570    0.1260    0.0240 c3        1 913      0.173100
      2 N1          1.3630   -0.3520   -0.0820 nz        1 913     -0.844600
      3 C2         -0.5090    0.1200    1.4440 ca        1 913     -0.172300
      4 N2         -1.3430   -2.3780    4.0780 na        1 913      0.115300
      5 C3         -0.7400    1.3220    2.1160 ca        1 913     -0.110000
      6 C4         -1.1900    1.2870    3.4360 ca        1 913     -0.093000
      7 C5         -1.3880    0.0780    4.0930 ca        1 913     -0.115000
      8 C6         -1.1560   -1.1450    3.4180 ca        1 913      0.071800
      9 C7         -2.1220   -2.5790    5.2440 cc        1 913     -0.114300
     10 C8         -2.0380   -3.9340    5.5490 cd        1 913     -0.270300
     11 C9         -1.1840   -4.4990    4.5140 cd        1 913      0.337200
     12 C11        -0.7260   -1.1090    2.0750 ca        1 913     -0.133000
     13 N8         -0.7890   -3.5430    3.6500 nc        1 913     -0.526800
     14 H11C       -0.6930   -0.5700   -0.5990 hx        1 913      0.114700
     15 H12C       -0.1050    1.1630   -0.4180 hx        1 913      0.114700
     16 H11N        1.4470   -1.2770    0.3570 hn        1 913      0.460467
     17 H12N        1.6460   -0.4140   -1.0630 hn        1 913      0.460467
     18 H3         -0.5870    2.2890    1.6130 ha        1 913      0.149000
     19 H11        -0.5770   -2.0460    1.5130 ha        1 913      0.156000
     20 H7         -2.6620   -1.7660    5.7290 h4        1 913      0.187000
     21 H4         -1.3840    2.2330    3.9700 ha        1 913      0.166000
     22 H5         -1.7230    0.0860    5.1440 ha        1 913      0.165000
     23 H8         -2.5000   -4.4710    6.3710 ha        1 913      0.187000
     24 H9         -0.8760   -5.5420    4.4090 h4        1 913      0.060100
     25 H13         1.9880    0.2940    0.4110 hn        1 913      0.460467
@<TRIPOS>BOND
     1    1    2 1   
     2    1    3 1   
     3    1   14 1   
     4    1   15 1   
     5    2   16 1   
     6    2   17 1   
     7    2   25 1   
     8    3    5 ar  
     9    3   12 ar  
    10    4    8 1   
    11    4    9 1   
    12    4   13 1   
    13    5    6 ar  
    14    5   18 1   
    15    6    7 ar  
    16    6   21 1   
    17    7    8 ar  
    18    7   22 1   
    19    8   12 ar  
    20    9   10 2   
    21    9   20 1   
    22   10   11 1   
    23   10   23 1   
    24   11   13 2   
    25   11   24 1   
    26   12   19 1   
@<TRIPOS>SUBSTRUCTURE
     1 913         1 TEMP              0 ****  ****    0 ROOT
