@<TRIPOS>MOLECULE
915
   42    43     1     0     0
SMALL
bcc


@<TRIPOS>ATOM
      1 C1         -1.6520   -0.9010   -0.1210 ca        1 915     -0.406500
      2 C2         -2.4970   -0.1860   -0.9770 ca        1 915      0.008000
      3 C3         -3.6410    0.4620   -0.5120 ca        1 915     -0.131300
      4 C4         -3.9420    0.3830    0.8680 ca        1 915      0.190900
      5 C5         -3.1070   -0.3410    1.7420 ca        1 915     -0.191000
      6 C6         -1.9780   -0.9730    1.2400 ca        1 915      0.000000
      7 F10        -5.0370    1.0020    1.3600 f         1 915     -0.125900
      8 C11        -4.5280    1.2010   -1.4370 c3        1 915     -0.056800
      9 S15        -0.3050   -1.7030   -0.7270 sy        1 915      1.522200
     10 N16         0.8660   -0.5820   -0.7110 n3        1 915     -0.913100
     11 C17         1.6280   -0.2130    0.4470 c3        1 915      0.189500
     12 C18         2.9430   -1.0370    0.5160 c         1 915      0.571100
     13 N19         2.8740   -2.2730    1.2130 n         1 915     -0.364400
     14 O20         3.8920   -3.1050    0.9850 oh        1 915     -0.426100
     15 O21         4.0270   -0.5910    0.1110 o         1 915     -0.563100
     16 O22         0.0520   -2.7270    0.1830 o         1 915     -0.655300
     17 O23        -0.5510   -2.0670   -2.0650 o         1 915     -0.655300
     18 C27         1.9720    1.2840    0.5700 c3        1 915     -0.063700
     19 C29         2.5330    1.9080   -0.6980 c3        1 915     -0.114400
     20 C30         2.8510    3.3740   -0.4450 c3        1 915      0.127400
     21 O31         1.7020    4.0900   -0.0030 os        1 915     -0.415600
     22 C32         1.1340    3.5500    1.1830 c3        1 915      0.127400
     23 C33         0.7610    2.0840    1.0270 c3        1 915     -0.114400
     24 H2         -2.2620   -0.1490   -2.0580 ha        1 915      0.159000
     25 H5         -3.3620   -0.4020    2.8100 ha        1 915      0.160000
     26 H6         -1.3330   -1.5590    1.9200 ha        1 915      0.159000
     27 H111       -5.4240    0.5770   -1.6870 hc        1 915      0.056700
     28 H112       -4.8870    2.1480   -0.9620 hc        1 915      0.056700
     29 H113       -3.9980    1.4560   -2.3880 hc        1 915      0.056700
     30 H16         1.1450   -0.1120   -1.5420 hn        1 915      0.461800
     31 H17         1.0070   -0.4780    1.3620 h1        1 915      0.068700
     32 H19         2.0070   -2.7880    1.0690 hn        1 915      0.340500
     33 H20         4.6630   -2.7200    1.4470 ho        1 915      0.428000
     34 H27         2.7680    1.3530    1.3690 hc        1 915      0.071700
     35 H291        3.4630    1.3660   -1.0110 hc        1 915      0.058200
     36 H292        1.7880    1.8520   -1.5330 hc        1 915      0.058200
     37 H301        3.6720    3.4750    0.3140 h1        1 915      0.050950
     38 H302        3.1450    3.8930   -1.3960 h1        1 915      0.050950
     39 H321        1.8550    3.6790    2.0350 h1        1 915      0.050950
     40 H322        0.2220    4.1810    1.3590 h1        1 915      0.050950
     41 H331       -0.0620    1.9880    0.2730 hc        1 915      0.058200
     42 H332        0.3830    1.6960    2.0070 hc        1 915      0.058200
@<TRIPOS>BOND
     1    1    2 ar  
     2    1    6 ar  
     3    1    9 1   
     4    2    3 ar  
     5    2   24 1   
     6    3    4 ar  
     7    3    8 1   
     8    4    5 ar  
     9    4    7 1   
    10    5    6 ar  
    11    5   25 1   
    12    6   26 1   
    13    8   27 1   
    14    8   28 1   
    15    8   29 1   
    16    9   10 1   
    17    9   16 2   
    18    9   17 2   
    19   10   11 1   
    20   10   30 1   
    21   11   12 1   
    22   11   18 1   
    23   11   31 1   
    24   12   13 1   
    25   12   15 2   
    26   13   14 1   
    27   13   32 1   
    28   14   33 1   
    29   18   19 1   
    30   18   23 1   
    31   18   34 1   
    32   19   20 1   
    33   19   35 1   
    34   19   36 1   
    35   20   21 1   
    36   20   37 1   
    37   20   38 1   
    38   21   22 1   
    39   22   23 1   
    40   22   39 1   
    41   22   40 1   
    42   23   41 1   
    43   23   42 1   
@<TRIPOS>SUBSTRUCTURE
     1 915         1 TEMP              0 ****  ****    0 ROOT
