@<TRIPOS>MOLECULE
915
   42    39     1     0     0
SMALL
bcc


@<TRIPOS>ATOM
      1 C1          0.7930   -1.5560    1.9200 c1        1 915     -0.861000
      2 C2         -0.1230   -1.8390    2.8960 c1        1 915      0.008000
      3 C3          0.3030   -2.1500    4.1770 c1        1 915     -0.125000
      4 C4          1.6660   -2.1740    4.4720 c1        1 915      0.158000
      5 C5          2.5930   -1.8870    3.4840 c1        1 915     -0.193000
      6 C6          2.1750   -1.5810    2.2220 c1        1 915      0.004000
      7 F10         2.0730   -2.3100    5.7530 f         1 915     -0.091000
      8 C11        -0.7150   -2.3870    5.2820 c3        1 915     -0.183000
      9 S15         0.2550   -1.3560    0.2380 s4        1 915      2.092800
     10 N16         0.0610    0.2420   -0.1130 n2        1 915     -0.886000
     11 C17        -0.5230    0.6250   -1.3310 c3        1 915      0.036000
     12 C18        -1.9330    0.1360   -1.3860 c2        1 915      0.239000
     13 N19        -2.3780   -0.6990   -2.5150 n         1 915     -0.199000
     14 O20        -1.6840   -1.8340   -2.8380 oh        1 915     -0.215000
     15 O21        -2.6820    0.3250   -0.4340 o         1 915     -0.351000
     16 O22        -0.9630   -2.1030   -0.0160 o         1 915     -0.557400
     17 O23         1.1510   -1.9740   -0.6650 o         1 915     -0.557400
     18 C27        -0.5100    2.2020   -1.4510 c3        1 915     -0.097000
     19 C29         0.8860    2.6810   -1.3940 c3        1 915     -0.191500
     20 C30         1.6830    2.2950   -2.6350 c3        1 915     -0.027500
     21 O31         1.0200    2.6740   -3.8550 os        1 915     -0.271000
     22 C32        -0.3850    2.2020   -3.9200 c3        1 915     -0.027500
     23 C33        -1.1800    2.5880   -2.7040 c3        1 915     -0.191500
     24 H2         -1.0840   -1.8220    2.6860 ha        1 915      0.164000
     25 H5          3.5750   -1.9030    3.6970 ha        1 915      0.160000
     26 H6          2.8230   -1.3810    1.5330 ha        1 915      0.169000
     27 H111       -1.6570   -2.3110    4.9010 hc        1 915      0.097000
     28 H112       -0.5920   -1.7170    5.9890 hc        1 915      0.097000
     29 H113       -0.5870   -3.2730    5.6530 hc        1 915      0.097000
     30 H16         0.3580    0.8790    0.4730 hn        1 915      0.252000
     31 H17        -0.0170    0.2390   -2.0720 h1        1 915      0.130000
     32 H19        -3.1480   -0.4880   -2.9690 hn        1 915      0.219000
     33 H20        -2.2580   -2.4890   -3.0260 ho        1 915      0.222000
     34 H27        -1.0040    2.5810   -0.6960 hc        1 915      0.108000
     35 H291        1.3100    2.3090   -0.6250 hc        1 915      0.099000
     36 H292        0.8790    3.6510   -1.3120 hc        1 915      0.099000
     37 H301        2.5750    2.7490   -2.5990 h1        1 915      0.093500
     38 H302        1.8200    1.3170   -2.6350 h1        1 915      0.093500
     39 H321       -0.3900    1.2020   -4.0050 h1        1 915      0.093500
     40 H322       -0.8190    2.5990   -4.7270 h1        1 915      0.093500
     41 H331       -2.0490    2.1520   -2.7440 hc        1 915      0.099000
     42 H332       -1.3150    3.5870   -2.7080 hc        1 915      0.099000
@<TRIPOS>BOND
     1    1    6 1   
     2    1    9 1   
     3    2    3 1   
     4    2   24 1   
     5    3    8 1   
     6    4    5 1   
     7    4    7 1   
     8    5   25 1   
     9    6   26 1   
    10    8   27 1   
    11    8   28 1   
    12    8   29 1   
    13    9   16 1   
    14    9   17 1   
    15   10   11 1   
    16   10   30 1   
    17   11   12 1   
    18   11   18 1   
    19   11   31 1   
    20   12   13 1   
    21   12   15 1   
    22   13   14 1   
    23   13   32 1   
    24   14   33 1   
    25   18   19 1   
    26   18   23 1   
    27   18   34 1   
    28   19   20 1   
    29   19   35 1   
    30   19   36 1   
    31   20   21 1   
    32   20   37 1   
    33   20   38 1   
    34   21   22 1   
    35   22   23 1   
    36   22   39 1   
    37   22   40 1   
    38   23   41 1   
    39   23   42 1   
@<TRIPOS>SUBSTRUCTURE
     1 915         1 TEMP              0 ****  ****    0 ROOT
