@<TRIPOS>MOLECULE
915
   44    44     1     0     0
SMALL
bcc


@<TRIPOS>ATOM
      1 C1          0.1020    0.4910    0.3810 ca        1 915     -0.676500
      2 C2          1.4170    0.9670    0.0640 ca        1 915      0.041000
      3 C3          2.3500    1.2900    1.0250 ca        1 915     -0.113300
      4 C4          1.9920    1.1420    2.4020 ca        1 915      0.335900
      5 C5          0.6960    0.6690    2.7530 ca        1 915     -0.190000
      6 C6         -0.2080    0.3580    1.7710 ca        1 915      0.054000
      7 F10         2.8650    1.4450    3.3600 f         1 915     -0.036900
      8 C11         3.6970    1.7910    0.6670 c3        1 915     -0.084800
      9 S15        -0.9070    0.2050   -0.7220 s4        1 915      1.714300
     10 N16        -0.6380   -2.2850   -1.3150 n3        1 915     -0.994800
     11 C17        -1.8240   -3.0950   -1.0440 c3        1 915      0.113500
     12 C18        -3.0060   -2.5520   -1.8530 c         1 915      0.520100
     13 N19        -4.2550   -2.1980   -1.0490 n4        1 915     -0.454300
     14 O20        -5.3900   -2.1420   -1.7830 oh        1 915     -0.340300
     15 O21        -3.0800   -2.3620   -3.0520 o         1 915     -0.372100
     16 O22        -2.1780   -0.1920   -0.3890 o         1 915     -0.464400
     17 O23        -0.6020    0.4600   -2.0140 o         1 915     -0.464400
     18 C27        -1.7140   -4.6090   -1.3580 c3        1 915     -0.094700
     19 C29        -1.1610   -4.8930   -2.7460 c3        1 915     -0.125400
     20 C30        -1.0360   -6.4010   -2.9460 c3        1 915      0.123900
     21 O31        -0.2110   -6.9700   -1.9390 os        1 915     -0.381600
     22 C32        -0.7290   -6.7800   -0.6310 c3        1 915      0.123900
     23 C33        -0.8550   -5.2950   -0.3030 c3        1 915     -0.125400
     24 H2          1.6890    1.0900   -1.0060 ha        1 915      0.187000
     25 H5          0.4370    0.5690    3.8240 ha        1 915      0.210000
     26 H6         -1.2180    0.0050    2.0580 ha        1 915      0.169000
     27 H111        3.8620    1.7800   -0.4380 hc        1 915      0.090367
     28 H112        4.4870    1.1610    1.1530 hc        1 915      0.090367
     29 H113        3.8250    2.8430    1.0350 hc        1 915      0.090367
     30 H16        -0.4410   -2.2770   -2.3070 hn        1 915      0.417800
     31 H17        -2.0370   -2.9900    0.0650 h1        1 915      0.097700
     32 H19        -4.4360   -2.9280   -0.3280 hn        1 915      0.498300
     33 H20        -5.1920   -1.7550   -2.6720 ho        1 915      0.491000
     34 H27        -2.7550   -5.0390   -1.2940 hc        1 915      0.076700
     35 H291       -0.1420   -4.4430   -2.8660 hc        1 915      0.059450
     36 H292       -1.8330   -4.4650   -3.5340 hc        1 915      0.059450
     37 H301       -2.0480   -6.8860   -2.9410 h1        1 915      0.079950
     38 H302       -0.5020   -6.6350   -3.9060 h1        1 915      0.079950
     39 H321        0.0250   -7.2740    0.0400 h1        1 915      0.079950
     40 H322       -1.7240   -7.2890   -0.5290 h1        1 915      0.079950
     41 H331       -1.3130   -5.1810    0.7130 hc        1 915      0.059450
     42 H332        0.1700   -4.8430   -0.2820 hc        1 915      0.059450
     43 H162        0.1470   -2.7150   -0.8470 hn        1 915      0.417800
     44 H192       -4.1000   -1.2820   -0.5730 hn        1 915      0.498300
@<TRIPOS>BOND
     1    1    2 ar  
     2    1    6 ar  
     3    1    9 1   
     4    2    3 ar  
     5    2   24 1   
     6    3    4 ar  
     7    3    8 1   
     8    4    5 ar  
     9    4    7 1   
    10    5    6 ar  
    11    5   25 1   
    12    6   26 1   
    13    8   27 1   
    14    8   28 1   
    15    8   29 1   
    16    9   16 1   
    17    9   17 1   
    18   10   11 1   
    19   10   30 1   
    20   10   43 1   
    21   11   12 1   
    22   11   18 1   
    23   11   31 1   
    24   12   13 1   
    25   12   15 2   
    26   13   14 1   
    27   13   32 1   
    28   13   44 1   
    29   14   33 1   
    30   18   19 1   
    31   18   23 1   
    32   18   34 1   
    33   19   20 1   
    34   19   35 1   
    35   19   36 1   
    36   20   21 1   
    37   20   37 1   
    38   20   38 1   
    39   21   22 1   
    40   22   23 1   
    41   22   39 1   
    42   22   40 1   
    43   23   41 1   
    44   23   42 1   
@<TRIPOS>SUBSTRUCTURE
     1 915         1 TEMP              0 ****  ****    0 ROOT
