@<TRIPOS>MOLECULE
915
   44    44     1     0     0
SMALL
bcc


@<TRIPOS>ATOM
      1 C1        136.7820   91.5790  114.7510 ca        1 915     -0.666500
      2 C2        136.2070   90.3590  114.2800 ca        1 915      0.048000
      3 C3        135.4700   90.2840  113.1150 ca        1 915     -0.123300
      4 C4        135.2760   91.4760  112.3530 ca        1 915      0.314900
      5 C5        135.8350   92.7040  112.7930 ca        1 915     -0.195000
      6 C6        136.5640   92.7450  113.9570 ca        1 915      0.062000
      7 F10       134.5690   91.4400  111.2210 f         1 915     -0.058900
      8 C11       134.8820   89.0080  112.6470 c3        1 915     -0.076800
      9 S15       137.5960   91.6290  116.0500 s4        1 915      1.663300
     10 N16       -84.4310  -61.5040  -73.3460 n3        1 915     -0.932800
     11 C17       -85.6980  -60.9620  -73.6070 c3        1 915      0.217500
     12 C18       -86.5780  -61.9380  -74.4770 c         1 915      0.454100
     13 N19       -87.9470  -61.3920  -74.9420 n4        1 915     -0.472300
     14 O20       -88.5260  -62.0690  -75.9590 oh        1 915     -0.362300
     15 O21       -86.3320  -63.0630  -74.8640 o         1 915     -0.412100
     16 O22       138.1140   92.8140  116.4400 o         1 915     -0.392400
     17 O23       137.7640   90.4880  116.7520 o         1 915     -0.392400
     18 C27       -86.5260  -60.5850  -72.3600 c3        1 915     -0.076700
     19 C29       -86.9720  -61.7940  -71.5550 c3        1 915     -0.118400
     20 C30       -87.7520  -61.3390  -70.3260 c3        1 915      0.122900
     21 O31       -86.9900  -60.4430  -69.5340 os        1 915     -0.385600
     22 C32       -86.5840  -59.2780  -70.2420 c3        1 915      0.122900
     23 C33       -85.7440  -59.6330  -71.4610 c3        1 915     -0.118400
     24 H2        136.3600   89.4370  114.8770 ha        1 915      0.184000
     25 H5        135.6750   93.6150  112.1890 ha        1 915      0.203000
     26 H6        136.9970   93.7090  114.2940 ha        1 915      0.185000
     27 H111      135.1220   88.1650  113.3410 hc        1 915      0.082033
     28 H112      135.2750   88.7550  111.6290 hc        1 915      0.082033
     29 H113      133.7680   89.1030  112.5720 hc        1 915      0.082033
     30 H16       -83.8270  -61.6350  -74.1250 hn        1 915      0.430300
     31 H17       -85.5710  -60.0420  -74.2600 h1        1 915      0.101700
     32 H19       -88.5980  -61.3820  -74.1340 hn        1 915      0.475800
     33 H20       -88.2040  -63.0050  -75.9500 ho        1 915      0.484000
     34 H27       -87.4390  -60.0290  -72.7190 hc        1 915      0.036700
     35 H291      -86.0800  -62.3830  -71.2120 hc        1 915      0.064700
     36 H292      -87.6140  -62.4690  -72.1760 hc        1 915      0.064700
     37 H301      -87.9620  -62.2040  -69.6410 h1        1 915      0.066950
     38 H302      -88.7160  -60.8530  -70.6350 h1        1 915      0.066950
     39 H321      -85.9760  -58.7030  -69.4920 h1        1 915      0.066950
     40 H322      -87.4860  -58.6810  -70.5410 h1        1 915      0.066950
     41 H331      -85.4800  -58.7010  -72.0220 hc        1 915      0.064700
     42 H332      -84.7910  -60.1150  -71.1180 hc        1 915      0.064700
     43 H162      -84.3730  -62.2030  -72.6400 hn        1 915      0.430300
     44 H192      -87.8320  -60.4190  -75.2840 hn        1 915      0.475800
@<TRIPOS>BOND
     1    1    2 ar  
     2    1    6 ar  
     3    1    9 1   
     4    2    3 ar  
     5    2   24 1   
     6    3    4 ar  
     7    3    8 1   
     8    4    5 ar  
     9    4    7 1   
    10    5    6 ar  
    11    5   25 1   
    12    6   26 1   
    13    8   27 1   
    14    8   28 1   
    15    8   29 1   
    16    9   16 1   
    17    9   17 1   
    18   10   11 1   
    19   10   30 1   
    20   10   43 1   
    21   11   12 1   
    22   11   18 1   
    23   11   31 1   
    24   12   13 1   
    25   12   15 2   
    26   13   14 1   
    27   13   32 1   
    28   13   44 1   
    29   14   33 1   
    30   18   19 1   
    31   18   23 1   
    32   18   34 1   
    33   19   20 1   
    34   19   35 1   
    35   19   36 1   
    36   20   21 1   
    37   20   37 1   
    38   20   38 1   
    39   21   22 1   
    40   22   23 1   
    41   22   39 1   
    42   22   40 1   
    43   23   41 1   
    44   23   42 1   
@<TRIPOS>SUBSTRUCTURE
     1 915         1 TEMP              0 ****  ****    0 ROOT
