@<TRIPOS>MOLECULE
915
   44    44     1     0     0
SMALL
bcc


@<TRIPOS>ATOM
      1 C1          0.1280    0.4970    0.3410 ca        1 915     -0.676500
      2 C2          1.4440    0.9580    0.0110 ca        1 915      0.041000
      3 C3          2.3840    1.2860    0.9640 ca        1 915     -0.113300
      4 C4          2.0310    1.1600    2.3450 ca        1 915      0.335900
      5 C5          0.7340    0.7020    2.7070 ca        1 915     -0.190000
      6 C6         -0.1780    0.3850    1.7340 ca        1 915      0.054000
      7 F10         2.9100    1.4690    3.2950 f         1 915     -0.036900
      8 C11         3.7340    1.7730    0.5950 c3        1 915     -0.084800
      9 S15        -0.8880    0.2040   -0.7540 s4        1 915      1.714300
     10 N16        -0.6420   -2.2950   -1.3150 n8        1 915     -0.994800
     11 C17        -1.8330   -3.0920   -1.0280 c3        1 915      0.113500
     12 C18        -3.0140   -2.5500   -1.8390 c         1 915      0.520100
     13 N19        -4.2570   -2.1760   -1.0360 ny        1 915     -0.454300
     14 O20        -5.3940   -2.1210   -1.7650 oh        1 915     -0.340300
     15 O21        -3.0910   -2.3770   -3.0410 o         1 915     -0.372100
     16 O22        -2.1610   -0.1780   -0.4110 o         1 915     -0.464400
     17 O23        -0.5870    0.4400   -2.0510 o         1 915     -0.464400
     18 C27        -1.7360   -4.6110   -1.3220 c3        1 915     -0.094700
     19 C29        -1.1910   -4.9180   -2.7080 c3        1 915     -0.125400
     20 C30        -1.0790   -6.4300   -2.8880 c3        1 915      0.123900
     21 O31        -0.2540   -6.9920   -1.8770 os        1 915     -0.381600
     22 C32        -0.7650   -6.7800   -0.5700 c3        1 915      0.123900
     23 C33        -0.8780   -5.2890   -0.2610 c3        1 915     -0.125400
     24 H2          1.7130    1.0650   -1.0610 ha        1 915      0.187000
     25 H5          0.4780    0.6180    3.7810 ha        1 915      0.210000
     26 H6         -1.1890    0.0440    2.0290 ha        1 915      0.169000
     27 H111        3.8710    2.8290    0.9480 hc        1 915      0.090367
     28 H112        3.8940    1.7460   -0.5110 hc        1 915      0.090367
     29 H113        4.5210    1.1430    1.0850 hc        1 915      0.090367
     30 H16         0.1420   -2.7250   -0.8440 hn        1 915      0.417800
     31 H17        -2.0400   -2.9700    0.0800 h1        1 915      0.097700
     32 H19        -4.0920   -1.2550   -0.5720 hn        1 915      0.498300
     33 H20        -5.1970   -1.7470   -2.6610 ho        1 915      0.491000
     34 H27        -2.7800   -5.0320   -1.2480 hc        1 915      0.076700
     35 H291       -1.8620   -4.4950   -3.4990 hc        1 915      0.059450
     36 H292       -0.1680   -4.4780   -2.8390 hc        1 915      0.059450
     37 H301       -0.5500   -6.6810   -3.8480 h1        1 915      0.079950
     38 H302       -2.0940   -6.9060   -2.8730 h1        1 915      0.079950
     39 H321       -0.0120   -7.2710    0.1040 h1        1 915      0.079950
     40 H322       -1.7630   -7.2790   -0.4570 h1        1 915      0.079950
     41 H331        0.1510   -4.8460   -0.2510 hc        1 915      0.059450
     42 H332       -1.3300   -5.1580    0.7550 hc        1 915      0.059450
     43 H162       -0.4480   -2.3020   -2.3080 hn        1 915      0.417800
     44 H192       -4.4410   -2.8940   -0.3040 hn        1 915      0.498300
@<TRIPOS>BOND
     1    1    2 ar  
     2    1    6 ar  
     3    1    9 1   
     4    2    3 ar  
     5    2   24 1   
     6    3    4 ar  
     7    3    8 1   
     8    4    5 ar  
     9    4    7 1   
    10    5    6 ar  
    11    5   25 1   
    12    6   26 1   
    13    8   27 1   
    14    8   28 1   
    15    8   29 1   
    16    9   16 1   
    17    9   17 1   
    18   10   11 1   
    19   10   30 1   
    20   10   43 1   
    21   11   12 1   
    22   11   18 1   
    23   11   31 1   
    24   12   13 1   
    25   12   15 2   
    26   13   14 1   
    27   13   32 1   
    28   13   44 1   
    29   14   33 1   
    30   18   19 1   
    31   18   23 1   
    32   18   34 1   
    33   19   20 1   
    34   19   35 1   
    35   19   36 1   
    36   20   21 1   
    37   20   37 1   
    38   20   38 1   
    39   21   22 1   
    40   22   23 1   
    41   22   39 1   
    42   22   40 1   
    43   23   41 1   
    44   23   42 1   
@<TRIPOS>SUBSTRUCTURE
     1 915         1 TEMP              0 ****  ****    0 ROOT
