@<TRIPOS>MOLECULE
915
   44    44     1     0     0
SMALL
bcc


@<TRIPOS>ATOM
      1 C1          0.1320    0.4940    0.3850 ca        1 915     -0.675500
      2 C2          1.4810    0.9070    0.1360 ca        1 915      0.041000
      3 C3          2.3850    1.1620    1.1450 ca        1 915     -0.113300
      4 C4          1.9580    1.0060    2.5010 ca        1 915      0.332900
      5 C5          0.6260    0.5930    2.7840 ca        1 915     -0.191000
      6 C6         -0.2480    0.3490    1.7560 ca        1 915      0.054000
      7 F10         2.8010    1.2440    3.5030 f         1 915     -0.038900
      8 C11         3.7710    1.6010    0.8590 c3        1 915     -0.083800
      9 S15        -0.8420    0.2820   -0.7680 s4        1 915      1.715300
     10 N16        -0.6450   -2.1930   -1.3610 n3        1 915     -0.996800
     11 C17        -1.8430   -2.9990   -1.1300 c3        1 915      0.116500
     12 C18        -3.0110   -2.4130   -1.9260 c         1 915      0.528100
     13 N19        -4.2550   -2.0150   -1.1150 n4        1 915     -0.461300
     14 O20        -4.6030   -2.9580   -0.2130 oh        1 915     -0.353300
     15 O21        -3.1000   -2.2040   -3.1190 o         1 915     -0.359100
     16 O22        -2.1460   -0.0400   -0.4960 o         1 915     -0.463400
     17 O23        -0.4600    0.5420   -2.0390 o         1 915     -0.463400
     18 C27        -1.7430   -4.5000   -1.5010 c3        1 915     -0.089700
     19 C29        -1.2020   -4.7410   -2.9010 c3        1 915     -0.125900
     20 C30        -1.0920   -6.2420   -3.1550 c3        1 915      0.124400
     21 O31        -0.2690   -6.8560   -2.1750 os        1 915     -0.381600
     22 C32        -0.7750   -6.7050   -0.8570 c3        1 915      0.124400
     23 C33        -0.8850   -5.2310   -0.4760 c3        1 915     -0.125900
     24 H2          1.8070    1.0380   -0.9170 ha        1 915      0.187000
     25 H5          0.3140    0.4840    3.8400 ha        1 915      0.210000
     26 H6         -1.2860    0.0420    1.9900 ha        1 915      0.170000
     27 H111        4.5050    0.9220    1.3650 hc        1 915      0.089700
     28 H112        3.9340    2.6380    1.2540 hc        1 915      0.089700
     29 H113        3.9850    1.6030   -0.2390 hc        1 915      0.089700
     30 H16        -0.4190   -2.1790   -2.3470 hn        1 915      0.416800
     31 H17        -2.0750   -2.9400   -0.0200 h1        1 915      0.114700
     32 H19        -4.0100   -1.1660   -0.5480 hn        1 915      0.498800
     33 H20        -5.1460   -3.6500   -0.6590 ho        1 915      0.485000
     34 H27        -2.7890   -4.9190   -1.4410 hc        1 915      0.068700
     35 H291       -0.1780   -4.2970   -3.0120 hc        1 915      0.060200
     36 H292       -1.8720   -4.2780   -3.6700 hc        1 915      0.060200
     37 H301       -2.1090   -6.7160   -3.1630 h1        1 915      0.078450
     38 H302       -0.5650   -6.4460   -4.1270 h1        1 915      0.078450
     39 H321       -0.0210   -7.2300   -0.2100 h1        1 915      0.078450
     40 H322       -1.7740   -7.2080   -0.7660 h1        1 915      0.078450
     41 H331       -1.3350   -5.1480    0.5460 hc        1 915      0.060200
     42 H332        0.1450   -4.7910   -0.4470 hc        1 915      0.060200
     43 H162        0.1230   -2.6340   -0.8740 hn        1 915      0.416800
     44 H192       -5.0400   -1.7690   -1.7520 hn        1 915      0.498800
@<TRIPOS>BOND
     1    1    2 ar  
     2    1    6 ar  
     3    1    9 1   
     4    2    3 ar  
     5    2   24 1   
     6    3    4 ar  
     7    3    8 1   
     8    4    5 ar  
     9    4    7 1   
    10    5    6 ar  
    11    5   25 1   
    12    6   26 1   
    13    8   27 1   
    14    8   28 1   
    15    8   29 1   
    16    9   16 1   
    17    9   17 1   
    18   10   11 1   
    19   10   30 1   
    20   10   43 1   
    21   11   12 1   
    22   11   18 1   
    23   11   31 1   
    24   12   13 1   
    25   12   15 2   
    26   13   14 1   
    27   13   32 1   
    28   13   44 1   
    29   14   33 1   
    30   18   19 1   
    31   18   23 1   
    32   18   34 1   
    33   19   20 1   
    34   19   35 1   
    35   19   36 1   
    36   20   21 1   
    37   20   37 1   
    38   20   38 1   
    39   21   22 1   
    40   22   23 1   
    41   22   39 1   
    42   22   40 1   
    43   23   41 1   
    44   23   42 1   
@<TRIPOS>SUBSTRUCTURE
     1 915         1 TEMP              0 ****  ****    0 ROOT
