@<TRIPOS>MOLECULE
916
   70    72     1     0     0
SMALL
bcc


@<TRIPOS>ATOM
      1 O21        -3.2470   -2.6660   -0.7070 o         1 916     -0.599100
      2 C6         -3.6540   -1.8530   -1.5590 c         1 916      0.650100
      3 C5         -4.0320   -2.3010   -2.9510 c3        1 916     -0.177100
      4 N7         -3.7280   -0.4890   -1.2980 n         1 916     -0.556900
      5 C8         -3.5710    0.0680    0.0250 c3        1 916      0.085700
      6 C13        -4.6310   -0.4120    1.0360 c3        1 916     -0.074100
      7 C22        -6.0010    0.0330    0.6710 ca        1 916     -0.082300
      8 C27        -6.9780   -0.9010    0.3080 ca        1 916     -0.132000
      9 C26        -8.2680   -0.4820   -0.0170 ca        1 916     -0.128000
     10 C25        -8.5950    0.8730    0.0200 ca        1 916     -0.133000
     11 C24        -7.6280    1.8090    0.3870 ca        1 916     -0.128000
     12 C23        -6.3390    1.3920    0.7130 ca        1 916     -0.132000
     13 C9         -2.1650   -0.1960    0.6360 c3        1 916      0.121100
     14 O1         -2.0890    0.3890    1.9250 oh        1 916     -0.590800
     15 C10        -1.0610    0.3690   -0.2770 c3        1 916      0.143800
     16 N11         0.2640    0.1510    0.2610 n3        1 916     -0.818200
     17 C12         1.3180    0.9040   -0.4020 c3        1 916      0.263800
     18 C15         1.2150    2.4400   -0.2690 c3        1 916     -0.137400
     19 C2          2.4590    3.1610   -0.7830 c3        1 916      0.159800
     20 C4          2.3560    4.6550   -0.4930 c3        1 916     -0.103100
     21 C3          2.6790    2.9220   -2.2700 c3        1 916     -0.103100
     22 C17         2.6710    0.4970    0.0800 cc        1 916     -0.203300
     23 C18         3.0850   -0.8180    0.4540 cc        1 916     -0.091000
     24 C19         4.4110   -0.8560    0.8290 cd        1 916     -0.125400
     25 S20         5.1380    0.6710    0.7190 ss        1 916      0.005200
     26 C16         3.7150    1.4030    0.1890 cd        1 916      0.110000
     27 O14         3.6530    2.7460   -0.0640 os        1 916     -0.296900
     28 C28         5.1430   -2.0350    1.3190 c3        1 916      0.005900
     29 C29         5.7740   -2.9070    0.2250 c3        1 916     -0.052000
     30 C32         4.7100   -3.3960   -0.7430 c3        1 916     -0.087767
     31 C31         6.8360   -2.1230   -0.5310 c3        1 916     -0.087767
     32 C30         6.4280   -4.1090    0.8960 c3        1 916     -0.087767
     33 H1         -3.8890   -3.4070   -3.0230 hc        1 916      0.066700
     34 H2         -5.1010   -2.0590   -3.1640 hc        1 916      0.066700
     35 H3         -3.3860   -1.8020   -3.7120 hc        1 916      0.066700
     36 H4         -4.2790    0.0560   -1.9210 hn        1 916      0.305500
     37 H5         -3.6840    1.1910   -0.0860 h1        1 916      0.044700
     38 H6         -4.5820   -1.5320    1.1110 hc        1 916      0.080700
     39 H7         -4.3600    0.0030    2.0450 hc        1 916      0.080700
     40 H8         -6.7280   -1.9730    0.2860 ha        1 916      0.132500
     41 H9         -9.0300   -1.2240   -0.2980 ha        1 916      0.131500
     42 H10        -9.6120    1.2020   -0.2350 ha        1 916      0.132000
     43 H11        -7.8840    2.8780    0.4240 ha        1 916      0.131500
     44 H12        -5.5830    2.1320    1.0140 ha        1 916      0.132500
     45 H13        -2.0230   -1.3010    0.8150 h1        1 916      0.128700
     46 H14        -2.1830    1.3430    1.8180 ho        1 916      0.390000
     47 H15        -1.1040   -0.1520   -1.2740 h1        1 916      0.032700
     48 H16        -1.2860    1.4640   -0.4530 h1        1 916      0.032700
     49 H17         0.2820    0.2960    1.2530 hn        1 916      0.377800
     50 H19         1.2480    0.6500   -1.5050 h1        1 916      0.062700
     51 H20         0.3330    2.8120   -0.8490 hc        1 916      0.053700
     52 H21         1.0670    2.7130    0.8090 hc        1 916      0.053700
     53 H22         2.2000    4.8280    0.5980 hc        1 916      0.048533
     54 H23         3.2960    5.1700   -0.8030 hc        1 916      0.048533
     55 H24         1.4970    5.0810   -1.0630 hc        1 916      0.048533
     56 H25         1.7680    3.2220   -2.8400 hc        1 916      0.048533
     57 H26         3.5480    3.5240   -2.6280 hc        1 916      0.048533
     58 H27         2.8930    1.8440   -2.4610 hc        1 916      0.048533
     59 H28         2.4090   -1.6780    0.4430 ha        1 916      0.169000
     60 H29         5.9600   -1.7060    2.0180 hc        1 916      0.050200
     61 H30         4.4360   -2.6780    1.9130 hc        1 916      0.050200
     62 H31         5.1700   -4.0430   -1.5280 hc        1 916      0.035478
     63 H32         3.9360   -3.9900   -0.1990 hc        1 916      0.035478
     64 H33         4.2090   -2.5300   -1.2380 hc        1 916      0.035478
     65 H34         7.6710   -1.8390    0.1540 hc        1 916      0.035478
     66 H35         7.2530   -2.7410   -1.3620 hc        1 916      0.035478
     67 H36         6.3960   -1.1920   -0.9630 hc        1 916      0.035478
     68 H37         7.2040   -3.7740    1.6260 hc        1 916      0.035478
     69 H38         5.6640   -4.7140    1.4400 hc        1 916      0.035478
     70 H39         6.9160   -4.7570    0.1290 hc        1 916      0.035478
@<TRIPOS>BOND
     1    1    2 2   
     2    2    3 1   
     3    2    4 1   
     4    3   33 1   
     5    3   34 1   
     6    3   35 1   
     7    4    5 1   
     8    4   36 1   
     9    5    6 1   
    10    5   13 1   
    11    5   37 1   
    12    6    7 1   
    13    6   38 1   
    14    6   39 1   
    15    7    8 ar  
    16    7   12 ar  
    17    8    9 ar  
    18    8   40 1   
    19    9   10 ar  
    20    9   41 1   
    21   10   11 ar  
    22   10   42 1   
    23   11   12 ar  
    24   11   43 1   
    25   12   44 1   
    26   13   14 1   
    27   13   15 1   
    28   13   45 1   
    29   14   46 1   
    30   15   16 1   
    31   15   47 1   
    32   15   48 1   
    33   16   17 1   
    34   16   49 1   
    35   17   18 1   
    36   17   22 1   
    37   17   50 1   
    38   18   19 1   
    39   18   51 1   
    40   18   52 1   
    41   19   20 1   
    42   19   21 1   
    43   19   27 1   
    44   20   53 1   
    45   20   54 1   
    46   20   55 1   
    47   21   56 1   
    48   21   57 1   
    49   21   58 1   
    50   22   23 1   
    51   22   26 2   
    52   23   24 2   
    53   23   59 1   
    54   24   25 1   
    55   24   28 1   
    56   25   26 1   
    57   26   27 1   
    58   28   29 1   
    59   28   60 1   
    60   28   61 1   
    61   29   30 1   
    62   29   31 1   
    63   29   32 1   
    64   30   62 1   
    65   30   63 1   
    66   30   64 1   
    67   31   65 1   
    68   31   66 1   
    69   31   67 1   
    70   32   68 1   
    71   32   69 1   
    72   32   70 1   
@<TRIPOS>SUBSTRUCTURE
     1 916         1 TEMP              0 ****  ****    0 ROOT
