@<TRIPOS>MOLECULE
916
   72    74     1     0     0
SMALL
bcc


@<TRIPOS>ATOM
      1 O21         1.5170    0.1840    0.5900 o         1 916     -0.447100
      2 C6          1.8720   -0.8390    0.0220 c         1 916      0.577100
      3 C5          1.9020   -2.2330    0.5360 c3        1 916     -0.196100
      4 N7          2.3880   -0.6360   -1.3980 ny        1 916     -0.691800
      5 C8          1.3450   -0.2600   -2.4130 c3        1 916      0.091500
      6 C13         0.4570   -1.4610   -2.7820 c3        1 916     -0.053100
      7 C22         1.2260   -2.7140   -3.0070 ca        1 916     -0.179300
      8 C27         0.7880   -3.9090   -2.4220 ca        1 916     -0.142500
      9 C26         1.4530   -5.1060   -2.6920 ca        1 916     -0.104000
     10 C25         2.5570   -5.1180   -3.5460 ca        1 916     -0.086000
     11 C24         2.9940   -3.9290   -4.1340 ca        1 916     -0.104000
     12 C23         2.3300   -2.7330   -3.8700 ca        1 916     -0.142500
     13 C9          0.4440    0.9350   -1.9970 c3        1 916      0.118100
     14 O1         -0.4240    1.2270   -3.0740 oh        1 916     -0.589800
     15 C10         1.2730    2.2220   -1.7740 c3        1 916      0.091800
     16 N11         0.4290    3.4360   -1.6590 ny        1 916     -0.770000
     17 C12         1.2510    4.7320   -1.5970 c3        1 916      0.260800
     18 C15         1.7770    5.1030   -2.9910 c3        1 916     -0.130400
     19 C2          2.0680    6.6030   -3.1310 c3        1 916      0.165800
     20 C4          2.3800    6.9360   -4.5860 c3        1 916     -0.114100
     21 C3          3.2010    7.0440   -2.2200 c3        1 916     -0.114100
     22 C17         0.3940    5.7930   -1.0460 cc        1 916     -0.340300
     23 C18        -0.3540    5.7520    0.1720 cc        1 916     -0.153000
     24 C19        -1.0410    6.9300    0.3900 cd        1 916     -0.090400
     25 S20        -0.7390    8.0630   -0.8220 ss        1 916      0.217200
     26 C16         0.2600    7.0360   -1.6730 cd        1 916      0.126000
     27 O14         0.8740    7.3800   -2.8400 os        1 916     -0.267900
     28 C28        -1.9630    7.1560    1.5200 c3        1 916     -0.017100
     29 C29        -1.8260    8.4990    2.2450 c3        1 916     -0.058000
     30 C32        -0.4060    8.6970    2.7480 c3        1 916     -0.091100
     31 C31        -2.2190    9.6500    1.3320 c3        1 916     -0.091100
     32 C30        -2.7780    8.4790    3.4380 c3        1 916     -0.091100
     33 H1          2.9600   -2.5380    0.7560 hc        1 916      0.130033
     34 H2          1.3170   -2.2760    1.4950 hc        1 916      0.130033
     35 H3          1.4590   -2.9560   -0.2000 hc        1 916      0.130033
     36 H4          3.1060    0.0960   -1.3820 hn        1 916      0.470800
     37 H5          1.9170    0.0460   -3.3450 hx        1 916      0.124700
     38 H6         -0.3230   -1.6140   -1.9890 hc        1 916      0.092200
     39 H7         -0.0750   -1.1920   -3.7400 hc        1 916      0.092200
     40 H8         -0.1050   -3.9190   -1.7770 ha        1 916      0.135500
     41 H9          1.0910   -6.0470   -2.2450 ha        1 916      0.168000
     42 H10         3.0730   -6.0670   -3.7690 ha        1 916      0.173000
     43 H11         3.8530   -3.9410   -4.8260 ha        1 916      0.168000
     44 H12         2.6480   -1.8140   -4.3860 ha        1 916      0.135500
     45 H13        -0.1370    0.6780   -1.0660 h1        1 916      0.085700
     46 H14        -1.1490    0.5820   -3.0730 ho        1 916      0.459000
     47 H15         1.9700    2.3770   -2.6480 hx        1 916      0.108700
     48 H16         1.8680    2.1150   -0.8220 hx        1 916      0.108700
     49 H17        -0.2080    3.4830   -2.4680 hn        1 916      0.463300
     50 H19         2.1110    4.5050   -0.8980 hx        1 916      0.095700
     51 H20         1.0280    4.8340   -3.7850 hc        1 916      0.071700
     52 H21         2.7250    4.5430   -3.1980 hc        1 916      0.071700
     53 H22         2.5580    8.0350   -4.6880 hc        1 916      0.066700
     54 H23         1.5250    6.6560   -5.2460 hc        1 916      0.066700
     55 H24         3.2960    6.3860   -4.9040 hc        1 916      0.066700
     56 H25         2.9650    6.8110   -1.1540 hc        1 916      0.066700
     57 H26         3.3520    8.1480   -2.3160 hc        1 916      0.066700
     58 H27         4.1470    6.5280   -2.5100 hc        1 916      0.066700
     59 H28        -0.3590    4.9040    0.8600 ha        1 916      0.143000
     60 H29        -1.8090    6.3370    2.2770 hc        1 916      0.064700
     61 H30        -3.0210    7.0640    1.1440 hc        1 916      0.064700
     62 H31        -0.3270    9.6650    3.3000 hc        1 916      0.044256
     63 H32         0.3150    8.7150    1.8950 hc        1 916      0.044256
     64 H33        -0.1200    7.8700    3.4410 hc        1 916      0.044256
     65 H34        -3.2440    9.4930    0.9170 hc        1 916      0.044256
     66 H35        -2.2130   10.6100    1.9050 hc        1 916      0.044256
     67 H36        -1.4960    9.7640    0.4830 hc        1 916      0.044256
     68 H37        -2.5090    7.6520    4.1380 hc        1 916      0.044256
     69 H38        -3.8300    8.3340    3.0950 hc        1 916      0.044256
     70 H39        -2.7150    9.4470    3.9910 hc        1 916      0.044256
     71 H72         2.8180   -1.5200   -1.7260 hn        1 916      0.470800
     72 H112       -0.1490    3.3870   -0.8100 hn        1 916      0.463300
@<TRIPOS>BOND
     1    1    2 2   
     2    2    3 1   
     3    2    4 1   
     4    3   33 1   
     5    3   34 1   
     6    3   35 1   
     7    4    5 1   
     8    4   36 1   
     9    4   71 1   
    10    5    6 1   
    11    5   13 1   
    12    5   37 1   
    13    6    7 1   
    14    6   38 1   
    15    6   39 1   
    16    7    8 ar  
    17    7   12 ar  
    18    8    9 ar  
    19    8   40 1   
    20    9   10 ar  
    21    9   41 1   
    22   10   11 ar  
    23   10   42 1   
    24   11   12 ar  
    25   11   43 1   
    26   12   44 1   
    27   13   14 1   
    28   13   15 1   
    29   13   45 1   
    30   14   46 1   
    31   15   16 1   
    32   15   47 1   
    33   15   48 1   
    34   16   17 1   
    35   16   49 1   
    36   16   72 1   
    37   17   18 1   
    38   17   22 1   
    39   17   50 1   
    40   18   19 1   
    41   18   51 1   
    42   18   52 1   
    43   19   20 1   
    44   19   21 1   
    45   19   27 1   
    46   20   53 1   
    47   20   54 1   
    48   20   55 1   
    49   21   56 1   
    50   21   57 1   
    51   21   58 1   
    52   22   23 1   
    53   22   26 2   
    54   23   24 2   
    55   23   59 1   
    56   24   25 1   
    57   24   28 1   
    58   25   26 1   
    59   26   27 1   
    60   28   29 1   
    61   28   60 1   
    62   28   61 1   
    63   29   30 1   
    64   29   31 1   
    65   29   32 1   
    66   30   62 1   
    67   30   63 1   
    68   30   64 1   
    69   31   65 1   
    70   31   66 1   
    71   31   67 1   
    72   32   68 1   
    73   32   69 1   
    74   32   70 1   
@<TRIPOS>SUBSTRUCTURE
     1 916         1 TEMP              0 ****  ****    0 ROOT
