@<TRIPOS>MOLECULE
916
   72    74     1     0     0
SMALL
bcc


@<TRIPOS>ATOM
      1 O21         1.5200    0.1960    0.6060 o         1 916     -0.447100
      2 C6          1.8790   -0.8290    0.0450 c         1 916      0.577100
      3 C5          1.9110   -2.2200    0.5670 c3        1 916     -0.196100
      4 N7          2.3980   -0.6320   -1.3740 n4        1 916     -0.691800
      5 C8          1.3570   -0.2640   -2.3940 c3        1 916      0.091500
      6 C13         0.4740   -1.4700   -2.7610 c3        1 916     -0.053100
      7 C22         1.2470   -2.7220   -2.9750 ca        1 916     -0.179300
      8 C27         0.8110   -3.9150   -2.3860 ca        1 916     -0.142500
      9 C26         1.4790   -5.1120   -2.6480 ca        1 916     -0.104000
     10 C25         2.5860   -5.1250   -3.4970 ca        1 916     -0.086000
     11 C24         3.0220   -3.9380   -4.0910 ca        1 916     -0.104000
     12 C23         2.3540   -2.7420   -3.8350 ca        1 916     -0.142500
     13 C9          0.4520    0.9310   -1.9880 c3        1 916      0.118100
     14 O1         -0.4140    1.2140   -3.0680 oh        1 916     -0.589800
     15 C10         1.2760    2.2210   -1.7690 c3        1 916      0.091800
     16 N11         0.4290    3.4330   -1.6620 n4        1 916     -0.770000
     17 C12         1.2470    4.7310   -1.6060 c3        1 916      0.260800
     18 C15         1.7740    5.0980   -3.0010 c3        1 916     -0.130400
     19 C2          2.0610    6.5980   -3.1480 c3        1 916      0.165800
     20 C4          2.3730    6.9240   -4.6040 c3        1 916     -0.114100
     21 C3          3.1910    7.0460   -2.2370 c3        1 916     -0.114100
     22 C17         0.3860    5.7930   -1.0600 cc        1 916     -0.340300
     23 C18        -0.3630    5.7550    0.1570 cc        1 916     -0.153000
     24 C19        -1.0540    6.9320    0.3680 cd        1 916     -0.090400
     25 S20        -0.7540    8.0600   -0.8490 ss        1 916      0.217200
     26 C16         0.2490    7.0320   -1.6940 cd        1 916      0.126000
     27 O14         0.8630    7.3730   -2.8620 os        1 916     -0.267900
     28 C28        -1.9780    7.1610    1.4960 c3        1 916     -0.017100
     29 C29        -1.8460    8.5080    2.2140 c3        1 916     -0.058000
     30 C32        -0.4270    8.7110    2.7190 c3        1 916     -0.091100
     31 C31        -2.2400    9.6540    1.2960 c3        1 916     -0.091100
     32 C30        -2.8000    8.4910    3.4060 c3        1 916     -0.091100
     33 H1          1.4710   -2.9480   -0.1670 hc        1 916      0.130033
     34 H2          2.9690   -2.5220    0.7920 hc        1 916      0.130033
     35 H3          1.3220   -2.2590    1.5240 hc        1 916      0.130033
     36 H4          2.8320   -1.5170   -1.6960 hn        1 916      0.470800
     37 H5          1.9320    0.0380   -3.3260 hx        1 916      0.124700
     38 H6         -0.0560   -1.2070   -3.7210 hc        1 916      0.092200
     39 H7         -0.3080   -1.6210   -1.9690 hc        1 916      0.092200
     40 H8         -0.0850   -3.9240   -1.7440 ha        1 916      0.135500
     41 H9          1.1190   -6.0510   -2.1960 ha        1 916      0.168000
     42 H10         3.1060   -6.0740   -3.7140 ha        1 916      0.173000
     43 H11         3.8830   -3.9520   -4.7800 ha        1 916      0.168000
     44 H12         2.6710   -1.8250   -4.3550 ha        1 916      0.135500
     45 H13        -0.1310    0.6760   -1.0570 h1        1 916      0.085700
     46 H14        -1.1370    0.5670   -3.0670 ho        1 916      0.459000
     47 H15         1.9750    2.3730   -2.6420 hx        1 916      0.108700
     48 H16         1.8700    2.1210   -0.8160 hx        1 916      0.108700
     49 H17        -0.2060    3.4730   -2.4740 hn        1 916      0.463300
     50 H19         2.1070    4.5110   -0.9040 hx        1 916      0.095700
     51 H20         1.0260    4.8230   -3.7940 hc        1 916      0.071700
     52 H21         2.7240    4.5390   -3.2030 hc        1 916      0.071700
     53 H22         1.5200    6.6390   -5.2630 hc        1 916      0.066700
     54 H23         2.5480    8.0230   -4.7110 hc        1 916      0.066700
     55 H24         3.2920    6.3760   -4.9180 hc        1 916      0.066700
     56 H25         3.3390    8.1500   -2.3380 hc        1 916      0.066700
     57 H26         4.1380    6.5320   -2.5240 hc        1 916      0.066700
     58 H27         2.9540    6.8180   -1.1700 hc        1 916      0.066700
     59 H28        -0.3670    4.9100    0.8480 ha        1 916      0.143000
     60 H29        -3.0350    7.0640    1.1180 hc        1 916      0.064700
     61 H30        -1.8230    6.3450    2.2560 hc        1 916      0.064700
     62 H31        -0.3520    9.6820    3.2660 hc        1 916      0.044256
     63 H32        -0.1410    7.8880    3.4160 hc        1 916      0.044256
     64 H33         0.2950    8.7280    1.8670 hc        1 916      0.044256
     65 H34        -2.2380   10.6160    1.8640 hc        1 916      0.044256
     66 H35        -1.5160    9.7650    0.4480 hc        1 916      0.044256
     67 H36        -3.2640    9.4920    0.8800 hc        1 916      0.044256
     68 H37        -2.7390    9.4610    3.9550 hc        1 916      0.044256
     69 H38        -3.8510    8.3410    3.0620 hc        1 916      0.044256
     70 H39        -2.5300    7.6680    4.1100 hc        1 916      0.044256
     71 H72         3.1150    0.1020   -1.3600 hn        1 916      0.470800
     72 H112       -0.1500    3.3860   -0.8140 hn        1 916      0.463300
@<TRIPOS>BOND
     1    1    2 2   
     2    2    3 1   
     3    2    4 1   
     4    3   33 1   
     5    3   34 1   
     6    3   35 1   
     7    4    5 1   
     8    4   36 1   
     9    4   71 1   
    10    5    6 1   
    11    5   13 1   
    12    5   37 1   
    13    6    7 1   
    14    6   38 1   
    15    6   39 1   
    16    7    8 ar  
    17    7   12 ar  
    18    8    9 ar  
    19    8   40 1   
    20    9   10 ar  
    21    9   41 1   
    22   10   11 ar  
    23   10   42 1   
    24   11   12 ar  
    25   11   43 1   
    26   12   44 1   
    27   13   14 1   
    28   13   15 1   
    29   13   45 1   
    30   14   46 1   
    31   15   16 1   
    32   15   47 1   
    33   15   48 1   
    34   16   17 1   
    35   16   49 1   
    36   16   72 1   
    37   17   18 1   
    38   17   22 1   
    39   17   50 1   
    40   18   19 1   
    41   18   51 1   
    42   18   52 1   
    43   19   20 1   
    44   19   21 1   
    45   19   27 1   
    46   20   53 1   
    47   20   54 1   
    48   20   55 1   
    49   21   56 1   
    50   21   57 1   
    51   21   58 1   
    52   22   23 1   
    53   22   26 2   
    54   23   24 2   
    55   23   59 1   
    56   24   25 1   
    57   24   28 1   
    58   25   26 1   
    59   26   27 1   
    60   28   29 1   
    61   28   60 1   
    62   28   61 1   
    63   29   30 1   
    64   29   31 1   
    65   29   32 1   
    66   30   62 1   
    67   30   63 1   
    68   30   64 1   
    69   31   65 1   
    70   31   66 1   
    71   31   67 1   
    72   32   68 1   
    73   32   69 1   
    74   32   70 1   
@<TRIPOS>SUBSTRUCTURE
     1 916         1 TEMP              0 ****  ****    0 ROOT
