@<TRIPOS>MOLECULE
916
   70    65     1     0     0
SMALL
bcc


@<TRIPOS>ATOM
      1 O21         5.1830   -2.4570    1.4180 o         1 916     -0.383000
      2 C6          4.1250   -2.6220    2.0040 c1        1 916      0.300000
      3 C5          4.1240   -3.0970    3.4820 c3        1 916     -0.243000
      4 N7          2.8880   -2.4940    1.2960 n2        1 916     -0.376000
      5 C8          2.8810   -2.5030   -0.1350 c3        1 916     -0.006000
      6 C13         1.7780   -3.4080   -0.6290 c3        1 916     -0.137000
      7 C22         2.3850   -4.8260   -1.0170 c1        1 916     -0.083000
      8 C27         2.1960   -5.9240   -0.1610 c1        1 916     -0.139000
      9 C26         2.6230   -7.1880   -0.5480 c1        1 916     -0.125500
     10 C25         3.2410   -7.3690   -1.7890 c1        1 916     -0.125500
     11 C24         3.4300   -6.2790   -2.6400 c1        1 916     -0.125500
     12 C23         3.0000   -5.0040   -2.2510 c1        1 916     -0.125500
     13 C9          2.6460   -1.0900   -0.6510 c3        1 916      0.022000
     14 O1          3.7410   -0.2930   -0.3290 oh        1 916     -0.334000
     15 C10         1.3900   -0.5140   -0.0070 c3        1 916     -0.091000
     16 N11         0.6320    0.2090   -0.9960 n3        1 916     -0.298000
     17 C12         0.3520    1.6400   -0.4820 c3        1 916      0.038000
     18 C15         0.8410    2.5190   -1.4010 c3        1 916     -0.172000
     19 C2         -0.0530    2.8620   -2.5540 c3        1 916      0.081000
     20 C4         -0.1750    1.6200   -3.4420 c3        1 916     -0.220000
     21 C3          0.6520    3.9860   -3.3840 c3        1 916     -0.220000
     22 C17        -1.1610    1.7450   -0.1660 c2        1 916     -0.236000
     23 C18        -1.9220    1.5320    1.2020 c1        1 916     -0.107000
     24 C19        -3.1960    2.3160    1.1590 c1        1 916     -0.383000
     25 S20        -3.2720    3.0410   -0.2310 ss        1 916      0.541000
     26 C16        -1.9880    2.6630   -1.0310 c1        1 916     -0.190000
     27 O14        -1.3070    3.2870   -2.2550 o         1 916     -0.183000
     28 C28        -4.3460    2.2710    2.2410 c2        1 916     -0.081000
     29 C29        -5.1120    3.6380    2.2410 c3        1 916     -0.053000
     30 C32        -5.9690    3.7460    0.9680 c3        1 916     -0.206333
     31 C31        -4.1210    4.7640    2.2750 c3        1 916     -0.206333
     32 C30        -6.0260    3.7230    3.4830 c3        1 916     -0.206333
     33 H1          5.0370   -3.0170    3.8530 hc        1 916      0.107000
     34 H2          3.5090   -2.5410    4.0030 hc        1 916      0.107000
     35 H3          3.8320   -4.0440    3.5260 hc        1 916      0.107000
     36 H4          2.0900   -2.4890    1.7610 hn        1 916      0.224000
     37 H5          3.7330   -2.8270   -0.4600 h1        1 916      0.118000
     38 H6          1.3510   -3.0030   -1.4250 hc        1 916      0.103000
     39 H7          1.1010   -3.5230    0.0860 hc        1 916      0.103000
     40 H8          1.7610   -5.7980    0.7120 ha        1 916      0.129000
     41 H9          2.4870   -7.9720    0.0640 ha        1 916      0.135000
     42 H10         3.5530   -8.2910   -2.0710 ha        1 916      0.135000
     43 H11         3.8700   -6.4080   -3.5230 ha        1 916      0.135000
     44 H12         3.1370   -4.2210   -2.8630 ha        1 916      0.135000
     45 H13         2.5340   -1.1110   -1.6210 h1        1 916      0.127000
     46 H14         4.2020   -0.1000   -1.0750 ho        1 916      0.225000
     47 H15         1.6460    0.1000    0.7250 h1        1 916      0.075000
     48 H16         0.8370   -1.2540    0.3600 h1        1 916      0.075000
     49 H17        -0.1410   -0.2100   -1.1450 hn        1 916      0.155000
     50 H19         0.8670    1.7710    0.3840 h1        1 916      0.137000
     51 H20         1.6560    2.1550   -1.7560 hc        1 916      0.103000
     52 H21         1.0580    3.3530   -0.9330 hc        1 916      0.103000
     53 H22         0.7160    1.2310   -3.5860 hc        1 916      0.086667
     54 H23        -0.5660    1.8720   -4.3080 hc        1 916      0.086667
     55 H24        -0.7530    0.9610   -3.0030 hc        1 916      0.086667
     56 H25         1.4780    3.6320   -3.7780 hc        1 916      0.086667
     57 H26         0.8700    4.7430   -2.7900 hc        1 916      0.086667
     58 H27         0.0380    4.3000   -4.1160 hc        1 916      0.086667
     59 H28        -1.6080    0.9770    1.9570 DU        1 916      0.157000
     60 H29        -4.9720    1.5450    2.0240 ha        1 916      0.088500
     61 H30        -3.9540    2.1130    3.1340 ha        1 916      0.088500
     62 H31        -6.6120    3.0060    0.9440 hc        1 916      0.075556
     63 H32        -6.4510    4.5940    0.9710 hc        1 916      0.075556
     64 H33        -5.3930    3.7010    0.1830 hc        1 916      0.075556
     65 H34        -3.5750    4.6950    3.0880 hc        1 916      0.075556
     66 H35        -4.6000    5.6230    2.2730 hc        1 916      0.075556
     67 H36        -3.5420    4.7110    1.4910 hc        1 916      0.075556
     68 H37        -5.4730    3.6850    4.3040 hc        1 916      0.075556
     69 H38        -6.6540    2.9710    3.4780 hc        1 916      0.075556
     70 H39        -6.5310    4.5780    3.4630 hc        1 916      0.075556
@<TRIPOS>BOND
     1    1    2 1   
     2    2    3 1   
     3    3   33 1   
     4    3   34 1   
     5    3   35 1   
     6    4    5 1   
     7    4   36 1   
     8    5    6 1   
     9    5   13 1   
    10    5   37 1   
    11    6    7 1   
    12    6   38 1   
    13    6   39 1   
    14    7    8 1   
    15    8   40 1   
    16    9   10 1   
    17    9   41 1   
    18   10   42 1   
    19   11   12 1   
    20   11   43 1   
    21   12   44 1   
    22   13   14 1   
    23   13   15 1   
    24   13   45 1   
    25   14   46 1   
    26   15   16 1   
    27   15   47 1   
    28   15   48 1   
    29   16   17 1   
    30   16   49 1   
    31   17   18 1   
    32   17   22 1   
    33   17   50 1   
    34   18   19 1   
    35   18   51 1   
    36   18   52 1   
    37   19   20 1   
    38   19   21 1   
    39   19   27 1   
    40   20   53 1   
    41   20   54 1   
    42   20   55 1   
    43   21   56 1   
    44   21   57 1   
    45   21   58 1   
    46   22   23 1   
    47   22   26 1   
    48   23   24 1   
    49   24   25 1   
    50   25   26 1   
    51   28   29 1   
    52   28   60 1   
    53   28   61 1   
    54   29   30 1   
    55   29   31 1   
    56   29   32 1   
    57   30   62 1   
    58   30   63 1   
    59   30   64 1   
    60   31   65 1   
    61   31   66 1   
    62   31   67 1   
    63   32   68 1   
    64   32   69 1   
    65   32   70 1   
@<TRIPOS>SUBSTRUCTURE
     1 916         1 TEMP              0 ****  ****    0 ROOT
