@<TRIPOS>MOLECULE
916
   72    74     1     0     0
SMALL
bcc


@<TRIPOS>ATOM
      1 O21         1.5500    0.2010    0.6090 o         1 916     -0.447100
      2 C6          1.9100   -0.8240    0.0470 c         1 916      0.577100
      3 C5          1.9540   -2.2130    0.5710 c3        1 916     -0.196100
      4 N7          2.4170   -0.6270   -1.3770 n4        1 916     -0.691800
      5 C8          1.3650   -0.2670   -2.3890 c3        1 916      0.091500
      6 C13         0.4840   -1.4770   -2.7450 c3        1 916     -0.053100
      7 C22         1.2610   -2.7260   -2.9640 ca        1 916     -0.179300
      8 C27         0.8360   -3.9200   -2.3680 ca        1 916     -0.142500
      9 C26         1.5080   -5.1140   -2.6340 ca        1 916     -0.104000
     10 C25         2.6080   -5.1230   -3.4940 ca        1 916     -0.086000
     11 C24         3.0320   -3.9350   -4.0930 ca        1 916     -0.104000
     12 C23         2.3610   -2.7420   -3.8340 ca        1 916     -0.142500
     13 C9          0.4570    0.9250   -1.9770 c3        1 916      0.118100
     14 O1         -0.4190    1.2020   -3.0510 oh        1 916     -0.589800
     15 C10         1.2770    2.2200   -1.7680 c3        1 916      0.091800
     16 N11         0.4250    3.4280   -1.6580 n4        1 916     -0.770000
     17 C12         1.2380    4.7300   -1.6100 c3        1 916      0.260800
     18 C15         1.7560    5.0940   -3.0090 c3        1 916     -0.130400
     19 C2          2.0350    6.5950   -3.1620 c3        1 916      0.165800
     20 C4          2.3380    6.9180   -4.6210 c3        1 916     -0.114100
     21 C3          3.1680    7.0520   -2.2590 c3        1 916     -0.114100
     22 C17         0.3750    5.7900   -1.0630 cc        1 916     -0.340300
     23 C18        -0.3670    5.7530    0.1580 cc        1 916     -0.153000
     24 C19        -1.0620    6.9270    0.3690 cd        1 916     -0.090400
     25 S20        -0.7740    8.0530   -0.8540 ss        1 916      0.217200
     26 C16         0.2300    7.0270   -1.7010 cd        1 916      0.126000
     27 O14         0.8360    7.3660   -2.8730 os        1 916     -0.267900
     28 C28        -1.9810    7.1550    1.5010 c3        1 916     -0.017100
     29 C29        -1.8520    8.5060    2.2140 c3        1 916     -0.058000
     30 C32        -0.4310    8.7190    2.7100 c3        1 916     -0.091100
     31 C31        -2.2570    9.6460    1.2940 c3        1 916     -0.091100
     32 C30        -2.7980    8.4890    3.4110 c3        1 916     -0.091100
     33 H1          1.5120   -2.9450   -0.1570 hc        1 916      0.130033
     34 H2          1.3740   -2.2540    1.5340 hc        1 916      0.130033
     35 H3          3.0150   -2.5090    0.7870 hc        1 916      0.130033
     36 H4          2.8520   -1.5100   -1.7010 hn        1 916      0.470800
     37 H5          1.9300    0.0370   -3.3270 hx        1 916      0.124700
     38 H6         -0.2900   -1.6300   -1.9460 hc        1 916      0.092200
     39 H7         -0.0560   -1.2190   -3.7010 hc        1 916      0.092200
     40 H8         -0.0530   -3.9320   -1.7190 ha        1 916      0.135500
     41 H9          1.1570   -6.0540   -2.1780 ha        1 916      0.168000
     42 H10         3.1300   -6.0700   -3.7130 ha        1 916      0.173000
     43 H11         3.8870   -3.9460   -4.7900 ha        1 916      0.168000
     44 H12         2.6680   -1.8250   -4.3580 ha        1 916      0.135500
     45 H13        -0.1160    0.6700   -1.0410 h1        1 916      0.085700
     46 H14        -1.1390    0.5520   -3.0420 ho        1 916      0.459000
     47 H15         1.9690    2.3730   -2.6470 hx        1 916      0.108200
     48 H16         1.8790    2.1240   -0.8190 hx        1 916      0.108200
     49 H17        -0.2160    3.4640   -2.4650 hn        1 916      0.463300
     50 H19         2.1030    4.5160   -0.9120 hx        1 916      0.095700
     51 H20         1.0050    4.8140   -3.7970 hc        1 916      0.071700
     52 H21         2.7070    4.5400   -3.2150 hc        1 916      0.071700
     53 H22         2.5070    8.0180   -4.7320 hc        1 916      0.066700
     54 H23         3.2580    6.3730   -4.9390 hc        1 916      0.066700
     55 H24         1.4830    6.6270   -5.2750 hc        1 916      0.066700
     56 H25         2.9380    6.8260   -1.1900 hc        1 916      0.066700
     57 H26         4.1170    6.5410   -2.5500 hc        1 916      0.066700
     58 H27         3.3110    8.1560   -2.3640 hc        1 916      0.066700
     59 H28        -0.3630    4.9100    0.8520 ha        1 916      0.143000
     60 H29        -1.8170    6.3440    2.2640 hc        1 916      0.064700
     61 H30        -3.0400    7.0520    1.1300 hc        1 916      0.064700
     62 H31        -0.3570    9.6920    3.2530 hc        1 916      0.044256
     63 H32         0.2860    8.7360    1.8540 hc        1 916      0.044256
     64 H33        -0.1360    7.8990    3.4080 hc        1 916      0.044256
     65 H34        -3.2820    9.4780    0.8840 hc        1 916      0.044256
     66 H35        -1.5380    9.7580    0.4410 hc        1 916      0.044256
     67 H36        -2.2560   10.6110    1.8590 hc        1 916      0.044256
     68 H37        -3.8510    8.3320    3.0740 hc        1 916      0.044256
     69 H38        -2.5200    7.6700    4.1170 hc        1 916      0.044256
     70 H39        -2.7400    9.4610    3.9570 hc        1 916      0.044256
     71 H72         3.1290    0.1110   -1.3710 hn        1 916      0.470800
     72 H112       -0.1480    3.3810   -0.8050 hn        1 916      0.463300
@<TRIPOS>BOND
     1    1    2 2   
     2    2    3 1   
     3    2    4 1   
     4    3   33 1   
     5    3   34 1   
     6    3   35 1   
     7    4    5 1   
     8    4   36 1   
     9    4   71 1   
    10    5    6 1   
    11    5   13 1   
    12    5   37 1   
    13    6    7 1   
    14    6   38 1   
    15    6   39 1   
    16    7    8 ar  
    17    7   12 ar  
    18    8    9 ar  
    19    8   40 1   
    20    9   10 ar  
    21    9   41 1   
    22   10   11 ar  
    23   10   42 1   
    24   11   12 ar  
    25   11   43 1   
    26   12   44 1   
    27   13   14 1   
    28   13   15 1   
    29   13   45 1   
    30   14   46 1   
    31   15   16 1   
    32   15   47 1   
    33   15   48 1   
    34   16   17 1   
    35   16   49 1   
    36   16   72 1   
    37   17   18 1   
    38   17   22 1   
    39   17   50 1   
    40   18   19 1   
    41   18   51 1   
    42   18   52 1   
    43   19   20 1   
    44   19   21 1   
    45   19   27 1   
    46   20   53 1   
    47   20   54 1   
    48   20   55 1   
    49   21   56 1   
    50   21   57 1   
    51   21   58 1   
    52   22   23 1   
    53   22   26 2   
    54   23   24 2   
    55   23   59 1   
    56   24   25 1   
    57   24   28 1   
    58   25   26 1   
    59   26   27 1   
    60   28   29 1   
    61   28   60 1   
    62   28   61 1   
    63   29   30 1   
    64   29   31 1   
    65   29   32 1   
    66   30   62 1   
    67   30   63 1   
    68   30   64 1   
    69   31   65 1   
    70   31   66 1   
    71   31   67 1   
    72   32   68 1   
    73   32   69 1   
    74   32   70 1   
@<TRIPOS>SUBSTRUCTURE
     1 916         1 TEMP              0 ****  ****    0 ROOT
