@<TRIPOS>MOLECULE
919
   70    70     1     0     0
SMALL
bcc


@<TRIPOS>ATOM
      1 C1         -0.3840    1.3180   -0.5580 ca        1 919     -0.058000
      2 C2          0.9360    0.8740   -0.3360 ca        1 919     -0.053000
      3 C3          1.8890    1.7660    0.1330 ca        1 919     -0.156500
      4 C4          1.5620    3.1160    0.4000 ca        1 919      0.049000
      5 C5          0.2380    3.5450    0.1620 ca        1 919     -0.156500
      6 C6         -0.7270    2.6620   -0.2990 ca        1 919     -0.053000
      7 C9          2.4970    5.0440    1.6810 c1        1 919      0.004000
      8 N10         2.5610    4.0040    0.8700 nu        1 919     -0.176000
      9 C13         1.3190    6.6830    3.0050 c1        1 919      0.364000
     10 C14         1.3170    5.5270    2.3560 c2        1 919     -0.567000
     11 C22         5.0090    1.8020  -10.1870 c2        1 919      0.151000
     12 N23         4.8270    2.8750   -9.3240 n7        1 919     -0.272000
     13 C24         5.4060    2.9410   -8.0650 c2        1 919      0.098000
     14 C25         6.0380    1.9440   -7.4670 c1        1 919     -0.400000
     15 C26         6.7320    1.0130   -6.8840 c2        1 919      0.103000
     16 C27         4.4270    1.7000  -11.3600 c1        1 919     -0.404000
     17 C34         2.5500   -0.3130   -6.6500 c3        1 919     -0.152000
     18 C35         3.9800   -0.0370   -6.8680 c2        1 919     -0.170000
     19 C36         4.8870   -0.1260   -5.8720 c2        1 919      0.046000
     20 C37         4.5030   -0.5220   -4.5370 c2        1 919     -0.040000
     21 C38         3.2060   -0.8350   -4.2450 c2        1 919      0.008000
     22 C39         2.1460   -0.7940   -5.2720 c2        1 919      0.152000
     23 C46        -3.3080   -0.6610   -1.3340 c2        1 919     -0.076000
     24 C47        -2.4840   -1.2680   -2.2580 c2        1 919     -0.057000
     25 C48        -1.1440   -0.6100   -2.1650 c2        1 919      0.028000
     26 N49        -1.3790    0.4000   -1.0310 na        1 919      0.049000
     27 N50        -2.5740    0.3610   -0.6180 n2        1 919      0.111000
     28 C58         0.1880   -1.8080   -3.8210 c3        1 919      0.306000
     29 N60         0.9030   -1.1530   -5.0700 n7        1 919     -0.202000
     30 O63        -0.8670   -2.3590   -4.2930 o         1 919     -0.525000
     31 O72         4.4080    5.0720   -7.5730 o         1 919     -0.254000
     32 N74         3.2570    1.7080  -13.5740 n2        1 919     -0.196000
     33 C76         3.8670    1.6370  -12.5000 c1        1 919      0.140000
     34 C81        -1.0380   -2.0730   -7.7430 c3        1 919     -0.287000
     35 C83        -5.4030   -0.3260   -0.0890 c2        1 919     -0.138000
     36 C85        -5.3100   -1.9860   -1.9250 c3        1 919     -0.189000
     37 H2          1.2290   -0.1750   -0.5140 ha        1 919      0.165500
     38 H3          2.9140    1.3980    0.3080 ha        1 919      0.166500
     39 H6         -1.7530    3.0310   -0.4710 ha        1 919      0.165500
     40 H9          3.4900    3.7700    0.5720 hn        1 919      0.262000
     41 H13        -0.0430    4.6010    0.3240 ha        1 919      0.166500
     42 H14         0.3900    4.9170    2.4070 ha        1 919      0.179000
     43 H22         5.6930    1.0120   -9.8080 h4        1 919      0.153000
     44 H25         4.2610    0.2620   -7.8930 ha        1 919      0.181000
     45 H27         7.8280    0.8640   -6.9590 h4        1 919      0.197000
     46 H34         2.2200   -1.0790   -7.4160 hc        1 919      0.158000
     47 H35         1.9710    0.6350   -6.8720 hc        1 919      0.158000
     48 H37         5.2900   -0.5740   -3.7630 ha        1 919      0.192000
     49 H47        -2.6710   -2.0780   -2.9750 ha        1 919      0.251000
     50 HN56        1.0010   -2.4320   -3.3320 h3        1 919      0.136000
     51 HN60        0.2630   -1.1300   -5.8560 hn        1 919      0.254000
     52 HN74        5.9980    4.3540   -6.4760 h4        1 919      0.131000
     53 H76         3.3450    0.9870  -14.2570 hn        1 919      0.206000
     54 H76A        0.0430    7.5950  -14.6790 ha        1 919      0.000000
     55 H76B        0.0310    7.3370  -14.0540 ha        1 919      0.000000
     56 H81         0.0540   -2.1220   -7.9510 hc        1 919      0.072500
     57 H81A       -1.3770   -1.0150   -7.7730 hc        1 919      0.072500
     58 H81B       -1.5820   -2.6540   -8.5200 hc        1 919      0.072500
     59 H83        -4.9850    0.4450    0.5730 ha        1 919      0.137000
     60 H83A       -1.2530   -2.5100   -6.7400 hc        1 919      0.072500
     61 H83B       -6.4600   -0.5690    0.0950 ha        1 919      0.137000
     62 H85        -6.3880   -2.1390   -1.6710 hc        1 919      0.098333
     63 H85A       -4.7750   -2.9600   -1.7960 hc        1 919      0.098333
     64 H85B       -5.2410   -1.6850   -3.0000 hc        1 919      0.098333
     65 N56        -0.0410   -0.7130   -2.7850 n2        1 919     -0.158000
     66 O65         6.2550    0.0440   -6.0100 os        1 919     -0.156000
     67 H742        4.3250    3.6790   -9.6400 hn        1 919      0.262000
     68 C79        -4.7060   -0.9430   -1.0530 c2        1 919     -0.085000
     69 F68         2.8760   -1.2050   -2.9830 f         1 919     -0.086000
     70 C70         5.2660    4.2350   -7.3030 c2        1 919      0.213000
@<TRIPOS>BOND
     1    1    2 1   
     2    1    6 1   
     3    1   26 1   
     4    2    3 1   
     5    2   37 1   
     6    3    4 1   
     7    3   38 1   
     8    4    5 1   
     9    4    8 1   
    10    5    6 1   
    11    5   41 1   
    12    6   39 1   
    13    7    8 1   
    14    7   10 1   
    15    8   40 1   
    16    9   10 1   
    17   10   42 1   
    18   11   12 1   
    19   11   16 1   
    20   11   43 1   
    21   12   13 1   
    22   12   67 1   
    23   13   14 1   
    24   13   70 1   
    25   14   15 1   
    26   15   45 1   
    27   15   66 1   
    28   16   33 1   
    29   17   18 1   
    30   17   22 1   
    31   17   46 1   
    32   17   47 1   
    33   18   19 1   
    34   18   44 1   
    35   19   20 1   
    36   19   66 1   
    37   20   21 1   
    38   20   48 1   
    39   21   22 1   
    40   21   69 1   
    41   22   29 1   
    42   23   24 1   
    43   23   27 1   
    44   23   68 1   
    45   24   25 1   
    46   24   49 1   
    47   25   26 1   
    48   25   65 1   
    49   26   27 1   
    50   28   29 1   
    51   28   30 1   
    52   28   50 1   
    53   28   65 1   
    54   29   51 1   
    55   31   70 1   
    56   32   33 1   
    57   32   53 1   
    58   34   56 1   
    59   34   57 1   
    60   34   58 1   
    61   34   60 1   
    62   35   59 1   
    63   35   61 1   
    64   35   68 1   
    65   36   62 1   
    66   36   63 1   
    67   36   64 1   
    68   36   68 1   
    69   52   70 1   
    70   54   55 1   
@<TRIPOS>SUBSTRUCTURE
     1 919         1 TEMP              0 ****  ****    0 ROOT
