@<TRIPOS>MOLECULE
919
   69    71     1     0     0
SMALL
bcc


@<TRIPOS>ATOM
      1 C1         -0.2510    0.1020    0.2720 ca        1 919      0.044000
      2 C2          1.1230   -0.3880    0.3800 ca        1 919     -0.136000
      3 C3          1.9280    0.0420    1.3670 ca        1 919     -0.108000
      4 C4          1.4780    1.0520    2.3490 ca        1 919      0.046000
      5 C5          0.0020    1.1690    2.4670 ca        1 919     -0.110000
      6 C6         -0.7820    0.8400    1.2880 ca        1 919     -0.101000
      7 C9         -0.0130    1.8070    4.8740 c2        1 919     -0.484000
      8 N10         2.3550    1.7580    2.9780 n2        1 919     -0.215000
      9 C13        -0.6350    1.5480    3.5990 c2        1 919     -0.025000
     10 C14        -0.3620    2.7040    5.7760 c1        1 919      0.248000
     11 C22         2.9330    4.5620  -10.5910 c2        1 919     -0.428000
     12 N23         3.9840    4.0730  -11.3670 n2        1 919     -0.104000
     13 C24         4.6110    2.9770  -11.0750 c2        1 919      0.016000
     14 C25         4.3990    2.0270   -9.9850 c2        1 919     -0.305000
     15 C26         3.1800    1.6710   -9.5430 c2        1 919      0.032000
     16 C27         2.0370    5.4910  -10.9150 c1        1 919      0.256000
     17 C34         3.1260   -0.9640   -5.9780 c1        1 919     -0.135000
     18 C35         3.4480   -1.1670   -7.2370 c2        1 919     -0.105000
     19 C36         3.9750    0.0850   -7.9200 c3        1 919      0.080000
     20 C37         4.6860    0.9620   -6.9120 c2        1 919     -0.213000
     21 C38         4.4870    0.8760   -5.5680 c2        1 919      0.088000
     22 C39         3.3370    0.0310   -5.0960 c2        1 919      0.083000
     23 C46        -2.7670   -0.5990   -2.1160 c2        1 919     -0.083000
     24 C47        -1.7170   -0.2010   -3.0360 c2        1 919     -0.203000
     25 C48        -0.5960    0.0470   -2.2250 c2        1 919      0.056000
     26 N49        -0.9970   -0.2710   -0.8800 na        1 919     -0.111000
     27 N50        -2.3090   -0.5840   -0.8370 n2        1 919     -0.071000
     28 C58         1.2660    0.0810   -3.7890 c2        1 919      0.394000
     29 N60         2.6460    0.3670   -3.9470 n         1 919     -0.297000
     30 O63         0.6100   -0.4910   -4.6780 o         1 919     -0.315000
     31 F68         5.1680    1.6170   -4.6700 f         1 919     -0.097000
     32 O72         6.8590    2.1890  -11.3710 o         1 919     -0.364000
     33 N74         5.6780    2.6520  -13.2930 n         1 919     -0.357000
     34 C76         6.7680    2.3850  -14.1790 c3        1 919     -0.083000
     35 C79        -4.1490   -0.9890   -2.5160 c3        1 919     -0.039000
     36 C81        -4.0960   -2.2200   -3.4030 c3        1 919     -0.208000
     37 C83        -5.2190    1.2790   -2.3070 c3        1 919     -0.211000
     38 C85        -4.8430    0.1590   -3.2420 c3        1 919     -0.154000
     39 H2          1.4640   -1.1520   -0.3380 ha        1 919      0.151000
     40 H3          2.9610   -0.3290    1.4690 ha        1 919      0.158000
     41 H6         -1.8300    1.1820    1.2750 ha        1 919      0.158000
     42 H9          1.9900    2.4480    3.6020 hn        1 919      0.151000
     43 H13         0.8390    1.1400    5.1510 ha        1 919      0.209000
     44 H14        -1.7380    1.6460    3.5880 ha        1 919      0.142000
     45 H22         2.8220    4.1990   -9.5320 h4        1 919      0.180000
     46 H25         5.3310    1.6000   -9.5740 ha        1 919      0.170000
     47 H27         2.2200    2.0450   -9.9500 h4        1 919      0.172000
     48 H34         3.4960   -2.1190   -7.7710 ha        1 919      0.168000
     49 H35         4.7240   -0.2490   -8.6970 h1        1 919      0.127000
     50 H37         5.3980    1.6900   -7.3280 ha        1 919      0.164000
     51 H47        -1.7720   -0.1380   -4.1180 ha        1 919      0.192000
     52 HN56        1.2640    0.7900   -1.8230 hn        1 919      0.234000
     53 HN60        3.0820    1.0450   -3.3610 hn        1 919      0.243000
     54 HN74        4.8850    3.1120  -13.6750 hn        1 919      0.237000
     55 H76         6.3940    1.7830  -15.0500 h1        1 919      0.087000
     56 H76A        7.5680    1.8060  -13.6450 h1        1 919      0.087000
     57 H76B        7.2140    3.3420  -14.5670 h1        1 919      0.087000
     58 H81        -3.6030   -3.0650   -2.8650 hc        1 919      0.080000
     59 H81A       -5.1300   -2.5320   -3.6860 hc        1 919      0.080000
     60 H81B       -3.5180   -2.0070   -4.3340 hc        1 919      0.080000
     61 H83        -4.3150    1.6770   -1.7860 hc        1 919      0.074000
     62 H83A       -4.7530   -1.2410   -1.5960 hc        1 919      0.106000
     63 H83B       -5.9410    0.9230   -1.5320 hc        1 919      0.074000
     64 H85        -4.1700    0.5480   -4.0510 hc        1 919      0.083500
     65 H85A       -5.6960    2.1130   -2.8760 hc        1 919      0.074000
     66 H85B       -5.7680   -0.2390   -3.7380 hc        1 919      0.083500
     67 N56         0.6700    0.5170   -2.5780 n         1 919     -0.292000
     68 O65         2.8930    0.7810   -8.5480 os        1 919     -0.187000
     69 C70         5.8200    2.5940  -11.9270 c2        1 919      0.345000
@<TRIPOS>BOND
     1    1    2 1   
     2    1    6 1   
     3    1   26 1   
     4    2    3 1   
     5    2   39 1   
     6    3    4 1   
     7    3   40 1   
     8    4    5 1   
     9    4    8 1   
    10    5    6 1   
    11    5    9 1   
    12    6   41 1   
    13    7    9 1   
    14    7   10 1   
    15    7   43 1   
    16    8   42 1   
    17    9   44 1   
    18   11   12 1   
    19   11   16 1   
    20   11   45 1   
    21   12   13 1   
    22   13   14 1   
    23   13   69 1   
    24   14   15 1   
    25   14   46 1   
    26   15   47 1   
    27   15   68 1   
    28   17   18 1   
    29   17   22 1   
    30   18   19 1   
    31   18   48 1   
    32   19   20 1   
    33   19   49 1   
    34   19   68 1   
    35   20   21 1   
    36   20   50 1   
    37   21   22 1   
    38   21   31 1   
    39   22   29 1   
    40   23   24 1   
    41   23   27 1   
    42   23   35 1   
    43   24   25 1   
    44   24   51 1   
    45   25   26 1   
    46   25   67 1   
    47   26   27 1   
    48   28   29 1   
    49   28   30 1   
    50   28   67 1   
    51   29   53 1   
    52   32   69 1   
    53   33   34 1   
    54   33   54 1   
    55   33   69 1   
    56   34   55 1   
    57   34   56 1   
    58   34   57 1   
    59   35   36 1   
    60   35   38 1   
    61   35   62 1   
    62   36   58 1   
    63   36   59 1   
    64   36   60 1   
    65   37   38 1   
    66   37   61 1   
    67   37   63 1   
    68   37   65 1   
    69   38   64 1   
    70   38   66 1   
    71   52   67 1   
@<TRIPOS>SUBSTRUCTURE
     1 919         1 TEMP              0 ****  ****    0 ROOT
