@<TRIPOS>MOLECULE
919
   69    73     1     0     0
SMALL
bcc


@<TRIPOS>ATOM
      1 C1          4.8880    0.1190    0.3370 ca        1 919      0.007800
      2 C2          4.4980   -0.5570    1.5350 ca        1 919     -0.150000
      3 C3          5.1030   -1.7280    1.9060 ca        1 919     -0.153300
      4 C4          6.1520   -2.2960    1.1140 ca        1 919      0.390600
      5 C5          6.5600   -1.5980   -0.0630 ca        1 919     -0.144300
      6 C6          5.9200   -0.3920   -0.4370 ca        1 919     -0.088000
      7 C9          7.7190   -3.9600    0.7500 ca        1 919      0.416200
      8 N10         6.7450   -3.4830    1.5040 nb        1 919     -0.654000
      9 C13         7.6200   -2.1530   -0.8410 ca        1 919     -0.077000
     10 C14         8.2010   -3.3290   -0.4420 ca        1 919     -0.244300
     11 C22        -8.8230   -1.5060   -0.8780 ca        1 919      0.415200
     12 N23        -8.7420   -1.1670    0.4210 nb        1 919     -0.678000
     13 C24        -7.5280   -0.7960    0.8930 ca        1 919      0.385800
     14 C25        -6.3670   -0.7480    0.0950 ca        1 919     -0.252300
     15 C26        -6.4870   -1.1060   -1.2550 ca        1 919      0.143100
     16 C27        -7.7360   -1.4970   -1.7670 ca        1 919     -0.250300
     17 C34        -2.0330    0.1840   -1.8790 ca        1 919     -0.104000
     18 C35        -3.3750    0.0830   -2.2290 ca        1 919     -0.118000
     19 C36        -4.1600   -0.9350   -1.6760 ca        1 919      0.087100
     20 C37        -3.6270   -1.8490   -0.7660 ca        1 919     -0.162000
     21 C38        -2.2790   -1.7360   -0.4010 ca        1 919      0.093900
     22 C39        -1.4510   -0.7110   -0.9590 ca        1 919      0.026600
     23 C46         3.9260    3.4620   -0.3160 cc        1 919      0.335600
     24 C47         2.5960    2.8920   -0.1900 cc        1 919     -0.268300
     25 C48         2.8040    1.5150    0.0000 cd        1 919      0.016300
     26 N49         4.2250    1.3150   -0.0610 na        1 919      0.120300
     27 N50         4.8700    2.4910   -0.2010 nd        1 919     -0.491800
     28 C58         0.6340    0.5400   -0.5120 c         1 919      0.766100
     29 N60        -0.0830   -0.6730   -0.6280 n         1 919     -0.451100
     30 O63         0.2020    1.6140   -0.9790 o         1 919     -0.591100
     31 F68        -1.7620   -2.6250    0.4840 f         1 919     -0.139900
     32 O72        -6.2350   -0.5420    2.8850 o         1 919     -0.609100
     33 N74        -8.4430    0.0700    3.0290 n         1 919     -0.549900
     34 C76        -8.3900    0.3810    4.4230 c3        1 919      0.075300
     35 C79         4.1930    4.9180   -0.5430 c3        1 919     -0.076300
     36 C81         3.5760    5.7120    0.6050 c3        1 919     -0.085100
     37 C83         5.6840    5.2200   -0.6110 c3        1 919     -0.085100
     38 C85         3.5390    5.3340   -1.8580 c3        1 919     -0.085100
     39 H2          3.7230   -0.1140    2.1830 ha        1 919      0.153000
     40 H3          4.7980   -2.2430    2.8320 ha        1 919      0.158000
     41 H6          6.2640    0.1290   -1.3460 ha        1 919      0.159000
     42 H9          8.1750   -4.9100    1.0860 h4        1 919      0.026100
     43 H13         7.9490   -1.6240   -1.7470 ha        1 919      0.144000
     44 H14         9.0200   -3.7950   -1.0050 ha        1 919      0.148000
     45 H22        -9.8280   -1.8070   -1.2290 h4        1 919      0.030100
     46 H25        -5.4050   -0.4490    0.5380 ha        1 919      0.184000
     47 H27        -7.8500   -1.7800   -2.8210 ha        1 919      0.165000
     48 H34        -1.4230    0.9920   -2.3230 ha        1 919      0.183000
     49 H35        -3.8180    0.7890   -2.9480 ha        1 919      0.160000
     50 H37        -4.2500   -2.6450   -0.3300 ha        1 919      0.169000
     51 H47         1.6440    3.4090   -0.2590 ha        1 919      0.192000
     52 HN56        2.2610   -0.4150    0.3780 hn        1 919      0.316500
     53 HN60        0.2200   -1.4460   -0.0710 hn        1 919      0.318500
     54 HN74       -9.3390    0.0520    2.6000 hn        1 919      0.328500
     55 H76        -8.9010    1.3640    4.6030 h1        1 919      0.046367
     56 H76A       -8.9120   -0.4110    5.0270 h1        1 919      0.046367
     57 H76B       -7.3230    0.4510    4.7660 h1        1 919      0.046367
     58 H81         4.0590    5.4340    1.5710 hc        1 919      0.039700
     59 H81A        3.7240    6.8040    0.4300 hc        1 919      0.039700
     60 H81B        2.4820    5.5040    0.6770 hc        1 919      0.039700
     61 H83         6.1600    4.6630   -1.4530 hc        1 919      0.039700
     62 H83A        5.8370    6.3140   -0.7760 hc        1 919      0.039700
     63 H83B        6.1870    4.9300    0.3410 hc        1 919      0.039700
     64 H85         2.4450    5.1170   -1.8330 hc        1 919      0.039700
     65 H85A        3.6860    6.4280   -2.0220 hc        1 919      0.039700
     66 H85B        3.9960    4.7780   -2.7110 hc        1 919      0.039700
     67 N56         1.8750    0.4850    0.1790 n         1 919     -0.429100
     68 O65        -5.4550   -1.0710   -2.1770 os        1 919     -0.239200
     69 C70        -7.3570   -0.4280    2.3500 c         1 919      0.566600
@<TRIPOS>BOND
     1    1    2 ar  
     2    1    6 ar  
     3    1   26 1   
     4    2    3 ar  
     5    2   39 1   
     6    3    4 ar  
     7    3   40 1   
     8    4    5 ar  
     9    4    8 ar  
    10    5    6 ar  
    11    5    9 ar  
    12    6   41 1   
    13    7    8 ar  
    14    7   10 ar  
    15    7   42 1   
    16    9   10 ar  
    17    9   43 1   
    18   10   44 1   
    19   11   12 ar  
    20   11   16 ar  
    21   11   45 1   
    22   12   13 ar  
    23   13   14 ar  
    24   13   69 1   
    25   14   15 ar  
    26   14   46 1   
    27   15   16 ar  
    28   15   68 1   
    29   16   47 1   
    30   17   18 ar  
    31   17   22 ar  
    32   17   48 1   
    33   18   19 ar  
    34   18   49 1   
    35   19   20 ar  
    36   19   68 1   
    37   20   21 ar  
    38   20   50 1   
    39   21   22 ar  
    40   21   31 1   
    41   22   29 1   
    42   23   24 1   
    43   23   27 2   
    44   23   35 1   
    45   24   25 2   
    46   24   51 1   
    47   25   26 1   
    48   25   67 1   
    49   26   27 1   
    50   28   29 1   
    51   28   30 2   
    52   28   67 1   
    53   29   53 1   
    54   32   69 2   
    55   33   34 1   
    56   33   54 1   
    57   33   69 1   
    58   34   55 1   
    59   34   56 1   
    60   34   57 1   
    61   35   36 1   
    62   35   37 1   
    63   35   38 1   
    64   36   58 1   
    65   36   59 1   
    66   36   60 1   
    67   37   61 1   
    68   37   62 1   
    69   37   63 1   
    70   38   64 1   
    71   38   65 1   
    72   38   66 1   
    73   52   67 1   
@<TRIPOS>SUBSTRUCTURE
     1 919         1 TEMP              0 ****  ****    0 ROOT
