@<TRIPOS>MOLECULE
919
   69    59     1     0     0
SMALL
bcc


@<TRIPOS>ATOM
      1 C1          2.7490   -1.0820    3.9850 c1        1 919      0.067000
      2 C2          3.9980   -1.1780    4.5860 c1        1 919     -0.116750
      3 C3          4.1520   -0.8500    5.9290 c1        1 919     -0.116750
      4 C4          3.0410   -0.4200    6.6800 c1        1 919     -0.001000
      5 C5          1.8030   -0.3260    6.0850 c1        1 919     -0.077000
      6 C6          1.6500   -0.6580    4.7270 c1        1 919     -0.144000
      7 C9          2.1140    0.3250    8.7520 c1        1 919     -0.050000
      8 N10         3.1940   -0.0930    8.0210 n2        1 919     -0.125000
      9 C13         0.7070    0.0990    6.8280 c2        1 919     -0.083000
     10 C14         0.8610    0.4220    8.1520 c1        1 919     -0.177000
     11 C22        -1.0710    5.6210   -5.5560 c1        1 919     -0.116750
     12 N23        -1.5580    5.5650   -6.8310 n1        1 919     -0.152000
     13 C24        -2.4200    4.5710   -7.1910 c1        1 919     -0.040000
     14 C25        -2.8030    3.6160   -6.2630 c1        1 919     -0.129500
     15 C26        -2.3170    3.6700   -4.9850 c1        1 919      0.070500
     16 C27        -1.4530    4.6680   -4.6260 c1        1 919     -0.116750
     17 C34        -0.6610   -0.0110   -2.9770 c1        1 919     -0.103000
     18 C35        -1.5620    0.7530   -3.7110 c1        1 919     -0.129500
     19 C36        -1.7800    2.0850   -3.3750 c1        1 919      0.070500
     20 C37        -1.0980    2.6500   -2.3060 c1        1 919     -0.168000
     21 C38        -0.1960    1.8830   -1.5710 c1        1 919      0.053000
     22 C39         0.0200    0.5550   -1.9070 c1        1 919      0.034000
     23 C46         0.9760   -3.9340    2.9770 c1        1 919     -0.022500
     24 C47         0.8790   -3.1480    1.8610 c1        1 919     -0.199000
     25 C48         1.5390   -1.9820    2.1110 c1        1 919     -0.022500
     26 N49         2.0380   -2.0450    3.3670 n2        1 919     -0.089000
     27 N50         1.6880   -3.2570    3.9030 n2        1 919     -0.089000
     28 N56         1.7170   -0.8970    1.1830 n2        1 919     -0.280000
     29 C58         0.8400   -0.7680    0.0480 c2        1 919      0.391000
     30 N60         0.9580    0.3740   -0.8280 n         1 919     -0.306000
     31 O63        -0.0460   -1.5730   -0.1250 o         1 919     -0.349000
     32 O65        -2.8440    2.8050   -3.9940 os        1 919     -0.144000
     33 F68         0.4490    2.4240   -0.5310 f         1 919     -0.108000
     34 C70        -3.0330    4.5640   -8.5860 c2        1 919      0.350000
     35 O72        -3.7990    3.6810   -8.9060 o         1 919     -0.368000
     36 N74        -2.7600    5.6270   -9.4870 n         1 919     -0.360000
     37 C76        -3.4570    5.7060  -10.7290 c3        1 919     -0.080000
     38 C79         0.3720   -5.3180    3.1500 c2        1 919      0.019000
     39 C81         1.1030   -6.3040    2.2580 c3        1 919     -0.204667
     40 C83         0.5070   -5.7520    4.6000 c3        1 919     -0.204667
     41 C85        -1.0910   -5.2820    2.7680 c3        1 919     -0.204667
     42 H2          4.7690   -1.4750    4.0640 ha        1 919      0.162000
     43 H3          5.0320   -0.9170    6.3510 ha        1 919      0.162000
     44 H6          0.7740   -0.5910    4.3050 ha        1 919      0.151000
     45 H9          2.2230    0.5560    9.6960 ha        1 919      0.164000
     46 H13        -0.1700    0.1660    6.4080 ha        1 919      0.141000
     47 H14         0.0930    0.7190    8.6740 ha        1 919      0.148000
     48 H22        -0.4540    6.3340   -5.3000 ha        1 919      0.162000
     49 H25        -3.4180    2.9070   -6.5200 ha        1 919      0.176500
     50 H27        -1.1050    4.7080   -3.7170 ha        1 919      0.162000
     51 H34        -0.5090   -0.9440   -3.2120 ha        1 919      0.184000
     52 H35        -2.0410    0.3550   -4.4620 ha        1 919      0.176500
     53 H37        -1.2500    3.5850   -2.0680 ha        1 919      0.166000
     54 H47         0.4190   -3.3810    1.0330 DU        1 919      0.194000
     55 HN56        2.3910   -0.2930    1.3110 hn        1 919      0.227000
     56 HN60        1.6480    0.9640   -0.7190 hn        1 919      0.231000
     57 HN74       -2.1270    6.2510   -9.2780 hn        1 919      0.242000
     58 H76        -3.0170    6.3630  -11.3110 h1        1 919      0.085667
     59 H76A       -4.3860    5.9830  -10.5660 h1        1 919      0.085667
     60 H76B       -3.4500    4.8240  -11.1660 h1        1 919      0.085667
     61 H81         0.8400   -7.2160    2.4960 hc        1 919      0.079889
     62 H81A        0.8720   -6.1310    1.3230 hc        1 919      0.079889
     63 H81B        2.0730   -6.1990    2.3810 hc        1 919      0.079889
     64 H83         1.4230   -5.5790    4.9090 hc        1 919      0.079889
     65 H83A       -0.1270   -5.2450    5.1550 hc        1 919      0.079889
     66 H83B        0.3130   -6.7090    4.6740 hc        1 919      0.079889
     67 H85        -1.4980   -6.1500    2.9560 hc        1 919      0.079889
     68 H85A       -1.1740   -5.0820    1.8100 hc        1 919      0.079889
     69 H85B       -1.5480   -4.5880    3.2880 hc        1 919      0.079889
@<TRIPOS>BOND
     1    1    6 1   
     2    2    3 1   
     3    2   42 1   
     4    3   43 1   
     5    4    5 1   
     6    4    8 1   
     7    5    9 1   
     8    6   44 1   
     9    7    8 1   
    10    7   45 1   
    11    9   10 1   
    12    9   46 1   
    13   10   47 1   
    14   11   16 1   
    15   11   48 1   
    16   12   13 1   
    17   13   34 1   
    18   14   15 1   
    19   14   49 1   
    20   15   32 1   
    21   16   50 1   
    22   17   22 1   
    23   17   51 1   
    24   18   19 1   
    25   18   52 1   
    26   19   32 1   
    27   20   21 1   
    28   20   53 1   
    29   21   33 1   
    30   22   30 1   
    31   23   24 1   
    32   23   27 1   
    33   24   25 1   
    34   25   26 1   
    35   26   27 1   
    36   28   29 1   
    37   28   55 1   
    38   29   30 1   
    39   29   31 1   
    40   30   56 1   
    41   34   35 1   
    42   34   36 1   
    43   36   37 1   
    44   36   57 1   
    45   37   58 1   
    46   37   59 1   
    47   37   60 1   
    48   38   39 1   
    49   38   40 1   
    50   38   41 1   
    51   39   61 1   
    52   39   62 1   
    53   39   63 1   
    54   40   64 1   
    55   40   65 1   
    56   40   66 1   
    57   41   67 1   
    58   41   68 1   
    59   41   69 1   
@<TRIPOS>SUBSTRUCTURE
     1 919         1 TEMP              0 ****  ****    0 ROOT
