@<TRIPOS>MOLECULE
91B
   35    36     1     0     0
SMALL
bcc


@<TRIPOS>ATOM
      1 C11         0.0390    0.0750   -0.1760 ca        1 91B     -0.084000
      2 C10         1.4330    0.1150   -0.1490 ca        1 91B     -0.143000
      3 C12        -0.6940   -0.0790    0.9930 ca        1 91B     -0.145000
      4 C8          1.3670   -0.1620    2.2660 ca        1 91B     -0.167000
      5 C9          2.0850   -0.0080    1.0780 ca        1 91B     -0.163300
      6 C7         -0.0500   -0.1960    2.2550 ca        1 91B      0.181600
      7 C3         -2.2160   -0.1230    3.3690 c3        1 91B      0.188300
      8 C5         -0.3120   -1.1890    4.4670 c3        1 91B      0.188300
      9 C2         -2.8960    0.0320    4.7450 c3        1 91B      0.164300
     10 C6         -1.0230   -1.0170    5.8250 c3        1 91B      0.164300
     11 C15        -3.1460   -0.8770    6.9700 c3        1 91B      0.154100
     12 C13         3.5730    0.0130    1.1290 c3        1 91B      0.174100
     13 N4         -0.7670   -0.2420    3.4590 nh        1 91B     -0.642000
     14 N1         -2.4700   -0.9810    5.6960 n3        1 91B     -0.731600
     15 N14         4.0660    1.4020    1.4250 n4        1 91B     -0.845600
     16 H11        -0.4890    0.1550   -1.1410 ha        1 91B      0.158000
     17 H10         2.0000    0.2170   -1.0860 ha        1 91B      0.140000
     18 H12        -1.7930   -0.1220    0.9180 ha        1 91B      0.160000
     19 H8          1.9190   -0.2650    3.2120 ha        1 91B      0.135000
     20 H131        4.0200   -0.3030    0.1420 hx        1 91B      0.111200
     21 H132        3.9630   -0.6640    1.9440 hx        1 91B      0.111200
     22 H31C       -2.6590   -1.0190    2.8450 h1        1 91B      0.049200
     23 H32C       -2.4580    0.8010    2.7720 h1        1 91B      0.049200
     24 H21C       -2.7040    1.0770    5.1280 h1        1 91B      0.047950
     25 H22C       -4.0050   -0.0820    4.5850 h1        1 91B      0.047950
     26 H51C       -0.4660   -2.2480    4.1070 h1        1 91B      0.049200
     27 H52C        0.7870   -1.0370    4.6500 h1        1 91B      0.049200
     28 H61C       -0.6210   -0.0900    6.3300 h1        1 91B      0.047950
     29 H62C       -0.7510   -1.9050    6.4620 h1        1 91B      0.047950
     30 H151       -2.8320   -1.7400    7.6150 h1        1 91B      0.042700
     31 H152       -4.2520   -0.9420    6.7950 h1        1 91B      0.042700
     32 H153       -2.9230    0.0810    7.5140 h1        1 91B      0.042700
     33 H141        3.6680    1.7250    2.3130 hn        1 91B      0.457467
     34 H142        3.7580    2.0420    0.6850 hn        1 91B      0.457467
     35 H143        5.0870    1.4170    1.4830 hn        1 91B      0.457467
@<TRIPOS>BOND
     1    1    2 ar  
     2    1    3 ar  
     3    1   16 1   
     4    2    5 ar  
     5    2   17 1   
     6    3    6 ar  
     7    3   18 1   
     8    4    5 ar  
     9    4    6 ar  
    10    4   19 1   
    11    5   12 1   
    12    6   13 1   
    13    7    9 1   
    14    7   13 1   
    15    7   22 1   
    16    7   23 1   
    17    8   10 1   
    18    8   13 1   
    19    8   26 1   
    20    8   27 1   
    21    9   14 1   
    22    9   24 1   
    23    9   25 1   
    24   10   14 1   
    25   10   28 1   
    26   10   29 1   
    27   11   14 1   
    28   11   30 1   
    29   11   31 1   
    30   11   32 1   
    31   12   15 1   
    32   12   20 1   
    33   12   21 1   
    34   15   33 1   
    35   15   34 1   
    36   15   35 1   
@<TRIPOS>SUBSTRUCTURE
     1 91B         1 TEMP              0 ****  ****    0 ROOT
