@<TRIPOS>MOLECULE
91B
   35    36     1     0     0
SMALL
bcc


@<TRIPOS>ATOM
      1 C11         0.0410    0.0660   -0.1770 ca        1 91B     -0.084000
      2 C10         1.4350    0.1080   -0.1490 ca        1 91B     -0.144000
      3 C12        -0.6920   -0.0850    0.9920 ca        1 91B     -0.145000
      4 C8          1.3680   -0.1630    2.2670 ca        1 91B     -0.167000
      5 C9          2.0870   -0.0110    1.0800 ca        1 91B     -0.163300
      6 C7         -0.0490   -0.1980    2.2550 ca        1 91B      0.181600
      7 C3         -2.2160   -0.1250    3.3680 c3        1 91B      0.188300
      8 C5         -0.3120   -1.1850    4.4700 c3        1 91B      0.188300
      9 C2         -2.8970    0.0330    4.7420 c3        1 91B      0.164300
     10 C6         -1.0240   -1.0110    5.8270 c3        1 91B      0.164300
     11 C15        -3.1490   -0.8710    6.9690 c3        1 91B      0.154100
     12 C13         3.5750    0.0120    1.1320 c3        1 91B      0.174100
     13 N4         -0.7680   -0.2410    3.4590 nh        1 91B     -0.642000
     14 N1         -2.4710   -0.9770    5.6960 n3        1 91B     -0.731600
     15 N14         4.0660    1.4030    1.4220 n4        1 91B     -0.845600
     16 H11        -0.4860    0.1430   -1.1430 ha        1 91B      0.158000
     17 H10         2.0030    0.2080   -1.0850 ha        1 91B      0.140000
     18 H12        -1.7910   -0.1300    0.9170 ha        1 91B      0.160000
     19 H8          1.9190   -0.2630    3.2140 ha        1 91B      0.135000
     20 H131        3.9650   -0.6620    1.9500 hx        1 91B      0.111200
     21 H132        4.0230   -0.3080    0.1470 hx        1 91B      0.111200
     22 H31C       -2.6580   -1.0220    2.8450 h1        1 91B      0.049200
     23 H32C       -2.4590    0.7970    2.7670 h1        1 91B      0.049200
     24 H21C       -4.0060   -0.0830    4.5820 h1        1 91B      0.047950
     25 H22C       -2.7080    1.0790    5.1230 h1        1 91B      0.047950
     26 H51C       -0.4640   -2.2450    4.1120 h1        1 91B      0.049200
     27 H52C        0.7870   -1.0310    4.6530 h1        1 91B      0.049200
     28 H61C       -0.6240   -0.0820    6.3290 h1        1 91B      0.047950
     29 H62C       -0.7510   -1.8970    6.4660 h1        1 91B      0.047950
     30 H151       -2.9270    0.0880    7.5120 h1        1 91B      0.042700
     31 H152       -4.2540   -0.9370    6.7930 h1        1 91B      0.042700
     32 H153       -2.8340   -1.7310    7.6160 h1        1 91B      0.042700
     33 H141        5.0860    1.4190    1.4820 hn        1 91B      0.457467
     34 H142        3.6670    1.7280    2.3090 hn        1 91B      0.457467
     35 H143        3.7580    2.0390    0.6800 hn        1 91B      0.457467
@<TRIPOS>BOND
     1    1    2 ar  
     2    1    3 ar  
     3    1   16 1   
     4    2    5 ar  
     5    2   17 1   
     6    3    6 ar  
     7    3   18 1   
     8    4    5 ar  
     9    4    6 ar  
    10    4   19 1   
    11    5   12 1   
    12    6   13 1   
    13    7    9 1   
    14    7   13 1   
    15    7   22 1   
    16    7   23 1   
    17    8   10 1   
    18    8   13 1   
    19    8   26 1   
    20    8   27 1   
    21    9   14 1   
    22    9   24 1   
    23    9   25 1   
    24   10   14 1   
    25   10   28 1   
    26   10   29 1   
    27   11   14 1   
    28   11   30 1   
    29   11   31 1   
    30   11   32 1   
    31   12   15 1   
    32   12   20 1   
    33   12   21 1   
    34   15   33 1   
    35   15   34 1   
    36   15   35 1   
@<TRIPOS>SUBSTRUCTURE
     1 91B         1 TEMP              0 ****  ****    0 ROOT
