@<TRIPOS>MOLECULE
91B
   34    32     1     0     0
SMALL
bcc


@<TRIPOS>ATOM
      1 C11         0.2150    0.0600   -2.6340 c1        1 91B     -0.086500
      2 C10         1.5930    0.0170   -2.6350 c1        1 91B     -0.076500
      3 C12        -0.4860    0.0930   -1.4180 c1        1 91B     -0.086500
      4 C8          1.5930    0.0380   -0.2290 c1        1 91B     -0.089500
      5 C9          2.2870    0.0060   -1.4360 c1        1 91B     -0.044100
      6 C7          0.2040    0.0810   -0.2270 c1        1 91B      0.094800
      7 C3         -0.2030   -0.9380    1.8610 c3        1 91B      0.179300
      8 C5         -0.7940    1.3580    1.4860 c3        1 91B      0.179300
      9 C2         -1.6510   -1.3490    1.5990 c3        1 91B      0.135800
     10 C6         -2.2330    0.9460    1.2230 c3        1 91B      0.135800
     11 C15        -3.9360   -0.6850    1.4690 c3        1 91B      0.157100
     12 C13         3.7970   -0.0180   -1.4400 c3        1 91B      0.168900
     13 N4          0.1430    0.2940    1.2030 n3        1 91B     -0.600200
     14 N1         -2.5830   -0.2830    1.8810 n3        1 91B     -0.729600
     15 N14         4.2840    1.0370   -2.2580 n3        1 91B     -0.915800
     16 H11        -0.2670    0.0690   -3.4690 ha        1 91B      0.073000
     17 H10         2.0900   -0.0060   -3.4970 ha        1 91B      0.090500
     18 H12        -1.4810    0.1240   -1.4170 ha        1 91B      0.073000
     19 H8          2.0960    0.0300    0.6400 ha        1 91B      0.078500
     20 H131        4.1150    0.0920   -0.5620 h1        1 91B      0.033700
     21 H132        4.1100   -0.8820   -1.7960 h1        1 91B      0.033700
     22 H31C       -0.0730   -0.8280    2.8250 h1        1 91B      0.061700
     23 H32C        0.4120   -1.6720    1.5290 h1        1 91B      0.061700
     24 H21C       -1.8740   -2.1400    2.1840 h1        1 91B      0.036700
     25 H22C       -1.7470   -1.6200    0.6310 h1        1 91B      0.036700
     26 H51C       -0.5760    2.1320    0.9190 h1        1 91B      0.061700
     27 H52C       -0.7050    1.6240    2.4430 h1        1 91B      0.061700
     28 H61C       -2.3560    0.8320    0.2510 h1        1 91B      0.036700
     29 H62C       -2.8430    1.6710    1.5440 h1        1 91B      0.036700
     30 H151       -4.2100   -1.4560    1.9710 h1        1 91B      0.032700
     31 H152       -4.5660    0.0600    1.6400 h1        1 91B      0.032700
     32 H153       -3.9370   -0.8980    0.5200 h1        1 91B      0.032700
     33 H141        4.9100    1.5260   -1.7890 hn        1 91B      0.351800
     34 H142        4.6740    0.6830   -3.0120 hn        1 91B      0.351800
@<TRIPOS>BOND
     1    1    3 3   
     2    1   16 1   
     3    2    5 3   
     4    2   17 1   
     5    3   18 1   
     6    4    6 3   
     7    4   19 1   
     8    5   12 1   
     9    6   13 1   
    10    7    9 1   
    11    7   13 1   
    12    7   22 1   
    13    7   23 1   
    14    8   10 1   
    15    8   13 1   
    16    8   26 1   
    17    8   27 1   
    18    9   14 1   
    19    9   24 1   
    20    9   25 1   
    21   10   14 1   
    22   10   28 1   
    23   10   29 1   
    24   11   14 1   
    25   11   30 1   
    26   11   31 1   
    27   11   32 1   
    28   12   15 1   
    29   12   20 1   
    30   12   21 1   
    31   15   33 1   
    32   15   34 1   
@<TRIPOS>SUBSTRUCTURE
     1 91B         1 TEMP              0 ****  ****    0 ROOT
