@<TRIPOS>MOLECULE
91B
   34    35     1     0     0
SMALL
bcc


@<TRIPOS>ATOM
      1 C11        -2.2730   -2.0680   -0.1840 ca        1 91B     -0.111000
      2 C10        -3.2240   -1.0520   -0.2040 ca        1 91B     -0.136000
      3 C12        -0.9140   -1.7750   -0.1130 ca        1 91B     -0.177000
      4 C8         -1.4500    0.5890   -0.0600 ca        1 91B     -0.151000
      5 C9         -2.8070    0.2810   -0.1420 ca        1 91B     -0.076300
      6 C7         -0.4740   -0.4350   -0.0460 ca        1 91B      0.131600
      7 C3          1.8070   -1.1810    0.3950 c3        1 91B      0.184300
      8 C5          1.4180    0.8380   -0.8790 c3        1 91B      0.184300
      9 C2          3.2250   -0.6830    0.7450 c3        1 91B      0.165300
     10 C6          2.8370    1.3310   -0.5330 c3        1 91B      0.165300
     11 C15         5.0800    0.7190    0.1060 c3        1 91B      0.157100
     12 C13        -3.8150    1.3930   -0.1910 c3        1 91B      0.203100
     13 N4          0.8930   -0.0850    0.1180 nh        1 91B     -0.635000
     14 N1          3.7600    0.2440   -0.2410 n3        1 91B     -0.732600
     15 N14        -4.9230    1.2220    0.7220 n3        1 91B     -0.915800
     16 H11        -2.5960   -3.1200   -0.2310 ha        1 91B      0.131000
     17 H10        -4.2960   -1.2920   -0.2680 ha        1 91B      0.148000
     18 H12        -0.1950   -2.6070   -0.1110 ha        1 91B      0.132000
     19 H8         -1.1420    1.6440    0.0070 ha        1 91B      0.135000
     20 H131       -3.2770    2.3760   -0.0280 h1        1 91B      0.033700
     21 H132       -4.2490    1.4270   -1.2340 h1        1 91B      0.033700
     22 H31C        1.8830   -1.8930   -0.4780 h1        1 91B      0.043700
     23 H32C        1.4150   -1.7500    1.2840 h1        1 91B      0.043700
     24 H21C        3.2040   -0.2290    1.7790 h1        1 91B      0.038450
     25 H22C        3.9020   -1.5820    0.7750 h1        1 91B      0.038450
     26 H51C        0.7460    1.7380   -0.9290 h1        1 91B      0.043700
     27 H52C        1.4390    0.3620   -1.9030 h1        1 91B      0.043700
     28 H61C        3.2330    1.8850   -1.4300 h1        1 91B      0.038450
     29 H62C        2.7670    2.0620    0.3240 h1        1 91B      0.038450
     30 H151        5.7590   -0.1650    0.2320 h1        1 91B      0.033033
     31 H152        5.4660    1.3550   -0.7320 h1        1 91B      0.033033
     32 H153        5.1030    1.3250    1.0540 h1        1 91B      0.033033
     33 H141       -4.6140    0.8750    1.6080 hn        1 91B      0.351800
     34 H142       -5.3970    2.0930    0.8550 hn        1 91B      0.351800
@<TRIPOS>BOND
     1    1    2 ar  
     2    1    3 ar  
     3    1   16 1   
     4    2    5 ar  
     5    2   17 1   
     6    3    6 ar  
     7    3   18 1   
     8    4    5 ar  
     9    4    6 ar  
    10    4   19 1   
    11    5   12 1   
    12    6   13 1   
    13    7    9 1   
    14    7   13 1   
    15    7   22 1   
    16    7   23 1   
    17    8   10 1   
    18    8   13 1   
    19    8   26 1   
    20    8   27 1   
    21    9   14 1   
    22    9   24 1   
    23    9   25 1   
    24   10   14 1   
    25   10   28 1   
    26   10   29 1   
    27   11   14 1   
    28   11   30 1   
    29   11   31 1   
    30   11   32 1   
    31   12   15 1   
    32   12   20 1   
    33   12   21 1   
    34   15   33 1   
    35   15   34 1   
@<TRIPOS>SUBSTRUCTURE
     1 91B         1 TEMP              0 ****  ****    0 ROOT
