@<TRIPOS>MOLECULE
91B
   35    36     1     0     0
SMALL
bcc


@<TRIPOS>ATOM
      1 C11         0.0400    0.0530   -0.1780 ca        1 91B     -0.084000
      2 C10         1.4340    0.0960   -0.1510 ca        1 91B     -0.144000
      3 C12        -0.6930   -0.0940    0.9920 ca        1 91B     -0.145000
      4 C8          1.3670   -0.1650    2.2660 ca        1 91B     -0.167000
      5 C9          2.0860   -0.0170    1.0780 ca        1 91B     -0.163300
      6 C7         -0.0490   -0.2010    2.2550 ca        1 91B      0.181600
      7 C3         -2.2160   -0.1260    3.3680 c3        1 91B      0.188300
      8 C5         -0.3100   -1.1800    4.4740 c3        1 91B      0.188300
      9 C2         -2.8970    0.0370    4.7420 c3        1 91B      0.164300
     10 C6         -1.0220   -1.0010    5.8300 c3        1 91B      0.164300
     11 C15        -3.1460   -0.8590    6.9730 c3        1 91B      0.154100
     12 C13         3.5740    0.0070    1.1300 c3        1 91B      0.174100
     13 N4         -0.7670   -0.2410    3.4590 nh        1 91B     -0.642000
     14 N1         -2.4690   -0.9690    5.7010 n3        1 91B     -0.731600
     15 N14         4.0640    1.4000    1.4140 nz        1 91B     -0.845600
     16 H11        -0.4880    0.1260   -1.1430 ha        1 91B      0.158000
     17 H10         2.0010    0.1940   -1.0870 ha        1 91B      0.140000
     18 H12        -1.7920   -0.1400    0.9180 ha        1 91B      0.160000
     19 H8          1.9190   -0.2610    3.2140 ha        1 91B      0.135000
     20 H131        3.9650   -0.6620    1.9500 hx        1 91B      0.111200
     21 H132        4.0210   -0.3160    0.1450 hx        1 91B      0.111200
     22 H31C       -2.4600    0.7930    2.7640 h1        1 91B      0.049200
     23 H32C       -2.6570   -1.0260    2.8500 h1        1 91B      0.049200
     24 H21C       -4.0050   -0.0810    4.5830 h1        1 91B      0.047950
     25 H22C       -2.7080    1.0850    5.1190 h1        1 91B      0.047950
     26 H51C        0.7880   -1.0240    4.6560 h1        1 91B      0.049200
     27 H52C       -0.4620   -2.2410    4.1210 h1        1 91B      0.049200
     28 H61C       -0.7480   -1.8840    6.4730 h1        1 91B      0.047950
     29 H62C       -0.6230   -0.0690    6.3290 h1        1 91B      0.047950
     30 H151       -2.8300   -1.7160    7.6240 h1        1 91B      0.042700
     31 H152       -4.2520   -0.9260    6.7980 h1        1 91B      0.042700
     32 H153       -2.9250    0.1040    7.5120 h1        1 91B      0.042700
     33 H141        3.6650    1.7290    2.3000 hn        1 91B      0.457467
     34 H142        5.0840    1.4170    1.4720 hn        1 91B      0.457467
     35 H143        3.7550    2.0330    0.6690 hn        1 91B      0.457467
@<TRIPOS>BOND
     1    1    2 ar  
     2    1    3 ar  
     3    1   16 1   
     4    2    5 ar  
     5    2   17 1   
     6    3    6 ar  
     7    3   18 1   
     8    4    5 ar  
     9    4    6 ar  
    10    4   19 1   
    11    5   12 1   
    12    6   13 1   
    13    7    9 1   
    14    7   13 1   
    15    7   22 1   
    16    7   23 1   
    17    8   10 1   
    18    8   13 1   
    19    8   26 1   
    20    8   27 1   
    21    9   14 1   
    22    9   24 1   
    23    9   25 1   
    24   10   14 1   
    25   10   28 1   
    26   10   29 1   
    27   11   14 1   
    28   11   30 1   
    29   11   31 1   
    30   11   32 1   
    31   12   15 1   
    32   12   20 1   
    33   12   21 1   
    34   15   33 1   
    35   15   34 1   
    36   15   35 1   
@<TRIPOS>SUBSTRUCTURE
     1 91B         1 TEMP              0 ****  ****    0 ROOT
