@<TRIPOS>MOLECULE
91F
   31    33     1     0     0
SMALL
bcc


@<TRIPOS>ATOM
      1 O          -2.9710   -2.6550   -0.9260 o         1 91F     -0.625500
      2 C14        -2.5380   -1.5430   -0.5730 c         1 91F      0.708100
      3 N1         -1.1490   -1.3320   -0.5570 n         1 91F     -0.494400
      4 C7         -0.6130   -0.0980   -0.1650 cc        1 91F      0.547500
      5 C4          0.8710    0.0090   -0.1870 ca        1 91F     -0.164900
      6 C5          1.4790    1.1390   -0.7510 ca        1 91F     -0.075500
      7 C6          2.8650    1.2400   -0.7750 ca        1 91F     -0.142000
      8 C1          3.6670    0.2230   -0.2330 ca        1 91F      0.012900
      9 S           5.3340    0.4770   -0.3340 ss        1 91F     -0.144000
     10 C           6.0830   -0.9110    0.4180 c3        1 91F     -0.075000
     11 C2          3.0500   -0.8950    0.3380 ca        1 91F     -0.142000
     12 C3          1.6620   -1.0040    0.3620 ca        1 91F     -0.075500
     13 N          -1.3360    0.9450    0.2090 nd        1 91F     -0.616100
     14 C8         -2.7300    0.8130    0.2180 ca        1 91F      0.182400
     15 C13        -3.3690   -0.3980   -0.1590 ca        1 91F     -0.190600
     16 C9         -3.5410    1.9070    0.6130 ca        1 91F     -0.123000
     17 C10        -4.9200    1.7770    0.6240 ca        1 91F     -0.095000
     18 C11        -5.5370    0.5750    0.2490 ca        1 91F     -0.154000
     19 C12        -4.7650   -0.5090   -0.1410 ca        1 91F     -0.059000
     20 H1         -0.5420   -2.0670   -0.8430 hn        1 91F      0.338500
     21 H5          0.8610    1.9480   -1.1700 ha        1 91F      0.147500
     22 H3          1.2000   -1.8860    0.8330 ha        1 91F      0.147500
     23 H6          3.3410    2.1280   -1.2200 ha        1 91F      0.143000
     24 H2          3.6590   -1.7000    0.7770 ha        1 91F      0.143000
     25 HC1         5.8450   -1.8640   -0.1070 h1        1 91F      0.073033
     26 HC2         7.1820   -0.7260    0.3460 h1        1 91F      0.073033
     27 HC3         5.8070   -1.0190    1.4910 h1        1 91F      0.073033
     28 H9         -3.0680    2.8550    0.9110 ha        1 91F      0.153000
     29 H12        -5.2290   -1.4630   -0.4410 ha        1 91F      0.158000
     30 H10        -5.5440    2.6310    0.9320 ha        1 91F      0.137000
     31 H11        -6.6340    0.4950    0.2650 ha        1 91F      0.140000
@<TRIPOS>BOND
     1    1    2 2   
     2    2    3 1   
     3    2   15 1   
     4    3    4 1   
     5    3   20 1   
     6    4    5 1   
     7    4   13 2   
     8    5    6 ar  
     9    5   12 ar  
    10    6    7 ar  
    11    6   21 1   
    12    7    8 ar  
    13    7   23 1   
    14    8    9 1   
    15    8   11 ar  
    16    9   10 1   
    17   10   25 1   
    18   10   26 1   
    19   10   27 1   
    20   11   12 ar  
    21   11   24 1   
    22   12   22 1   
    23   13   14 1   
    24   14   15 ar  
    25   14   16 ar  
    26   15   19 ar  
    27   16   17 ar  
    28   16   28 1   
    29   17   18 ar  
    30   17   30 1   
    31   18   19 ar  
    32   18   31 1   
    33   19   29 1   
@<TRIPOS>SUBSTRUCTURE
     1 91F         1 TEMP              0 ****  ****    0 ROOT
