@<TRIPOS>MOLECULE
91F
   31    33     1     0     0
SMALL
bcc


@<TRIPOS>ATOM
      1 O           0.0690   -0.9420   -0.1200 o         1 91F     -0.625500
      2 C14         1.2600   -0.5830   -0.1350 c         1 91F      0.708100
      3 N1          1.9760   -0.5640    1.0730 n         1 91F     -0.494400
      4 C7          3.3200   -0.1660    1.1080 cc        1 91F      0.547500
      5 C4          3.9750   -0.1850    2.4430 ca        1 91F     -0.164900
      6 C5          5.2530   -0.7430    2.5830 ca        1 91F     -0.075500
      7 C6          5.8670   -0.7650    3.8300 ca        1 91F     -0.142000
      8 C1          5.2220   -0.2260    4.9560 ca        1 91F      0.012900
      9 S           6.0830   -0.3240    6.4050 ss        1 91F     -0.144000
     10 C           5.0740    0.4230    7.6210 c3        1 91F     -0.075000
     11 C2          3.9510    0.3380    4.8030 ca        1 91F     -0.142000
     12 C3          3.3300    0.3600    3.5570 ca        1 91F     -0.075500
     13 N           4.0140    0.2120    0.0470 nd        1 91F     -0.616100
     14 C8          3.3690    0.2180   -1.1960 ca        1 91F      0.182400
     15 C13         2.0080   -0.1650   -1.3340 ca        1 91F     -0.190600
     16 C9          4.0770    0.6180   -2.3580 ca        1 91F     -0.123000
     17 C10         3.4390    0.6260   -3.5870 ca        1 91F     -0.095000
     18 C11         2.0960    0.2440   -3.7090 ca        1 91F     -0.154000
     19 C12         1.3820   -0.1500   -2.5870 ca        1 91F     -0.059000
     20 H1          1.5240   -0.8530    1.9120 hn        1 91F      0.338500
     21 H5          5.7740   -1.1600    1.7070 ha        1 91F      0.147500
     22 H3          2.3370    0.8260    3.4590 ha        1 91F      0.147500
     23 H6          6.8710   -1.2050    3.9390 ha        1 91F      0.143000
     24 H2          3.4310    0.7750    5.6690 ha        1 91F      0.143000
     25 HC1         4.8650    1.4950    7.4050 h1        1 91F      0.073033
     26 HC2         4.1040   -0.1070    7.7570 h1        1 91F      0.073033
     27 HC3         5.6580    0.3540    8.5700 h1        1 91F      0.073033
     28 H9          5.1320    0.9210   -2.2750 ha        1 91F      0.153000
     29 H12         0.3250   -0.4540   -2.6590 ha        1 91F      0.158000
     30 H10         3.9950    0.9370   -4.4860 ha        1 91F      0.137000
     31 H11         1.6100    0.2590   -4.6960 ha        1 91F      0.140000
@<TRIPOS>BOND
     1    1    2 2   
     2    2    3 1   
     3    2   15 1   
     4    3    4 1   
     5    3   20 1   
     6    4    5 1   
     7    4   13 2   
     8    5    6 ar  
     9    5   12 ar  
    10    6    7 ar  
    11    6   21 1   
    12    7    8 ar  
    13    7   23 1   
    14    8    9 1   
    15    8   11 ar  
    16    9   10 1   
    17   10   25 1   
    18   10   26 1   
    19   10   27 1   
    20   11   12 ar  
    21   11   24 1   
    22   12   22 1   
    23   13   14 1   
    24   14   15 ar  
    25   14   16 ar  
    26   15   19 ar  
    27   16   17 ar  
    28   16   28 1   
    29   17   18 ar  
    30   17   30 1   
    31   18   19 ar  
    32   18   31 1   
    33   19   29 1   
@<TRIPOS>SUBSTRUCTURE
     1 91F         1 TEMP              0 ****  ****    0 ROOT
