@<TRIPOS>MOLECULE
91F
   31    33     1     0     0
SMALL
bcc


@<TRIPOS>ATOM
      1 O           0.0670   -0.9370   -0.1180 o         1 91F     -0.625500
      2 C14         1.2590   -0.5800   -0.1340 c         1 91F      0.708100
      3 N1          1.9750   -0.5620    1.0740 ns        1 91F     -0.494400
      4 C7          3.3200   -0.1650    1.1080 cc        1 91F      0.547500
      5 C4          3.9760   -0.1860    2.4430 ca        1 91F     -0.164900
      6 C5          5.2530   -0.7450    2.5820 ca        1 91F     -0.075500
      7 C6          5.8680   -0.7670    3.8280 ca        1 91F     -0.142000
      8 C1          5.2240   -0.2290    4.9550 ca        1 91F      0.012900
      9 S           6.0860   -0.3280    6.4040 ss        1 91F     -0.144000
     10 C           5.0770    0.4190    7.6200 c3        1 91F     -0.075000
     11 C2          3.9530    0.3370    4.8030 ca        1 91F     -0.142000
     12 C3          3.3310    0.3600    3.5570 ca        1 91F     -0.075500
     13 N           4.0130    0.2130    0.0470 nd        1 91F     -0.616100
     14 C8          3.3680    0.2200   -1.1960 ca        1 91F      0.182400
     15 C13         2.0060   -0.1620   -1.3330 ca        1 91F     -0.190600
     16 C9          4.0750    0.6180   -2.3580 ca        1 91F     -0.123000
     17 C10         3.4370    0.6280   -3.5870 ca        1 91F     -0.095000
     18 C11         2.0930    0.2480   -3.7080 ca        1 91F     -0.154000
     19 C12         1.3790   -0.1460   -2.5860 ca        1 91F     -0.059000
     20 H1          1.5230   -0.8500    1.9130 hn        1 91F      0.338500
     21 H5          5.7730   -1.1620    1.7050 ha        1 91F      0.147500
     22 H3          2.3390    0.8270    3.4600 ha        1 91F      0.147500
     23 H6          6.8710   -1.2080    3.9360 ha        1 91F      0.143000
     24 H2          3.4340    0.7730    5.6700 ha        1 91F      0.143000
     25 HC1         4.8690    1.4910    7.4050 h1        1 91F      0.073033
     26 HC2         4.1070   -0.1100    7.7570 h1        1 91F      0.073033
     27 HC3         5.6620    0.3490    8.5690 h1        1 91F      0.073033
     28 H9          5.1310    0.9200   -2.2750 ha        1 91F      0.153000
     29 H12         0.3220   -0.4490   -2.6570 ha        1 91F      0.158000
     30 H10         3.9930    0.9390   -4.4850 ha        1 91F      0.137000
     31 H11         1.6070    0.2630   -4.6950 ha        1 91F      0.140000
@<TRIPOS>BOND
     1    1    2 2   
     2    2    3 1   
     3    2   15 1   
     4    3    4 1   
     5    3   20 1   
     6    4    5 1   
     7    4   13 2   
     8    5    6 ar  
     9    5   12 ar  
    10    6    7 ar  
    11    6   21 1   
    12    7    8 ar  
    13    7   23 1   
    14    8    9 1   
    15    8   11 ar  
    16    9   10 1   
    17   10   25 1   
    18   10   26 1   
    19   10   27 1   
    20   11   12 ar  
    21   11   24 1   
    22   12   22 1   
    23   13   14 1   
    24   14   15 ar  
    25   14   16 ar  
    26   15   19 ar  
    27   16   17 ar  
    28   16   28 1   
    29   17   18 ar  
    30   17   30 1   
    31   18   19 ar  
    32   18   31 1   
    33   19   29 1   
@<TRIPOS>SUBSTRUCTURE
     1 91F         1 TEMP              0 ****  ****    0 ROOT
