@<TRIPOS>MOLECULE
91F
   31    27     1     0     0
SMALL
bcc


@<TRIPOS>ATOM
      1 O          -3.6730    0.0290   -1.6850 o         1 91F     -0.350000
      2 C14        -2.4580    0.0170   -1.6660 c1        1 91F      0.345000
      3 N1         -1.7760    0.0330   -0.4410 n2        1 91F     -0.334000
      4 C7         -0.3470    0.0360   -0.4200 c2        1 91F      0.169000
      5 C4          0.3880    0.0010    0.9020 c2        1 91F     -0.081000
      6 C5          0.7090   -1.2150    1.4840 c2        1 91F     -0.061000
      7 C6          1.4120   -1.2470    2.6780 c1        1 91F     -0.132000
      8 C1          1.7940   -0.0640    3.2900 c1        1 91F     -0.214000
      9 S           2.7560   -0.1060    4.7790 ss        1 91F      0.265000
     10 C           1.6810    0.0390    6.1820 c3        1 91F     -0.375000
     11 C2          1.4730    1.1520    2.7080 c1        1 91F     -0.152000
     12 C3          0.7700    1.1840    1.5130 c1        1 91F     -0.090000
     13 N           0.3960    0.0220   -1.6600 n1        1 91F     -0.189000
     14 C8         -0.3110    0.0050   -2.9350 c1        1 91F      0.043000
     15 C13        -1.6840    0.0020   -2.9590 c2        1 91F     -0.170000
     16 C9          0.4120    0.0020   -4.1420 c1        1 91F     -0.123000
     17 C10        -0.2610   -0.0040   -5.3550 c1        1 91F     -0.124500
     18 C11        -1.6500   -0.0070   -5.3780 c1        1 91F     -0.124500
     19 C12        -2.3650   -0.0040   -4.1880 c1        1 91F     -0.059000
     20 H1         -2.2440    0.0700    0.3410 hn        1 91F      0.252000
     21 H5          0.4400   -2.0480    1.0530 ha        1 91F      0.156000
     22 H3          0.5440    2.0410    1.1030 ha        1 91F      0.139000
     23 H6          1.6380   -2.1040    3.0890 ha        1 91F      0.149000
     24 H2          1.7410    1.9860    3.1380 ha        1 91F      0.137000
     25 HC1         1.2490    0.9190    6.1720 h1        1 91F      0.112333
     26 HC2         2.2040   -0.0590    7.0060 h1        1 91F      0.112333
     27 HC3         0.9970   -0.6620    6.1440 h1        1 91F      0.112333
     28 H9          1.3890    0.0040   -4.1250 ha        1 91F      0.153000
     29 H12        -3.3410   -0.0050   -4.2060 ha        1 91F      0.158000
     30 H10         0.2420   -0.0060   -6.1920 ha        1 91F      0.138500
     31 H11        -2.1230   -0.0110   -6.2320 ha        1 91F      0.138500
@<TRIPOS>BOND
     1    1    2 1   
     2    2   15 1   
     3    3    4 1   
     4    3   20 1   
     5    4    5 1   
     6    4   13 1   
     7    5    6 1   
     8    5   12 1   
     9    6    7 1   
    10    6   21 1   
    11    7   23 1   
    12    8    9 1   
    13    8   11 1   
    14    9   10 1   
    15   10   25 1   
    16   10   26 1   
    17   10   27 1   
    18   11   24 1   
    19   12   22 1   
    20   14   15 1   
    21   14   16 1   
    22   15   19 1   
    23   16   28 1   
    24   17   18 1   
    25   17   30 1   
    26   18   31 1   
    27   19   29 1   
@<TRIPOS>SUBSTRUCTURE
     1 91F         1 TEMP              0 ****  ****    0 ROOT
