@<TRIPOS>MOLECULE
91U
   62    61     1     0     0
SMALL
bcc


@<TRIPOS>ATOM
      1 C47        -0.6190   -1.9020    3.0160 c1        1 91U      0.314000
      2 O48         0.5830   -2.0640    2.9360 o         1 91U     -0.409000
      3 C49        -1.3050   -1.9490    4.3750 c3        1 91U     -0.242000
      4 C1         -2.4800   -2.9750   -0.0800 c3        1 91U     -0.112000
      5 C6         -3.8970   -2.4590   -0.2160 c3        1 91U     -0.150000
      6 C5         -4.9340   -3.5330    0.0580 c3        1 91U     -0.155500
      7 C4         -4.6950   -4.7910   -0.7550 c3        1 91U     -0.155000
      8 C3         -3.2770   -5.3070   -0.6180 c3        1 91U     -0.155500
      9 C2         -2.2410   -4.2340   -0.8930 c3        1 91U     -0.150000
     10 N          -1.3930   -1.7370    1.8370 n2        1 91U     -0.374000
     11 C15        -0.7800   -1.2840    0.6470 c3        1 91U      0.014000
     12 C31        -1.5040   -1.8810   -0.5570 c3        1 91U     -0.157000
     13 C14         0.6700   -1.7150    0.6300 c2        1 91U      0.282000
     14 O32         0.9530   -2.9010    0.6260 o         1 91U     -0.362000
     15 N1          1.7330   -0.7080    0.5550 n         1 91U     -0.300000
     16 C32         1.5370    0.9180    0.5500 c3        1 91U     -0.002000
     17 C7          1.4650    1.5460   -0.8850 c2        1 91U      0.288000
     18 O22         1.4030    0.8230   -1.8640 o         1 91U     -0.363000
     19 C35         2.5480    1.3410    1.2630 c3        1 91U     -0.161000
     20 C34         3.6470    0.2700    1.1110 c3        1 91U     -0.171000
     21 C33         2.9790   -0.9320    0.4840 c3        1 91U     -0.039000
     22 N23         1.4450    2.9950   -1.0480 n         1 91U     -0.375000
     23 C24         1.8600    3.5880   -2.3010 c3        1 91U      0.011000
     24 C25         2.3410    5.0340   -2.0520 c2        1 91U     -0.103000
     25 C26         1.9410    6.0560   -2.9050 c2        1 91U     -0.120000
     26 C27         2.4210    7.3490   -2.7140 c1        1 91U     -0.126000
     27 C28         3.2990    7.6170   -1.6710 c1        1 91U     -0.122000
     28 C29         3.6980    6.5970   -0.8200 c1        1 91U     -0.064000
     29 C30         3.2180    5.3020   -1.0120 c1        1 91U     -0.109000
     30 CL21        4.8120    6.9310    0.4820 cl        1 91U     -0.017000
     31 H49        -2.0040   -1.2630    4.4130 hc        1 91U      0.110333
     32 H49A       -1.7080   -2.8350    4.5080 hc        1 91U      0.110333
     33 H49B       -0.6450   -1.7820    5.0800 hc        1 91U      0.110333
     34 H1         -2.3030   -3.1680    0.8610 hc        1 91U      0.115000
     35 H6         -4.0250   -2.1180   -1.1350 hc        1 91U      0.077750
     36 H6A        -4.0270   -1.7230    0.4160 hc        1 91U      0.077750
     37 H5         -5.8180   -3.1810   -0.1590 hc        1 91U      0.079500
     38 H5A        -4.9080   -3.7620    1.0110 hc        1 91U      0.079500
     39 H4         -4.8720   -4.5960   -1.7030 hc        1 91U      0.078000
     40 H4A        -5.3210   -5.4920   -0.4500 hc        1 91U      0.078000
     41 H3         -3.1460   -6.0420   -1.2490 hc        1 91U      0.079500
     42 H3A        -3.1510   -5.6420    0.2850 hc        1 91U      0.079500
     43 H2         -2.2650   -4.0080   -1.8380 hc        1 91U      0.077750
     44 H2A        -1.3540   -4.5870   -0.6750 hc        1 91U      0.077750
     45 HN         -2.2760   -1.9430    1.8420 hn        1 91U      0.240000
     46 H15        -0.8300   -0.3090    0.6060 h1        1 91U      0.137000
     47 H31        -2.0030   -1.1780   -1.0180 hc        1 91U      0.098500
     48 H31A       -0.8470   -2.2740   -1.1730 hc        1 91U      0.098500
     49 H32         0.6790    1.1870    0.9300 h1        1 91U      0.123000
     50 H35         2.8670    2.2050    0.9190 hc        1 91U      0.102500
     51 H35A        2.2890    1.4260    2.1980 hc        1 91U      0.102500
     52 H34         4.3570    0.5990    0.5320 hc        1 91U      0.095000
     53 H34A        4.0110    0.0330    1.9920 hc        1 91U      0.095000
     54 H33         3.2560   -1.0230   -0.4610 h1        1 91U      0.106000
     55 H33A        3.2050   -1.7440    0.9830 h1        1 91U      0.106000
     56 HN23        1.1220    3.5230   -0.3790 hn        1 91U      0.249000
     57 H24         2.5940    3.0600   -2.6860 h1        1 91U      0.108000
     58 H24A        1.1040    3.5990   -2.9230 h1        1 91U      0.108000
     59 H26         1.3220    5.8670   -3.6400 ha        1 91U      0.135000
     60 H27         2.1390    8.0680   -3.3140 ha        1 91U      0.136000
     61 H28         3.6370    8.5280   -1.5370 ha        1 91U      0.146000
     62 H30         3.4980    4.5860   -0.4150 ha        1 91U      0.168000
@<TRIPOS>BOND
     1    1    2 1   
     2    1    3 1   
     3    3   31 1   
     4    3   32 1   
     5    3   33 1   
     6    4    5 1   
     7    4    9 1   
     8    4   12 1   
     9    4   34 1   
    10    5    6 1   
    11    5   35 1   
    12    5   36 1   
    13    6    7 1   
    14    6   37 1   
    15    6   38 1   
    16    7    8 1   
    17    7   39 1   
    18    7   40 1   
    19    8    9 1   
    20    8   41 1   
    21    8   42 1   
    22    9   43 1   
    23    9   44 1   
    24   10   11 1   
    25   10   45 1   
    26   11   12 1   
    27   11   13 1   
    28   11   46 1   
    29   12   47 1   
    30   12   48 1   
    31   13   14 1   
    32   13   15 1   
    33   15   16 1   
    34   15   21 1   
    35   16   17 1   
    36   16   19 1   
    37   16   49 1   
    38   17   18 1   
    39   17   22 1   
    40   19   20 1   
    41   19   50 1   
    42   19   51 1   
    43   20   21 1   
    44   20   52 1   
    45   20   53 1   
    46   21   54 1   
    47   21   55 1   
    48   22   23 1   
    49   22   56 1   
    50   23   24 1   
    51   23   57 1   
    52   23   58 1   
    53   24   25 1   
    54   24   29 1   
    55   25   26 1   
    56   25   59 1   
    57   26   60 1   
    58   27   28 1   
    59   27   61 1   
    60   28   30 1   
    61   29   62 1   
@<TRIPOS>SUBSTRUCTURE
     1 91U         1 TEMP              0 ****  ****    0 ROOT
