@<TRIPOS>MOLECULE
91U
   62    64     1     0     0
SMALL
bcc


@<TRIPOS>ATOM
      1 C47         2.9940    2.8430   -0.1600 c         1 91U      0.663100
      2 O48         3.4420    2.7130   -1.3120 o         1 91U     -0.584100
      3 C49         2.7270    4.2170    0.4140 c3        1 91U     -0.180100
      4 C1          5.0230   -0.2600   -0.2950 c3        1 91U     -0.061700
      5 C6          5.2080   -1.5360    0.5150 c3        1 91U     -0.075400
      6 C5          6.6480   -1.7010    0.9580 c3        1 91U     -0.075900
      7 C4          7.5930   -1.6830   -0.2260 c3        1 91U     -0.077400
      8 C3          7.4080   -0.4270   -1.0520 c3        1 91U     -0.075900
      9 C2          5.9690   -0.2570   -1.4900 c3        1 91U     -0.075400
     10 N           2.7800    1.7680    0.7060 n         1 91U     -0.543900
     11 C15         2.6460    0.3860    0.3250 c3        1 91U      0.059700
     12 C31         3.5880   -0.1160   -0.7790 c3        1 91U     -0.086400
     13 C14         1.1980    0.0430   -0.1220 c         1 91U      0.625100
     14 O32         0.5180    0.8540   -0.7850 o         1 91U     -0.617100
     15 N1          0.6420   -1.1580    0.2790 n         1 91U     -0.459800
     16 C32        -0.6290   -1.6290   -0.2620 c3        1 91U      0.031700
     17 C7         -1.8470   -1.1150    0.5440 c         1 91U      0.649100
     18 O22        -2.6460   -1.9030    1.0870 o         1 91U     -0.618100
     19 C35        -0.5790   -3.1720   -0.2540 c3        1 91U     -0.088400
     20 C34         0.6600   -3.5610    0.5430 c3        1 91U     -0.090400
     21 C33         1.4030   -2.2520    0.8580 c3        1 91U      0.082000
     22 N23        -2.0000    0.2520    0.6350 n         1 91U     -0.552900
     23 C24        -3.1630    0.8450    1.2370 c3        1 91U      0.131300
     24 C25        -4.3020    1.1070    0.2890 ca        1 91U     -0.113300
     25 C26        -4.6040    2.4100   -0.1170 ca        1 91U     -0.119000
     26 C27        -5.6800    2.6420   -0.9740 ca        1 91U     -0.126000
     27 C28        -6.4570    1.5810   -1.4340 ca        1 91U     -0.120000
     28 C29        -6.1480    0.2790   -1.0280 ca        1 91U      0.014400
     29 C30        -5.0750    0.0350   -0.1680 ca        1 91U     -0.108000
     30 CL21       -7.0910   -1.0220   -1.5870 cl        1 91U     -0.095400
     31 H49         3.2960    4.3720    1.3620 hc        1 91U      0.067033
     32 H49A        3.0500    4.9840   -0.3320 hc        1 91U      0.067033
     33 H49B        1.6360    4.3430    0.6140 hc        1 91U      0.067033
     34 H1          5.2820    0.6200    0.3580 hc        1 91U      0.062700
     35 H6A         4.9050   -2.4200   -0.1060 hc        1 91U      0.039950
     36 H5          6.9180   -0.8730    1.6640 hc        1 91U      0.039950
     37 H5A         6.7600   -2.6680    1.5140 hc        1 91U      0.039950
     38 H4          8.6510   -1.7430    0.1380 hc        1 91U      0.039200
     39 H4A         7.4050   -2.5830   -0.8680 hc        1 91U      0.039200
     40 H3          7.7230    0.4660   -0.4500 hc        1 91U      0.039950
     41 H3A         8.0700   -0.4720   -1.9570 hc        1 91U      0.039950
     42 H2          5.6860   -1.0870   -2.1890 hc        1 91U      0.039950
     43 H2A         5.8570    0.7100   -2.0470 hc        1 91U      0.039950
     44 HN          2.2620    1.9930    1.5280 hn        1 91U      0.297500
     45 H15         2.8740   -0.1980    1.2720 h1        1 91U      0.066700
     46 H31         3.2140   -1.1130   -1.1340 hc        1 91U      0.074200
     47 H31A        3.5510    0.5810   -1.6600 hc        1 91U      0.074200
     48 H32        -0.7550   -1.2440   -1.3180 h1        1 91U      0.086700
     49 H35        -0.5080   -3.5440   -1.3060 hc        1 91U      0.076200
     50 H35A       -1.5060   -3.6000    0.2050 hc        1 91U      0.076200
     51 H34         1.3160   -4.2500   -0.0420 hc        1 91U      0.057700
     52 H34A        0.3760   -4.0780    1.4920 hc        1 91U      0.057700
     53 H33         2.4490   -2.2820    0.4420 h1        1 91U      0.050200
     54 H33A        1.4740   -2.0960    1.9700 h1        1 91U      0.050200
     55 HN23       -1.4540    0.8320    0.0350 hn        1 91U      0.335500
     56 H24        -3.5330    0.1580    2.0550 h1        1 91U      0.067700
     57 H24A       -2.8410    1.8190    1.7080 h1        1 91U      0.067700
     58 H26        -3.9950    3.2540    0.2400 ha        1 91U      0.134000
     59 H27        -5.9170    3.6690   -1.2910 ha        1 91U      0.137000
     60 H28        -7.3040    1.7670   -2.1110 ha        1 91U      0.146000
     61 H30        -4.8260   -0.9910    0.1570 ha        1 91U      0.169000
     62 H6          4.5430   -1.5150    1.4170 hc        1 91U      0.039950
@<TRIPOS>BOND
     1    1    2 2   
     2    1    3 1   
     3    1   10 1   
     4    3   31 1   
     5    3   32 1   
     6    3   33 1   
     7    4    5 1   
     8    4    9 1   
     9    4   12 1   
    10    4   34 1   
    11    5    6 1   
    12    5   35 1   
    13    5   62 1   
    14    6    7 1   
    15    6   36 1   
    16    6   37 1   
    17    7    8 1   
    18    7   38 1   
    19    7   39 1   
    20    8    9 1   
    21    8   40 1   
    22    8   41 1   
    23    9   42 1   
    24    9   43 1   
    25   10   11 1   
    26   10   44 1   
    27   11   12 1   
    28   11   13 1   
    29   11   45 1   
    30   12   46 1   
    31   12   47 1   
    32   13   14 2   
    33   13   15 1   
    34   15   16 1   
    35   15   21 1   
    36   16   17 1   
    37   16   19 1   
    38   16   48 1   
    39   17   18 2   
    40   17   22 1   
    41   19   20 1   
    42   19   49 1   
    43   19   50 1   
    44   20   21 1   
    45   20   51 1   
    46   20   52 1   
    47   21   53 1   
    48   21   54 1   
    49   22   23 1   
    50   22   55 1   
    51   23   24 1   
    52   23   56 1   
    53   23   57 1   
    54   24   25 ar  
    55   24   29 ar  
    56   25   26 ar  
    57   25   58 1   
    58   26   27 ar  
    59   26   59 1   
    60   27   28 ar  
    61   27   60 1   
    62   28   29 ar  
    63   28   30 1   
    64   29   61 1   
@<TRIPOS>SUBSTRUCTURE
     1 91U         1 TEMP              0 ****  ****    0 ROOT
