@<TRIPOS>MOLECULE
920
   59    64     1     0     0
SMALL
bcc


@<TRIPOS>ATOM
      1 F31        -0.2090    0.1130    0.2350 f         1 920     -0.126900
      2 C6          1.1430    0.0980    0.1570 ca        1 920      0.158900
      3 C1          1.8910    0.2450    1.3420 ca        1 920     -0.200000
      4 C5          1.7540   -0.0540   -1.1010 ca        1 920     -0.153000
      5 C4          3.1380   -0.0690   -1.1440 cp        1 920      0.003000
      6 C9          4.0870   -0.2210   -2.2260 cp        1 920     -0.291600
      7 C10         4.0180   -0.3910   -3.6160 ca        1 920      0.695200
      8 N22         2.7350   -0.4520   -4.2610 nh        1 920     -0.699300
      9 C26         2.6030   -1.4400   -5.3400 c3        1 920      0.156800
     10 C25         2.4470   -0.7180   -6.6770 cy        1 920     -0.108700
     11 C28         3.7170   -0.2840   -7.4770 cy        1 920      0.083500
     12 N29         5.0120   -0.8630   -7.0760 n4        1 920     -0.870600
     13 C27         3.4750    1.1980   -7.0540 cy        1 920     -0.088400
     14 C24         2.1830    0.7860   -6.3090 cy        1 920     -0.070000
     15 C30         0.9260    1.3950   -6.8470 c3        1 920     -0.088100
     16 C23         2.2750    0.8500   -4.7760 c3        1 920      0.162800
     17 N11         5.1780   -0.5160   -4.3420 nb        1 920     -0.898000
     18 C12         6.3650   -0.4920   -3.6600 ca        1 920      0.899300
     19 N13         6.5840   -0.3370   -2.3220 nb        1 920     -0.734000
     20 C8          5.4270   -0.1930   -1.6100 ca        1 920      0.545800
     21 N7          5.2960    0.0180   -0.2450 na        1 920     -0.252000
     22 C3          3.9140    0.0630    0.0610 ca        1 920     -0.090200
     23 C2          3.2990    0.2330    1.3280 ca        1 920      0.173600
     24 N32         4.0860    0.2930    2.4860 nh        1 920     -0.727600
     25 C33         3.4320    0.4200    3.7600 c3        1 920      0.162100
     26 O14         7.4290   -0.6530   -4.5490 os        1 920     -0.361400
     27 C15         8.7090   -0.6480   -4.0020 ca        1 920     -0.184500
     28 C20         9.3440   -1.8550   -3.6380 ca        1 920      0.458200
     29 N19        10.6270   -1.8750   -3.2410 nb        1 920     -0.684000
     30 C18        11.2880   -0.6710   -3.1890 ca        1 920      0.678300
     31 C21        12.7280   -0.6770   -2.7420 c3        1 920     -0.144400
     32 N17        10.7340    0.5450   -3.5140 nb        1 920     -0.684000
     33 C16         9.4520    0.5500   -3.9090 ca        1 920      0.458200
     34 H1          1.3430    0.3670    2.2900 ha        1 920      0.168000
     35 H2          1.1450   -0.1640   -2.0090 ha        1 920      0.166000
     36 H3          1.6390   -1.9900   -5.1210 h1        1 920      0.080200
     37 H4          3.4210   -2.2050   -5.3420 h1        1 920      0.080200
     38 H5          1.6890   -1.2000   -7.3300 hc        1 920      0.107700
     39 H6          3.5840   -0.4430   -8.5820 hx        1 920      0.105700
     40 H7          5.1630   -0.7290   -6.0180 hn        1 920      0.469133
     41 H8          5.0290   -1.8610   -7.2870 hn        1 920      0.469133
     42 H10         4.2580    1.6340   -6.3970 hc        1 920      0.085700
     43 H11         3.2980    1.8650   -7.9260 hc        1 920      0.085700
     44 H12         0.8840    1.2970   -7.9590 hc        1 920      0.059033
     45 H13         0.8830    2.4810   -6.5850 hc        1 920      0.059033
     46 H14         0.0290    0.8890   -6.4140 hc        1 920      0.059033
     47 H15         2.9360    1.6960   -4.4470 h1        1 920      0.083700
     48 H16         1.2490    1.0130   -4.3380 h1        1 920      0.083700
     49 H17         6.0200   -0.1000    0.4210 hn        1 920      0.329700
     50 H18         4.8770    0.8980    2.3890 hn        1 920      0.400800
     51 H19         2.7480   -0.4560    3.9160 h1        1 920      0.051367
     52 H20         4.2220    0.4070    4.5580 h1        1 920      0.051367
     53 H21         2.8330    1.3660    3.8580 h1        1 920      0.051367
     54 H22         8.8160   -2.8250   -3.6700 h4        1 920      0.040600
     55 H23        12.8390   -0.0280   -1.8370 hc        1 920      0.075700
     56 H24        13.3720   -0.2670   -3.5590 hc        1 920      0.075700
     57 H25        13.0720   -1.7100   -2.4920 hc        1 920      0.075700
     58 H26         9.0100    1.5300   -4.1620 h4        1 920      0.040600
     59 H293        5.7690   -0.3980   -7.5770 hn        1 920      0.469133
@<TRIPOS>BOND
     1    1    2 1   
     2    2    3 ar  
     3    2    4 ar  
     4    3   23 ar  
     5    3   34 1   
     6    4    5 ar  
     7    4   35 1   
     8    5    6 1   
     9    5   22 ar  
    10    6    7 ar  
    11    6   20 ar  
    12    7    8 1   
    13    7   17 ar  
    14    8    9 1   
    15    8   16 1   
    16    9   10 1   
    17    9   36 1   
    18    9   37 1   
    19   10   11 1   
    20   10   14 1   
    21   10   38 1   
    22   11   12 1   
    23   11   13 1   
    24   11   39 1   
    25   12   40 1   
    26   12   41 1   
    27   12   59 1   
    28   13   14 1   
    29   13   42 1   
    30   13   43 1   
    31   14   15 1   
    32   14   16 1   
    33   15   44 1   
    34   15   45 1   
    35   15   46 1   
    36   16   47 1   
    37   16   48 1   
    38   17   18 ar  
    39   18   19 ar  
    40   18   26 1   
    41   19   20 ar  
    42   20   21 1   
    43   21   22 1   
    44   21   49 1   
    45   22   23 ar  
    46   23   24 1   
    47   24   25 1   
    48   24   50 1   
    49   25   51 1   
    50   25   52 1   
    51   25   53 1   
    52   26   27 1   
    53   27   28 ar  
    54   27   33 ar  
    55   28   29 ar  
    56   28   54 1   
    57   29   30 ar  
    58   30   31 1   
    59   30   32 ar  
    60   31   55 1   
    61   31   56 1   
    62   31   57 1   
    63   32   33 ar  
    64   33   58 1   
@<TRIPOS>SUBSTRUCTURE
     1 920         1 TEMP              0 ****  ****    0 ROOT
