@<TRIPOS>MOLECULE
920
   58    52     1     0     0
SMALL
bcc


@<TRIPOS>ATOM
      1 F31        -4.2070    4.2950    1.5720 f         1 920     -0.107000
      2 C6         -3.1960    3.5130    1.9860 c2        1 920      0.099000
      3 C1         -2.7980    3.5740    3.3190 c2        1 920     -0.205000
      4 C5         -2.6890    2.5190    1.1520 c1        1 920     -0.143000
      5 C4         -1.7710    1.5730    1.6590 c1        1 920      0.013000
      6 C9         -1.2010    0.4200    1.0880 c1        1 920     -0.031000
      7 C10        -1.2690   -0.1190   -0.1930 c1        1 920      0.190000
      8 N22        -1.2130    0.8860   -1.2370 n3        1 920     -0.217000
      9 C26        -1.7930    0.2990   -2.5540 c3        1 920     -0.058000
     10 C25        -1.1640    0.9860   -3.5810 cy        1 920     -0.128000
     11 C28        -0.4560    0.0990   -4.5300 cy        1 920     -0.027000
     12 N29        -0.8340   -1.2360   -4.4090 n3        1 920     -0.339000
     13 C27         0.8140    0.4010   -3.8400 cy        1 920     -0.205000
     14 C24         0.1240    1.4350   -3.0480 cy        1 920     -0.086000
     15 C30         0.4800    2.8760   -3.4550 c3        1 920     -0.192000
     16 C23         0.0870    1.1820   -1.5130 c3        1 920     -0.059000
     17 N11        -0.6120   -1.2620   -0.4780 n1        1 920     -0.281000
     18 C12         0.1250   -1.8950    0.4970 c1        1 920      0.175000
     19 N13         0.1930   -1.3660    1.7590 n1        1 920     -0.182000
     20 C8         -0.4710   -0.2080    2.0530 c1        1 920     -0.031000
     21 N7         -0.5750    0.5380    3.2290 n1        1 920     -0.197000
     22 C3         -1.3790    1.6330    2.9730 c1        1 920     -0.040000
     23 C2         -1.8930    2.6420    3.8180 c1        1 920      0.063000
     24 N32        -0.7070    2.9890    4.5540 n2        1 920     -0.277000
     25 C33        -0.7820    3.9310    5.6380 c3        1 920     -0.113000
     26 O14         0.1710   -3.1030    1.2480 os        1 920     -0.105000
     27 C15         1.3710   -3.8050    0.9450 c2        1 920     -0.050000
     28 C20         1.3390   -4.8770    0.0960 c2        1 920     -0.037000
     29 N19         2.4500   -5.6090   -0.1050 n1        1 920     -0.172000
     30 C18         3.6120   -5.2820    0.5390 c1        1 920      0.025000
     31 C21         4.8930   -6.0590    0.2410 c3        1 920     -0.160000
     32 N17         3.6460   -4.2110    1.3870 n1        1 920     -0.163000
     33 C16         2.5360   -3.4780    1.5900 c1        1 920     -0.022000
     34 H1         -3.1660    4.2660    3.9090 ha        1 920      0.153000
     35 H2         -2.9930    2.4580    0.2230 ha        1 920      0.170000
     36 H3         -2.7670    0.4470   -2.5930 h1        1 920      0.103500
     37 H4         -1.5920   -0.6610   -2.6160 h1        1 920      0.103500
     38 H5         -1.6930    1.7020   -4.0020 hc        1 920      0.114000
     39 H6         -0.4770    0.4360   -5.4560 h1        1 920      0.104000
     40 H7         -0.1000   -1.7750   -4.5330 hn        1 920      0.156000
     41 H8         -1.4710   -1.4330   -5.0440 hn        1 920      0.156000
     42 H10         1.1370   -0.3480   -3.2910 hc        1 920      0.096000
     43 H11         1.4980    0.7740   -4.4430 hc        1 920      0.096000
     44 H12         0.4130    2.9670   -4.4320 hc        1 920      0.079333
     45 H13         1.4000    3.0800   -3.1680 hc        1 920      0.079333
     46 H14        -0.1430    3.5020   -3.0240 hc        1 920      0.079333
     47 H15         0.6680    0.4240   -1.2780 h1        1 920      0.101500
     48 H16         0.3650    1.9910   -1.0270 h1        1 920      0.101500
     49 H17        -0.1890    0.3290    4.0340 DU        1 920      0.261000
     50 H18         0.1010    2.6250    4.3190 hn        1 920      0.188000
     51 H19        -1.1970    3.5000    6.4180 h1        1 920      0.081667
     52 H20        -1.3240    4.7020    5.3640 h1        1 920      0.081667
     53 H21         0.1250    4.2340    5.8740 h1        1 920      0.081667
     54 H22         0.5080   -5.1120   -0.3650 h4        1 920      0.180000
     55 H23         5.4240   -5.5710   -0.4260 hc        1 920      0.104000
     56 H24         4.6630   -6.9480   -0.1090 hc        1 920      0.104000
     57 H25         5.4160   -6.1570    1.0670 hc        1 920      0.104000
     58 H26         2.5610   -2.7090    2.1980 ha        1 920      0.183000
@<TRIPOS>BOND
     1    1    2 1   
     2    2    3 1   
     3    2    4 1   
     4    3   23 1   
     5    3   34 1   
     6    4   35 1   
     7    5   22 1   
     8    6   20 1   
     9    7    8 1   
    10    7   17 1   
    11    8    9 1   
    12    8   16 1   
    13    9   10 1   
    14    9   36 1   
    15    9   37 1   
    16   10   11 1   
    17   10   14 1   
    18   10   38 1   
    19   11   12 1   
    20   11   13 1   
    21   11   39 1   
    22   12   40 1   
    23   12   41 1   
    24   13   14 1   
    25   13   42 1   
    26   13   43 1   
    27   14   15 1   
    28   14   16 1   
    29   15   44 1   
    30   15   45 1   
    31   15   46 1   
    32   16   47 1   
    33   16   48 1   
    34   18   19 1   
    35   18   26 1   
    36   21   22 1   
    37   24   25 1   
    38   24   50 1   
    39   25   51 1   
    40   25   52 1   
    41   25   53 1   
    42   26   27 1   
    43   27   28 1   
    44   27   33 1   
    45   28   29 1   
    46   28   54 1   
    47   30   31 1   
    48   30   32 1   
    49   31   55 1   
    50   31   56 1   
    51   31   57 1   
    52   33   58 1   
@<TRIPOS>SUBSTRUCTURE
     1 920         1 TEMP              0 ****  ****    0 ROOT
