@<TRIPOS>MOLECULE
920
   59    64     1     0     0
SMALL
bcc


@<TRIPOS>ATOM
      1 F31        -0.1710    0.1820    0.2870 f         1 920     -0.126900
      2 C6          1.1800    0.1420    0.1950 ca        1 920      0.158900
      3 C1          1.9420    0.2670    1.3730 ca        1 920     -0.200000
      4 C5          1.7760   -0.0120   -1.0700 ca        1 920     -0.153000
      5 C4          3.1590   -0.0520   -1.1270 cp        1 920      0.003000
      6 C9          4.0940   -0.2130   -2.2200 cp        1 920     -0.291600
      7 C10         4.0080   -0.3720   -3.6100 ca        1 920      0.695200
      8 N22         2.7180   -0.4050   -4.2420 nh        1 920     -0.699300
      9 C26         2.5560   -1.3840   -5.3250 c3        1 920      0.156800
     10 C25         2.4010   -0.6510   -6.6570 cy        1 920     -0.108700
     11 C28         3.6700   -0.2360   -7.4670 cy        1 920      0.083500
     12 N29         4.9580   -0.8410   -7.0830 nz        1 920     -0.870600
     13 C27         3.4590    1.2470   -7.0330 cy        1 920     -0.088400
     14 C24         2.1680    0.8550   -6.2770 cy        1 920     -0.070000
     15 C30         0.9180    1.4900   -6.7980 c3        1 920     -0.088100
     16 C23         2.2770    0.9080   -4.7440 c3        1 920      0.162800
     17 N11         5.1590   -0.5130   -4.3480 nb        1 920     -0.898000
     18 C12         6.3520   -0.5160   -3.6790 ca        1 920      0.899300
     19 N13         6.5880   -0.3740   -2.3410 nb        1 920     -0.734000
     20 C8          5.4410   -0.2140   -1.6170 ca        1 920      0.545800
     21 N7          5.3270   -0.0100   -0.2490 na        1 920     -0.252000
     22 C3          3.9490    0.0570    0.0710 ca        1 920     -0.090200
     23 C2          3.3500    0.2290    1.3450 ca        1 920      0.173600
     24 N32         4.1490    0.2680    2.4960 nu        1 920     -0.727600
     25 C33         3.5110    0.3960    3.7770 c3        1 920      0.162100
     26 O14         7.4050   -0.6910   -4.5790 os        1 920     -0.361400
     27 C15         8.6900   -0.7060   -4.0450 ca        1 920     -0.184500
     28 C20         9.2990   -1.9200   -3.6550 ca        1 920      0.458200
     29 N19        10.5830   -1.9620   -3.2710 nb        1 920     -0.684500
     30 C18        11.2770   -0.7740   -3.2590 ca        1 920      0.678300
     31 C21        12.7200   -0.8210   -2.8250 c3        1 920     -0.144400
     32 N17        10.7510    0.4460   -3.6110 nb        1 920     -0.684500
     33 C16         9.4640    0.4740   -3.9920 ca        1 920      0.458200
     34 H1          1.4060    0.3930    2.3280 ha        1 920      0.168000
     35 H2          1.1560   -0.1040   -1.9720 ha        1 920      0.166000
     36 H3          3.3610   -2.1640   -5.3410 h1        1 920      0.080200
     37 H4          1.5850   -1.9170   -5.1000 h1        1 920      0.080200
     38 H5          1.6270   -1.1150   -7.3050 hc        1 920      0.107700
     39 H6          3.5230   -0.3860   -8.5710 hx        1 920      0.105700
     40 H7          5.1230   -0.7160   -6.0250 hn        1 920      0.469133
     41 H8          4.9550   -1.8370   -7.2990 hn        1 920      0.469133
     42 H10         4.2580    1.6660   -6.3820 hc        1 920      0.085700
     43 H11         3.2870    1.9230   -7.8990 hc        1 920      0.085700
     44 H12         0.8620    1.3990   -7.9110 hc        1 920      0.059033
     45 H13         0.8970    2.5750   -6.5300 hc        1 920      0.059033
     46 H14         0.0150    0.9990   -6.3580 hc        1 920      0.059033
     47 H15         1.2590    1.0870   -4.2950 h1        1 920      0.083700
     48 H16         2.9570    1.7390   -4.4180 h1        1 920      0.083700
     49 H17         6.0550   -0.1450    0.4090 hn        1 920      0.329700
     50 H18         4.9500    0.8590    2.3950 hn        1 920      0.400800
     51 H19         4.3080    0.3630    4.5670 h1        1 920      0.051367
     52 H20         2.8120   -0.4680    3.9330 h1        1 920      0.051367
     53 H21         2.9300    1.3530    3.8880 h1        1 920      0.051367
     54 H22         8.7440   -2.8760   -3.6560 h4        1 920      0.040600
     55 H23        12.7850   -1.2500   -1.7940 hc        1 920      0.075700
     56 H24        13.2950   -1.4780   -3.5240 hc        1 920      0.075700
     57 H25        13.1780    0.1980   -2.8250 hc        1 920      0.075700
     58 H26         9.0450    1.4580   -4.2670 h4        1 920      0.040600
     59 H293        5.7190   -0.3880   -7.5890 hn        1 920      0.469133
@<TRIPOS>BOND
     1    1    2 1   
     2    2    3 ar  
     3    2    4 ar  
     4    3   23 ar  
     5    3   34 1   
     6    4    5 ar  
     7    4   35 1   
     8    5    6 1   
     9    5   22 ar  
    10    6    7 ar  
    11    6   20 ar  
    12    7    8 1   
    13    7   17 ar  
    14    8    9 1   
    15    8   16 1   
    16    9   10 1   
    17    9   36 1   
    18    9   37 1   
    19   10   11 1   
    20   10   14 1   
    21   10   38 1   
    22   11   12 1   
    23   11   13 1   
    24   11   39 1   
    25   12   40 1   
    26   12   41 1   
    27   12   59 1   
    28   13   14 1   
    29   13   42 1   
    30   13   43 1   
    31   14   15 1   
    32   14   16 1   
    33   15   44 1   
    34   15   45 1   
    35   15   46 1   
    36   16   47 1   
    37   16   48 1   
    38   17   18 ar  
    39   18   19 ar  
    40   18   26 1   
    41   19   20 ar  
    42   20   21 1   
    43   21   22 1   
    44   21   49 1   
    45   22   23 ar  
    46   23   24 1   
    47   24   25 1   
    48   24   50 1   
    49   25   51 1   
    50   25   52 1   
    51   25   53 1   
    52   26   27 1   
    53   27   28 ar  
    54   27   33 ar  
    55   28   29 ar  
    56   28   54 1   
    57   29   30 ar  
    58   30   31 1   
    59   30   32 ar  
    60   31   55 1   
    61   31   56 1   
    62   31   57 1   
    63   32   33 ar  
    64   33   58 1   
@<TRIPOS>SUBSTRUCTURE
     1 920         1 TEMP              0 ****  ****    0 ROOT
