@<TRIPOS>MOLECULE
920
   60    65     1     0     0
SMALL
bcc


@<TRIPOS>ATOM
      1 F31        -0.1930    0.1320    0.2400 f         1 920     -0.091900
      2 C6          1.1550    0.1000    0.1730 ca        1 920      0.148900
      3 C1          1.8970    0.2190    1.3630 ca        1 920     -0.118000
      4 C5          1.7850   -0.0500   -1.0820 ca        1 920     -0.063000
      5 C4          3.1650   -0.0810   -1.1240 cp        1 920      0.007000
      6 C9          4.1140   -0.2220   -2.2070 cp        1 920     -0.320600
      7 C10         4.0420   -0.3900   -3.6070 ca        1 920      0.727200
      8 N22         2.7550   -0.4540   -4.2390 nh        1 920     -0.713300
      9 C26         2.6120   -1.4550   -5.3080 c3        1 920      0.153800
     10 C25         2.4130   -0.7490   -6.6460 cy        1 920     -0.108700
     11 C28         3.6490   -0.3230   -7.5000 cy        1 920      0.081500
     12 N29         4.9640   -0.9030   -7.1590 n4        1 920     -0.850600
     13 C27         3.4270    1.1620   -7.0790 cy        1 920     -0.089400
     14 C24         2.1580    0.7590   -6.2910 cy        1 920     -0.066000
     15 C30         0.8860    1.3610   -6.8030 c3        1 920     -0.092100
     16 C23         2.2900    0.8460   -4.7630 c3        1 920      0.160800
     17 N11         5.1960   -0.5150   -4.3290 nb        1 920     -0.865000
     18 C12         6.3900   -0.4870   -3.6510 ca        1 920      0.918300
     19 N13         6.6020   -0.3300   -2.3030 nb        1 920     -0.719000
     20 C8          5.4450   -0.1980   -1.6040 ca        1 920      0.560800
     21 N7          5.3170   -0.0220   -0.2140 na        1 920     -0.300000
     22 C3          3.9490    0.0330    0.0920 ca        1 920     -0.010200
     23 C2          3.3010    0.1890    1.3330 ca        1 920     -0.057400
     24 N32         4.1000    0.3120    2.5550 n4        1 920     -0.617400
     25 C33         3.3220    0.5160    3.8030 c3        1 920      0.080100
     26 O14         7.4500   -0.6410   -4.5300 os        1 920     -0.334400
     27 C15         8.7360   -0.6240   -3.9910 ca        1 920     -0.216500
     28 C20         9.3790   -1.8260   -3.6200 ca        1 920      0.466200
     29 N19        10.6650   -1.8350   -3.2390 nb        1 920     -0.679000
     30 C18        11.3270   -0.6290   -3.2160 ca        1 920      0.695300
     31 C21        12.7800   -0.6360   -2.8170 c3        1 920     -0.150400
     32 N17        10.7620    0.5810   -3.5500 nb        1 920     -0.679000
     33 C16         9.4760    0.5780   -3.9290 ca        1 920      0.466200
     34 H1          1.3340    0.3340    2.3060 ha        1 920      0.183000
     35 H2          1.1760   -0.1450   -1.9980 ha        1 920      0.197000
     36 H3          3.4430   -2.2060   -5.3250 h1        1 920      0.084700
     37 H4          1.6630   -2.0180   -5.0590 h1        1 920      0.084700
     38 H5          1.6310   -1.2400   -7.2660 hc        1 920      0.120700
     39 H6          3.4700   -0.4910   -8.5980 hx        1 920      0.121700
     40 H7          5.1800   -0.7510   -6.1420 hn        1 920      0.469800
     41 H8          5.6930   -0.4560   -7.7210 hn        1 920      0.469800
     42 H10         3.2240    1.8260   -7.9500 hc        1 920      0.091200
     43 H11         4.2340    1.6020   -6.4530 hc        1 920      0.091200
     44 H12         0.8130    1.2450   -7.9120 hc        1 920      0.065367
     45 H13         0.8490    2.4510   -6.5590 hc        1 920      0.065367
     46 H14        -0.0000    0.8620   -6.3380 hc        1 920      0.065367
     47 H15         2.9650    1.6920   -4.4660 h1        1 920      0.083200
     48 H16         1.2760    1.0210   -4.3030 h1        1 920      0.083200
     49 H17         6.0750   -0.0460    0.4200 hn        1 920      0.325700
     50 H18         4.7400    1.1110    2.4360 hn        1 920      0.457300
     51 H19         2.7090    1.4550    3.7220 hx        1 920      0.119033
     52 H20         2.6500   -0.3660    3.9830 hx        1 920      0.119033
     53 H21         4.0480    0.6150    4.6580 hx        1 920      0.119033
     54 H22         8.8560   -2.7990   -3.6390 h4        1 920      0.042100
     55 H23        12.9940   -1.4740   -2.1080 hc        1 920      0.083033
     56 H24        13.3990   -0.7790   -3.7400 hc        1 920      0.083033
     57 H25        13.0670    0.3320   -2.3390 hc        1 920      0.083033
     58 H26         9.0320    1.5540   -4.1970 h4        1 920      0.042100
     59 H293        4.9620   -1.9080   -7.3510 hn        1 920      0.469800
     60 H322        4.6610   -0.5450    2.6560 hn        1 920      0.457300
@<TRIPOS>BOND
     1    1    2 1   
     2    2    3 ar  
     3    2    4 ar  
     4    3   23 ar  
     5    3   34 1   
     6    4    5 ar  
     7    4   35 1   
     8    5    6 1   
     9    5   22 ar  
    10    6    7 ar  
    11    6   20 ar  
    12    7    8 1   
    13    7   17 ar  
    14    8    9 1   
    15    8   16 1   
    16    9   10 1   
    17    9   36 1   
    18    9   37 1   
    19   10   11 1   
    20   10   14 1   
    21   10   38 1   
    22   11   12 1   
    23   11   13 1   
    24   11   39 1   
    25   12   40 1   
    26   12   41 1   
    27   12   59 1   
    28   13   14 1   
    29   13   42 1   
    30   13   43 1   
    31   14   15 1   
    32   14   16 1   
    33   15   44 1   
    34   15   45 1   
    35   15   46 1   
    36   16   47 1   
    37   16   48 1   
    38   17   18 ar  
    39   18   19 ar  
    40   18   26 1   
    41   19   20 ar  
    42   20   21 1   
    43   21   22 1   
    44   21   49 1   
    45   22   23 ar  
    46   23   24 1   
    47   24   25 1   
    48   24   50 1   
    49   24   60 1   
    50   25   51 1   
    51   25   52 1   
    52   25   53 1   
    53   26   27 1   
    54   27   28 ar  
    55   27   33 ar  
    56   28   29 ar  
    57   28   54 1   
    58   29   30 ar  
    59   30   31 1   
    60   30   32 ar  
    61   31   55 1   
    62   31   56 1   
    63   31   57 1   
    64   32   33 ar  
    65   33   58 1   
@<TRIPOS>SUBSTRUCTURE
     1 920         1 TEMP              0 ****  ****    0 ROOT
