@<TRIPOS>MOLECULE
920
   58    63     1     0     0
SMALL
bcc


@<TRIPOS>ATOM
      1 F31        -4.8680   -3.4410    0.3080 f         1 920     -0.141900
      2 C6         -3.5370   -3.2490    0.1340 ca        1 920      0.136900
      3 C1         -2.7390   -4.3530   -0.2290 ca        1 920     -0.207000
      4 C5         -3.0000   -1.9630    0.3120 ca        1 920     -0.150000
      5 C4         -1.6350   -1.8000    0.1320 cp        1 920      0.017000
      6 C9         -0.7500   -0.6600    0.2470 cp        1 920     -0.333600
      7 C10        -0.8920    0.7190    0.5460 ca        1 920      0.711200
      8 N22        -2.1970    1.2290    0.8140 nh        1 920     -0.717300
      9 C26        -3.0230    1.4270   -0.3920 c3        1 920      0.177800
     10 C25        -3.3870    2.9050   -0.5070 cy        1 920     -0.093700
     11 C28        -2.4140    3.8680   -1.2650 cy        1 920      0.166500
     12 N29        -1.4360    3.2840   -2.1300 n3        1 920     -0.901800
     13 C27        -1.9720    4.4730    0.1110 cy        1 920     -0.128400
     14 C24        -2.9670    3.5560    0.8540 cy        1 920     -0.089000
     15 C30        -4.0400    4.2710    1.6130 c3        1 920     -0.074100
     16 C23        -2.3130    2.4240    1.6600 c3        1 920      0.175800
     17 N11         0.2210    1.5180    0.6190 nb        1 920     -0.769000
     18 C12         1.4310    0.9160    0.4060 ca        1 920      0.879300
     19 N13         1.7180   -0.3870    0.0920 nb        1 920     -0.769000
     20 C8          0.6000   -1.1600    0.0050 ca        1 920      0.527800
     21 N7          0.5420   -2.5170   -0.3540 na        1 920     -0.265000
     22 C3         -0.8060   -2.9260   -0.2110 ca        1 920     -0.090200
     23 C2         -1.3510   -4.2180   -0.4110 ca        1 920      0.147600
     24 N32        -0.4950   -5.2990   -0.6980 nh        1 920     -0.721600
     25 C33        -1.0820   -6.5960   -0.8880 c3        1 920      0.163100
     26 O14         2.4730    1.8410    0.5290 os        1 920     -0.323400
     27 C15         3.7670    1.3560    0.3990 ca        1 920     -0.148500
     28 C20         4.3010    0.9030   -0.8270 ca        1 920      0.445700
     29 N19         5.5990    0.5770   -0.9470 nb        1 920     -0.693000
     30 C18         6.3800    0.6960    0.1750 ca        1 920      0.649300
     31 C21         7.8400    0.3340    0.0580 c3        1 920     -0.136400
     32 N17         5.9380    1.1210    1.4040 nb        1 920     -0.693000
     33 C16         4.6380    1.4420    1.5090 ca        1 920      0.445700
     34 H1         -3.2320   -5.3280   -0.3620 ha        1 920      0.153000
     35 H2         -3.6480   -1.1240    0.5990 ha        1 920      0.167000
     36 H3         -2.5290    1.0320   -1.3170 h1        1 920      0.067700
     37 H4         -3.9660    0.8320   -0.2250 h1        1 920      0.067700
     38 H5         -4.4450    3.0460   -0.8070 hc        1 920      0.076700
     39 H6         -3.0010    4.6170   -1.8620 h1        1 920      0.064700
     40 H7         -0.8590    3.9970   -2.5330 hn        1 920      0.355800
     41 H8         -0.8560    2.6330   -1.6390 hn        1 920      0.355800
     42 H10        -0.9080    4.2870    0.3740 hc        1 920      0.061200
     43 H11        -2.2010    5.5550    0.2100 hc        1 920      0.061200
     44 H12        -4.8350    3.5560    1.9390 hc        1 920      0.039700
     45 H13        -3.6100    4.7620    2.5190 hc        1 920      0.039700
     46 H14        -4.5130    5.0560    0.9750 hc        1 920      0.039700
     47 H15        -2.9910    2.1220    2.5090 h1        1 920      0.069700
     48 H16        -1.3390    2.7620    2.1000 h1        1 920      0.069700
     49 H17         1.3060   -3.1360   -0.2320 hn        1 920      0.308700
     50 H18         0.1680   -5.0710   -1.4140 hn        1 920      0.392800
     51 H19        -1.6180   -6.9020    0.0490 h1        1 920      0.042367
     52 H20        -1.8090   -6.6380   -1.7450 h1        1 920      0.042367
     53 H21        -0.2540   -7.3280   -1.0840 h1        1 920      0.042367
     54 H22         3.6710    0.7940   -1.7270 h4        1 920      0.043100
     55 H23         8.4640    1.2340    0.2820 hc        1 920      0.064367
     56 H24         8.0870   -0.4680    0.7960 hc        1 920      0.064367
     57 H25         8.0860   -0.0310   -0.9690 hc        1 920      0.064367
     58 H26         4.2800    1.7900    2.4950 h4        1 920      0.043100
@<TRIPOS>BOND
     1    1    2 1   
     2    2    3 ar  
     3    2    4 ar  
     4    3   23 ar  
     5    3   34 1   
     6    4    5 ar  
     7    4   35 1   
     8    5    6 1   
     9    5   22 ar  
    10    6    7 ar  
    11    6   20 ar  
    12    7    8 1   
    13    7   17 ar  
    14    8    9 1   
    15    8   16 1   
    16    9   10 1   
    17    9   36 1   
    18    9   37 1   
    19   10   11 1   
    20   10   14 1   
    21   10   38 1   
    22   11   12 1   
    23   11   13 1   
    24   11   39 1   
    25   12   40 1   
    26   12   41 1   
    27   13   14 1   
    28   13   42 1   
    29   13   43 1   
    30   14   15 1   
    31   14   16 1   
    32   15   44 1   
    33   15   45 1   
    34   15   46 1   
    35   16   47 1   
    36   16   48 1   
    37   17   18 ar  
    38   18   19 ar  
    39   18   26 1   
    40   19   20 ar  
    41   20   21 1   
    42   21   22 1   
    43   21   49 1   
    44   22   23 ar  
    45   23   24 1   
    46   24   25 1   
    47   24   50 1   
    48   25   51 1   
    49   25   52 1   
    50   25   53 1   
    51   26   27 1   
    52   27   28 ar  
    53   27   33 ar  
    54   28   29 ar  
    55   28   54 1   
    56   29   30 ar  
    57   30   31 1   
    58   30   32 ar  
    59   31   55 1   
    60   31   56 1   
    61   31   57 1   
    62   32   33 ar  
    63   33   58 1   
@<TRIPOS>SUBSTRUCTURE
     1 920         1 TEMP              0 ****  ****    0 ROOT
