@<TRIPOS>MOLECULE
922
   60    61     1     0     0
SMALL
bcc


@<TRIPOS>ATOM
      1 C37        -3.3160    0.5840   -0.6470 ca        1 922     -0.097000
      2 C38        -2.2600    1.1990   -1.3190 ca        1 922     -0.137500
      3 C39        -1.2810    1.8870   -0.6020 ca        1 922     -0.108000
      4 C40        -1.3560    1.9590    0.7890 ca        1 922     -0.137500
      5 C41        -2.4100    1.3460    1.4640 ca        1 922     -0.097000
      6 C36        -3.3970    0.6590    0.7480 ca        1 922     -0.150300
      7 C33        -4.5450    0.0420    1.4650 c3        1 922      0.199700
      8 O32        -4.2130   -1.2990    1.9240 os        1 922     -0.385900
      9 C30        -4.4680   -2.3110    1.0670 c         1 922      0.632100
     10 O31        -4.6750   -2.1820   -0.1350 o         1 922     -0.466000
     11 N29        -4.4240   -3.6290    1.7510 ny        1 922     -0.588800
     12 C25        -5.7650   -4.2490    1.8530 c3        1 922     -0.095700
     13 C26        -5.9350   -5.5930    1.1590 c3        1 922     -0.078700
     14 C28        -4.6800   -6.4360    1.0220 c3        1 922     -0.106600
     15 C27        -6.5510   -5.4010   -0.2160 c3        1 922     -0.106600
     16 P24        -6.1730   -4.4410    3.5860 p5        1 922      1.311600
     17 O34        -7.4020   -5.2340    3.6940 o         1 922     -0.790500
     18 O35        -4.8420   -4.5970    4.2110 o         1 922     -0.790500
     19 O23        -6.5730   -2.8620    3.8730 os        1 922     -0.564200
     20 C1         -7.9150   -2.4930    3.8290 c3        1 922      0.156400
     21 C2         -8.1000   -1.5340    2.6520 c         1 922      0.620100
     22 O14        -9.2390   -0.8030    2.5180 oh        1 922     -0.578100
     23 O13        -7.2970   -1.3650    1.7270 o         1 922     -0.553000
     24 C3         -8.3300   -1.8350    5.1180 ca        1 922     -0.110300
     25 C8         -9.6720   -1.8890    5.5030 ca        1 922     -0.149000
     26 C4         -7.3900   -1.2020    5.9340 ca        1 922     -0.090000
     27 C5         -7.8010   -0.6040    7.1240 ca        1 922     -0.128000
     28 C6         -9.1400   -0.6140    7.5010 ca        1 922     -0.121000
     29 C7        -10.0990   -1.2530    6.6850 ca        1 922      0.101600
     30 N9        -11.4580   -1.2290    7.0890 nu        1 922     -0.743600
     31 C10       -12.5020   -1.1530    6.0960 c2        1 922      0.757100
     32 N12       -13.6910   -1.6900    6.2140 n2        1 922     -0.872100
     33 N11       -12.1880   -0.3980    4.9200 nv        1 922     -0.885800
     34 H37        -4.0860    0.0290   -1.2080 ha        1 922      0.145000
     35 H38        -2.2020    1.1400   -2.4160 ha        1 922      0.138500
     36 H39        -0.4500    2.3730   -1.1340 ha        1 922      0.136000
     37 H40        -0.5830    2.5000    1.3550 ha        1 922      0.138500
     38 H41        -2.4690    1.4020    2.5620 ha        1 922      0.145000
     39 H331       -5.4730   -0.0050    0.8340 h1        1 922      0.100200
     40 H332       -4.7580    0.5560    2.4430 h1        1 922      0.100200
     41 HN29       -3.7870   -4.2280    1.2110 hn        1 922      0.481300
     42 H25        -6.5190   -3.5280    1.4130 hx        1 922      0.134700
     43 H26        -6.6780   -6.1690    1.7960 hc        1 922      0.117700
     44 H281       -4.9760   -7.4780    0.7450 hc        1 922      0.044700
     45 H282       -4.0940   -6.4920    1.9710 hc        1 922      0.044700
     46 H283       -4.0180   -6.0520    0.2060 hc        1 922      0.044700
     47 H271       -6.6540   -6.3860   -0.7320 hc        1 922      0.044700
     48 H272       -5.9130   -4.7320   -0.8430 hc        1 922      0.044700
     49 H273       -7.5660   -4.9420   -0.1280 hc        1 922      0.044700
     50 H1         -8.5660   -3.4060    3.6370 h1        1 922      0.115700
     51 H8        -10.3960   -2.4400    4.8790 ha        1 922      0.151000
     52 H4         -6.3290   -1.1990    5.6350 ha        1 922      0.162000
     53 H5         -7.0580   -0.1150    7.7730 ha        1 922      0.139000
     54 H6         -9.4470   -0.1250    8.4380 ha        1 922      0.143000
     55 HN9       -11.6480   -1.8720    7.8320 hn        1 922      0.415800
     56 HN12      -13.8260   -2.2920    6.9960 hn        1 922      0.394400
     57 H111      -11.6380    0.4130    5.1160 hn        1 922      0.399800
     58 H112       -9.8260   -0.9520    3.2760 ho        1 922      0.446000
     59 H292       -4.0500   -3.5320    2.7320 hn        1 922      0.481300
     60 H113      -13.0010   -0.1740    4.3810 hn        1 922      0.399800
@<TRIPOS>BOND
     1    1    2 ar  
     2    1    6 ar  
     3    1   34 1   
     4    2    3 ar  
     5    2   35 1   
     6    3    4 ar  
     7    3   36 1   
     8    4    5 ar  
     9    4   37 1   
    10    5    6 ar  
    11    5   38 1   
    12    6    7 1   
    13    7    8 1   
    14    7   39 1   
    15    7   40 1   
    16    8    9 1   
    17    9   10 2   
    18    9   11 1   
    19   11   12 1   
    20   11   41 1   
    21   11   59 1   
    22   12   13 1   
    23   12   16 1   
    24   12   42 1   
    25   13   14 1   
    26   13   15 1   
    27   13   43 1   
    28   14   44 1   
    29   14   45 1   
    30   14   46 1   
    31   15   47 1   
    32   15   48 1   
    33   15   49 1   
    34   16   17 1   
    35   16   18 1   
    36   16   19 1   
    37   19   20 1   
    38   20   21 1   
    39   20   24 1   
    40   20   50 1   
    41   21   22 1   
    42   21   23 2   
    43   22   58 1   
    44   24   25 ar  
    45   24   26 ar  
    46   25   29 ar  
    47   25   51 1   
    48   26   27 ar  
    49   26   52 1   
    50   27   28 ar  
    51   27   53 1   
    52   28   29 ar  
    53   28   54 1   
    54   29   30 1   
    55   30   31 1   
    56   30   55 1   
    57   31   32 2   
    58   31   33 1   
    59   32   56 1   
    60   33   57 1   
    61   33   60 1   
@<TRIPOS>SUBSTRUCTURE
     1 922         1 TEMP              0 ****  ****    0 ROOT
