@<TRIPOS>MOLECULE
922
   58    59     1     0     0
SMALL
bcc


@<TRIPOS>ATOM
      1 C37        -0.0850    0.8040    0.2670 ca        1 922     -0.118000
      2 C38         1.3020    0.7110    0.3530 ca        1 922     -0.139000
      3 C39         1.8900   -0.3240    1.0810 ca        1 922     -0.148000
      4 C40         1.0850   -1.2650    1.7220 ca        1 922     -0.139000
      5 C41        -0.3040   -1.1750    1.6400 ca        1 922     -0.118000
      6 C36        -0.8970   -0.1380    0.9110 ca        1 922     -0.070300
      7 C33        -2.3790    0.0110    0.8060 c3        1 922      0.194700
      8 O32        -2.9980   -1.1650    1.3270 os        1 922     -0.473900
      9 C30        -4.3940   -1.0920    1.4570 c         1 922      0.723100
     10 O31        -4.9260   -0.0790    0.9650 o         1 922     -0.623000
     11 N29        -4.9010   -2.1180    2.2130 n         1 922     -0.435900
     12 C25        -6.2820   -2.5110    2.1200 c3        1 922     -0.114500
     13 C26        -6.7410   -3.1250    0.7980 c3        1 922     -0.079700
     14 C28        -7.4660   -2.0870   -0.0410 c3        1 922     -0.089100
     15 C27        -5.6310   -3.7460   -0.0290 c3        1 922     -0.089100
     16 P24        -6.5250   -3.6650    3.4530 p5        1 922      1.328600
     17 O34        -6.7240   -2.8880    4.6990 o         1 922     -0.852500
     18 O35        -5.4350   -4.6570    3.2900 o         1 922     -0.852500
     19 O23        -7.9910   -4.2910    3.0550 os        1 922     -0.575200
     20 C1         -8.8980   -4.5640    4.0900 c3        1 922      0.124400
     21 C2         -9.5550   -5.9670    3.8960 c         1 922      0.916600
     22 O14       -10.1600   -6.2550    2.8250 o         1 922     -0.849800
     23 O13        -9.4810   -6.7550    4.8830 o         1 922     -0.849800
     24 C3         -9.9620   -3.4860    4.1680 ca        1 922     -0.032300
     25 C8         -9.7780   -2.4130    5.0460 ca        1 922     -0.140000
     26 C4        -11.1270   -3.5540    3.3960 ca        1 922     -0.106000
     27 C5        -12.1040   -2.5700    3.5190 ca        1 922     -0.158000
     28 C6        -11.9390   -1.5020    4.3970 ca        1 922     -0.181000
     29 C7        -10.7610   -1.4100    5.1680 ca        1 922      0.042600
     30 N9        -10.5400   -0.2680    5.9900 nh        1 922     -0.712600
     31 C10       -11.4600    0.0030    7.0720 c2        1 922      0.767100
     32 N12       -11.5200    1.1690    7.6810 n2        1 922     -0.919100
     33 N11       -12.3380   -1.0300    7.4950 nh        1 922     -0.906800
     34 H37        -0.5490    1.6180   -0.3090 ha        1 922      0.147500
     35 H38         1.9330    1.4540   -0.1540 ha        1 922      0.120000
     36 H39         2.9840   -0.3970    1.1480 ha        1 922      0.114000
     37 H40         1.5440   -2.0830    2.2960 ha        1 922      0.120000
     38 H41        -0.9460   -1.9170    2.1440 ha        1 922      0.147500
     39 H331       -2.7250    0.9070    1.3910 h1        1 922      0.054700
     40 H332       -2.6920    0.1390   -0.2660 h1        1 922      0.054700
     41 HN29       -4.2850   -2.9010    2.3690 hn        1 922      0.335500
     42 H25        -6.9110   -1.6000    2.3260 h1        1 922      0.088700
     43 H26        -7.4780   -3.9460    1.0480 hc        1 922      0.108700
     44 H281       -6.8050   -1.2030   -0.2200 hc        1 922      0.024867
     45 H282       -8.3870   -1.7410    0.4870 hc        1 922      0.024867
     46 H283       -7.7650   -2.5190   -1.0260 hc        1 922      0.024867
     47 H271       -4.9160   -2.9670   -0.3920 hc        1 922      0.024867
     48 H272       -5.0660   -4.5070    0.5640 hc        1 922      0.024867
     49 H273       -6.0700   -4.2540   -0.9220 hc        1 922      0.024867
     50 H1         -8.3360   -4.5740    5.0730 h1        1 922      0.049700
     51 H8         -8.8270   -2.3530    5.6100 ha        1 922      0.186000
     52 H4        -11.2480   -4.4100    2.7020 ha        1 922      0.194000
     53 H5        -13.0190   -2.6310    2.9130 ha        1 922      0.102000
     54 H6        -12.7140   -0.7280    4.4710 ha        1 922      0.102000
     55 HN9        -9.5840   -0.2070    6.2900 hn        1 922      0.412800
     56 HN12      -10.8240    1.8210    7.3940 hn        1 922      0.381400
     57 H111      -12.4740   -1.7670    6.8350 hn        1 922      0.402800
     58 H112      -13.1840   -0.7100    7.9110 hn        1 922      0.402800
@<TRIPOS>BOND
     1    1    2 ar  
     2    1    6 ar  
     3    1   34 1   
     4    2    3 ar  
     5    2   35 1   
     6    3    4 ar  
     7    3   36 1   
     8    4    5 ar  
     9    4   37 1   
    10    5    6 ar  
    11    5   38 1   
    12    6    7 1   
    13    7    8 1   
    14    7   39 1   
    15    7   40 1   
    16    8    9 1   
    17    9   10 2   
    18    9   11 1   
    19   11   12 1   
    20   11   41 1   
    21   12   13 1   
    22   12   16 1   
    23   12   42 1   
    24   13   14 1   
    25   13   15 1   
    26   13   43 1   
    27   14   44 1   
    28   14   45 1   
    29   14   46 1   
    30   15   47 1   
    31   15   48 1   
    32   15   49 1   
    33   16   17 1   
    34   16   18 1   
    35   16   19 1   
    36   19   20 1   
    37   20   21 1   
    38   20   24 1   
    39   20   50 1   
    40   21   22 1   
    41   21   23 1   
    42   24   25 ar  
    43   24   26 ar  
    44   25   29 ar  
    45   25   51 1   
    46   26   27 ar  
    47   26   52 1   
    48   27   28 ar  
    49   27   53 1   
    50   28   29 ar  
    51   28   54 1   
    52   29   30 1   
    53   30   31 1   
    54   30   55 1   
    55   31   32 2   
    56   31   33 1   
    57   32   56 1   
    58   33   57 1   
    59   33   58 1   
@<TRIPOS>SUBSTRUCTURE
     1 922         1 TEMP              0 ****  ****    0 ROOT
