@<TRIPOS>MOLECULE
922
   58    53     1     0     0
SMALL
bcc


@<TRIPOS>ATOM
      1 C37         1.9710    1.5900   -5.8220 c1        1 922     -0.144000
      2 C38         0.9680    1.3130   -6.7490 c1        1 922     -0.137500
      3 C39        -0.2510    1.9820   -6.6780 c1        1 922     -0.137500
      4 C40        -0.4680    2.9250   -5.6820 c1        1 922     -0.137500
      5 C41         0.5390    3.2020   -4.7520 c1        1 922     -0.137500
      6 C36         1.7540    2.5350   -4.8240 c1        1 922     -0.097000
      7 C33         2.8490    2.7960   -3.7510 c3        1 922      0.030000
      8 O32         2.7200    1.8360   -2.6940 os        1 922     -0.275000
      9 C30         2.8700    2.3870   -1.3900 c2        1 922      0.374000
     10 O31         2.6630    3.5860   -1.2030 o         1 922     -0.462000
     11 N29         3.3990    1.5850   -0.3370 n         1 922     -0.285000
     12 C25         2.6660    0.4720    0.1440 c3        1 922     -0.571000
     13 C26         3.6170   -0.5670    0.6490 c3        1 922     -0.069000
     14 C28         4.1570   -0.1430    1.9940 c3        1 922     -0.209500
     15 C27         2.8810   -1.9110    0.7870 c3        1 922     -0.209500
     16 P24         1.5550    1.0100    1.5200 p5        1 922      1.961000
     17 O34         2.3750    1.2640    2.7610 o         1 922     -0.846500
     18 O35         0.8420    2.2720    1.1240 o         1 922     -0.846500
     19 O23         0.4810   -0.1350    1.8170 os        1 922     -0.727000
     20 C1         -0.7260    0.2230    2.4540 c3        1 922      0.051000
     21 C2         -0.4360    0.6480    3.8930 c2        1 922      0.337000
     22 O14        -0.9520    1.7120    4.3590 o         1 922     -0.582500
     23 O13         0.2690   -0.0950    4.6430 o         1 922     -0.582500
     24 C3         -1.6680   -0.9620    2.4590 c2        1 922     -0.034000
     25 C8         -3.0420   -0.7610    2.2970 c2        1 922     -0.140000
     26 C4         -1.1580   -2.2590    2.5580 c1        1 922     -0.098000
     27 C5         -2.0190   -3.3520    2.4950 c1        1 922     -0.137500
     28 C6         -3.3930   -3.1520    2.3330 c1        1 922     -0.137500
     29 C7         -3.9040   -1.8560    2.2340 c1        1 922     -0.053000
     30 N9         -5.3170   -1.6520    1.9590 n3        1 922     -0.271000
     31 C10        -6.3140   -2.4480    2.6520 c2        1 922      0.177000
     32 N12        -7.4390   -1.8930    3.0500 n1        1 922     -0.402000
     33 N11        -6.0760   -3.8240    2.9000 n3        1 922     -0.331000
     34 H37         2.8270    1.1200   -5.8740 ha        1 922      0.113000
     35 H38         1.1230    0.6400   -7.4590 ha        1 922      0.129000
     36 H39        -0.9560    1.7870   -7.3300 ha        1 922      0.129000
     37 H40        -1.3330    3.3990   -5.6310 ha        1 922      0.129000
     38 H41         0.3860    3.8700   -4.0460 ha        1 922      0.129000
     39 H331        3.7490    2.7110   -4.1690 h1        1 922      0.101000
     40 H332        2.7400    3.7050   -3.3840 h1        1 922      0.101000
     41 HN29        4.1970    1.7980    0.0390 hn        1 922      0.269000
     42 H25         2.1240    0.0940   -0.5870 h1        1 922      0.108000
     43 H26         4.3700   -0.6660    0.0080 hc        1 922      0.046000
     44 H281        4.9240   -0.7020    2.2290 hc        1 922      0.073500
     45 H282        3.4560   -0.2450    2.6760 hc        1 922      0.073500
     46 H283        4.4400    0.8010    1.9520 hc        1 922      0.073500
     47 H271        2.4320   -2.1290   -0.0660 hc        1 922      0.073500
     48 H272        2.2050   -1.8450    1.5110 hc        1 922      0.073500
     49 H273        3.5350   -2.6270    1.0100 hc        1 922      0.073500
     50 H1         -1.1420    0.9700    1.9690 h1        1 922      0.083000
     51 H8         -3.3930    0.1360    2.2120 ha        1 922      0.179000
     52 H4         -0.1970   -2.4000    2.6710 ha        1 922      0.194000
     53 H5         -1.6630   -4.2580    2.5640 ha        1 922      0.129000
     54 H6         -4.0000   -3.9230    2.2890 ha        1 922      0.129000
     55 HN9        -5.5760   -1.0190    1.3600 hn        1 922      0.203000
     56 HN12       -7.5930   -1.0060    2.8910 DU        1 922      0.131000
     57 H111       -6.0120   -4.1260    3.7580 hn        1 922      0.194500
     58 H112       -6.0550   -4.4120    2.2100 hn        1 922      0.194500
@<TRIPOS>BOND
     1    1    6 1   
     2    1   34 1   
     3    2    3 1   
     4    2   35 1   
     5    3   36 1   
     6    4    5 1   
     7    4   37 1   
     8    5   38 1   
     9    6    7 1   
    10    7    8 1   
    11    7   39 1   
    12    7   40 1   
    13    8    9 1   
    14    9   10 1   
    15    9   11 1   
    16   11   12 1   
    17   11   41 1   
    18   12   13 1   
    19   12   16 1   
    20   12   42 1   
    21   13   14 1   
    22   13   15 1   
    23   13   43 1   
    24   14   44 1   
    25   14   45 1   
    26   14   46 1   
    27   15   47 1   
    28   15   48 1   
    29   15   49 1   
    30   16   17 1   
    31   16   18 1   
    32   16   19 1   
    33   19   20 1   
    34   20   21 1   
    35   20   24 1   
    36   20   50 1   
    37   21   22 1   
    38   21   23 1   
    39   24   25 1   
    40   24   26 1   
    41   25   29 1   
    42   25   51 1   
    43   26   52 1   
    44   27   28 1   
    45   27   53 1   
    46   28   54 1   
    47   29   30 1   
    48   30   31 1   
    49   30   55 1   
    50   31   32 1   
    51   31   33 1   
    52   33   57 1   
    53   33   58 1   
@<TRIPOS>SUBSTRUCTURE
     1 922         1 TEMP              0 ****  ****    0 ROOT
