@<TRIPOS>MOLECULE
922
   60    61     1     0     0
SMALL
bcc


@<TRIPOS>ATOM
      1 C37        -3.6930    0.9210    0.8130 ca        1 922     -0.099000
      2 C38        -2.4760    1.4280    0.3610 ca        1 922     -0.135000
      3 C39        -1.4710    1.7520    1.2730 ca        1 922     -0.105000
      4 C40        -1.6820    1.5680    2.6390 ca        1 922     -0.135000
      5 C41        -2.8980    1.0610    3.0960 ca        1 922     -0.099000
      6 C36        -3.9090    0.7380    2.1840 ca        1 922     -0.156300
      7 C33        -5.2210    0.2350    2.6730 c3        1 922      0.199700
      8 O32        -5.1960   -1.2090    2.8290 os        1 922     -0.407900
      9 C30        -5.5100   -1.9520    1.7400 c         1 922      0.617100
     10 O31        -5.7770   -1.4790    0.6410 o         1 922     -0.450000
     11 N29        -5.4670   -3.3920    2.0780 n4        1 922     -0.596800
     12 C25        -6.2450   -4.2590    1.1680 c3        1 922     -0.092700
     13 C26        -5.4580   -5.3480    0.4500 c3        1 922     -0.087700
     14 C28        -4.1980   -5.8290    1.1450 c3        1 922     -0.103600
     15 C27        -5.1060   -4.9060   -0.9590 c3        1 922     -0.103600
     16 P24        -7.5750   -5.0100    2.0890 p5        1 922      1.309600
     17 O34        -8.0320   -6.2380    1.4440 o         1 922     -0.793500
     18 O35        -7.1600   -4.8240    3.5070 o         1 922     -0.793500
     19 O23        -8.6530   -3.7800    1.8380 os        1 922     -0.572200
     20 C1         -9.6460   -3.6070    2.8050 c3        1 922      0.219400
     21 C2        -11.0000   -3.6900    2.1120 c         1 922      0.629100
     22 O14       -11.8170   -4.6240    2.6750 oh        1 922     -0.606100
     23 O13       -11.4510   -3.0620    1.1530 o         1 922     -0.540000
     24 C3         -9.4850   -2.2820    3.5100 ca        1 922     -0.083300
     25 C8         -8.7620   -2.2670    4.7050 ca        1 922     -0.156000
     26 C4        -10.0200   -1.0990    2.9940 ca        1 922     -0.130000
     27 C5         -9.8500    0.0940    3.6930 ca        1 922     -0.118000
     28 C6         -9.1430    0.1270    4.8900 ca        1 922     -0.174000
     29 C7         -8.5750   -1.0580    5.4100 ca        1 922      0.096600
     30 N9         -7.7470   -1.0220    6.5560 nh        1 922     -0.716600
     31 C10        -8.1530   -0.1330    7.6450 c2        1 922      0.742100
     32 N12        -7.3080    0.6330    8.2780 n2        1 922     -0.834100
     33 N11        -9.5170   -0.1870    8.0480 nh        1 922     -0.905800
     34 H37        -4.4880    0.6580    0.0960 ha        1 922      0.144500
     35 H38        -2.3110    1.5730   -0.7170 ha        1 922      0.141500
     36 H39        -0.5120    2.1550    0.9140 ha        1 922      0.139000
     37 H40        -0.8910    1.8240    3.3590 ha        1 922      0.141500
     38 H41        -3.0650    0.9180    4.1750 ha        1 922      0.144500
     39 H331       -6.0610    0.5220    1.9880 h1        1 922      0.095200
     40 H332       -5.4350    0.5640    3.7290 h1        1 922      0.095200
     41 HN29       -5.8590   -3.5350    3.0610 hn        1 922      0.487800
     42 H25        -6.7320   -3.6080    0.3800 hx        1 922      0.146700
     43 H26        -6.1690   -6.2330    0.3660 hc        1 922      0.135700
     44 H281       -4.3620   -6.0500    2.2270 hc        1 922      0.042867
     45 H282       -3.8600   -6.7770    0.6550 hc        1 922      0.042867
     46 H283       -3.3650   -5.0900    1.0440 hc        1 922      0.042867
     47 H271       -6.0330   -4.6850   -1.5430 hc        1 922      0.042867
     48 H272       -4.5450   -5.7160   -1.4850 hc        1 922      0.042867
     49 H273       -4.4710   -3.9880   -0.9410 hc        1 922      0.042867
     50 H1         -9.5870   -4.4430    3.5700 h1        1 922      0.085700
     51 H8         -8.3190   -3.2100    5.0740 ha        1 922      0.172000
     52 H4        -10.5720   -1.1130    2.0390 ha        1 922      0.167000
     53 H5        -10.2810    1.0250    3.2930 ha        1 922      0.136000
     54 H6         -9.0170    1.0820    5.4210 ha        1 922      0.135000
     55 HN9        -7.5310   -1.9390    6.9030 hn        1 922      0.411800
     56 HN12       -6.3520    0.5430    8.0110 hn        1 922      0.404400
     57 H111       -9.7810    0.5190    8.7020 hn        1 922      0.405300
     58 H112      -12.6520   -4.6700    2.1820 ho        1 922      0.443000
     59 H292       -4.4750   -3.6610    2.0870 hn        1 922      0.487800
     60 H113      -10.1620   -0.2810    7.2930 hn        1 922      0.405300
@<TRIPOS>BOND
     1    1    2 ar  
     2    1    6 ar  
     3    1   34 1   
     4    2    3 ar  
     5    2   35 1   
     6    3    4 ar  
     7    3   36 1   
     8    4    5 ar  
     9    4   37 1   
    10    5    6 ar  
    11    5   38 1   
    12    6    7 1   
    13    7    8 1   
    14    7   39 1   
    15    7   40 1   
    16    8    9 1   
    17    9   10 2   
    18    9   11 1   
    19   11   12 1   
    20   11   41 1   
    21   11   59 1   
    22   12   13 1   
    23   12   16 1   
    24   12   42 1   
    25   13   14 1   
    26   13   15 1   
    27   13   43 1   
    28   14   44 1   
    29   14   45 1   
    30   14   46 1   
    31   15   47 1   
    32   15   48 1   
    33   15   49 1   
    34   16   17 1   
    35   16   18 1   
    36   16   19 1   
    37   19   20 1   
    38   20   21 1   
    39   20   24 1   
    40   20   50 1   
    41   21   22 1   
    42   21   23 2   
    43   22   58 1   
    44   24   25 ar  
    45   24   26 ar  
    46   25   29 ar  
    47   25   51 1   
    48   26   27 ar  
    49   26   52 1   
    50   27   28 ar  
    51   27   53 1   
    52   28   29 ar  
    53   28   54 1   
    54   29   30 1   
    55   30   31 1   
    56   30   55 1   
    57   31   32 2   
    58   31   33 1   
    59   32   56 1   
    60   33   57 1   
    61   33   60 1   
@<TRIPOS>SUBSTRUCTURE
     1 922         1 TEMP              0 ****  ****    0 ROOT
