@<TRIPOS>MOLECULE
922
   58    59     1     0     0
SMALL
bcc


@<TRIPOS>ATOM
      1 C37         7.7220    1.1680   -0.8010 ca        1 922     -0.118500
      2 C38         8.2630    2.1820   -0.0140 ca        1 922     -0.135500
      3 C39         7.5320    2.7030    1.0530 ca        1 922     -0.148000
      4 C40         6.2580    2.2070    1.3300 ca        1 922     -0.135500
      5 C41         5.7130    1.1920    0.5440 ca        1 922     -0.118500
      6 C36         6.4430    0.6670   -0.5270 ca        1 922     -0.095300
      7 C33         5.8880   -0.4070   -1.4080 c3        1 922      0.188700
      8 O32         4.8150   -1.1030   -0.7910 os        1 922     -0.467900
      9 C30         3.5120   -0.7120   -1.1450 c         1 922      0.716100
     10 O31         3.3960   -0.1080   -2.2280 o         1 922     -0.618000
     11 N29         2.6010   -1.0060   -0.1650 n         1 922     -0.438900
     12 C25         1.1900   -1.0700   -0.4310 c3        1 922     -0.111500
     13 C26         0.6990   -2.2390   -1.2840 c3        1 922     -0.077700
     14 C28         0.5080   -1.7980   -2.7240 c3        1 922     -0.089600
     15 C27         1.5950   -3.4630   -1.2550 c3        1 922     -0.089600
     16 P24         0.4250   -1.1170    1.1830 p5        1 922      1.323600
     17 O34         0.4530    0.2540    1.7360 o         1 922     -0.845500
     18 O35         1.0790   -2.2630    1.8600 o         1 922     -0.845500
     19 O23        -1.1230   -1.4530    0.7480 os        1 922     -0.577200
     20 C1         -2.1590   -0.7650    1.3880 c3        1 922      0.100400
     21 C2         -3.1880   -1.7280    2.0780 c         1 922      0.914600
     22 O14        -3.4170   -2.8730    1.6140 o         1 922     -0.840300
     23 O13        -3.7820   -1.2400    3.0880 o         1 922     -0.840300
     24 C3         -2.9330    0.0930    0.4220 ca        1 922      0.005700
     25 C8         -3.9660    0.8880    0.9380 ca        1 922     -0.154000
     26 C4         -2.6920    0.0940   -0.9570 ca        1 922     -0.132000
     27 C5         -3.4550    0.8970   -1.8000 ca        1 922     -0.135000
     28 C6         -4.4740    1.7000   -1.2970 ca        1 922     -0.203000
     29 C7         -4.7400    1.6990    0.0890 ca        1 922      0.054600
     30 N9         -5.7380    2.5670    0.6250 nh        1 922     -0.702600
     31 C10        -7.0420    2.5310   -0.0270 c2        1 922      0.757100
     32 N12        -7.7990    3.5970   -0.1480 n2        1 922     -0.897100
     33 N11        -7.5160    1.2830   -0.5110 nh        1 922     -0.910800
     34 H37         8.2990    0.7570   -1.6420 ha        1 922      0.146500
     35 H38         9.2660    2.5710   -0.2350 ha        1 922      0.123500
     36 H39         7.9580    3.5040    1.6730 ha        1 922      0.114000
     37 H40         5.6740    2.6150    2.1690 ha        1 922      0.123500
     38 H41         4.7050    0.7980    0.7620 ha        1 922      0.146500
     39 H331        5.5750    0.0340   -2.3940 h1        1 922      0.063200
     40 H332        6.6650   -1.2040   -1.5800 h1        1 922      0.063200
     41 HN29        2.8970   -1.6590    0.5430 hn        1 922      0.337500
     42 H25         0.8890   -0.1100   -0.9340 h1        1 922      0.085700
     43 H26        -0.3100   -2.5450   -0.8720 hc        1 922      0.104700
     44 H281        1.4620   -1.3780   -3.1300 hc        1 922      0.024867
     45 H282        0.1920   -2.6590   -3.3600 hc        1 922      0.024867
     46 H283       -0.2790   -1.0080   -2.7870 hc        1 922      0.024867
     47 H271        1.7720   -3.8050   -0.2050 hc        1 922      0.024867
     48 H272        1.1060   -4.2960   -1.8180 hc        1 922      0.024867
     49 H273        2.5790   -3.2510   -1.7380 hc        1 922      0.024867
     50 H1         -1.7250   -0.0890    2.1860 h1        1 922      0.077700
     51 H8         -4.1650    0.8200    2.0240 ha        1 922      0.177000
     52 H4         -1.9020   -0.5570   -1.3640 ha        1 922      0.150000
     53 H5         -3.2540    0.8980   -2.8810 ha        1 922      0.102000
     54 H6         -5.0580    2.3370   -1.9750 ha        1 922      0.105000
     55 HN9        -5.8390    2.4380    1.6170 hn        1 922      0.398800
     56 HN12       -7.4320    4.4150    0.2850 hn        1 922      0.386400
     57 H111       -6.8040    0.6050   -0.6870 hn        1 922      0.405800
     58 H112       -8.1950    1.3440   -1.2350 hn        1 922      0.405800
@<TRIPOS>BOND
     1    1    2 ar  
     2    1    6 ar  
     3    1   34 1   
     4    2    3 ar  
     5    2   35 1   
     6    3    4 ar  
     7    3   36 1   
     8    4    5 ar  
     9    4   37 1   
    10    5    6 ar  
    11    5   38 1   
    12    6    7 1   
    13    7    8 1   
    14    7   39 1   
    15    7   40 1   
    16    8    9 1   
    17    9   10 2   
    18    9   11 1   
    19   11   12 1   
    20   11   41 1   
    21   12   13 1   
    22   12   16 1   
    23   12   42 1   
    24   13   14 1   
    25   13   15 1   
    26   13   43 1   
    27   14   44 1   
    28   14   45 1   
    29   14   46 1   
    30   15   47 1   
    31   15   48 1   
    32   15   49 1   
    33   16   17 1   
    34   16   18 1   
    35   16   19 1   
    36   19   20 1   
    37   20   21 1   
    38   20   24 1   
    39   20   50 1   
    40   21   22 1   
    41   21   23 1   
    42   24   25 ar  
    43   24   26 ar  
    44   25   29 ar  
    45   25   51 1   
    46   26   27 ar  
    47   26   52 1   
    48   27   28 ar  
    49   27   53 1   
    50   28   29 ar  
    51   28   54 1   
    52   29   30 1   
    53   30   31 1   
    54   30   55 1   
    55   31   32 2   
    56   31   33 1   
    57   32   56 1   
    58   33   57 1   
    59   33   58 1   
@<TRIPOS>SUBSTRUCTURE
     1 922         1 TEMP              0 ****  ****    0 ROOT
