@<TRIPOS>MOLECULE
923
   62    66     1     0     0
SMALL
bcc


@<TRIPOS>ATOM
      1 C1         -0.4040   -0.3500    0.0910 ca        1 923     -0.042000
      2 C2          0.9740   -0.0840   -0.0690 ca        1 923     -0.110800
      3 C3          1.7810    0.1410    1.0620 ca        1 923     -0.076000
      4 C4          1.2640    0.1030    2.3580 ca        1 923     -0.164000
      5 C5         -0.0920   -0.1660    2.4890 ca        1 923      0.143100
      6 C6         -0.9290   -0.3900    1.3660 ca        1 923     -0.158300
      7 C7         -2.3180   -0.6250    1.8560 c3        1 923     -0.042100
      8 C8         -2.1650   -0.5720    3.3940 c3        1 923      0.145100
      9 O9         -0.7690   -0.2520    3.6920 os        1 923     -0.313900
     10 C10         1.6030   -0.0260   -1.3690 ce        1 923     -0.030200
     11 C11         1.0710   -0.2970   -2.5730 cd        1 923      0.035100
     12 O12        -0.2600   -0.7090   -2.7880 os        1 923     -0.343200
     13 C13        -0.4390   -0.9060   -4.1780 c         1 923      0.737800
     14 C14         0.8230   -0.5800   -4.8750 cc        1 923     -0.235400
     15 C15         1.7260   -0.2340   -3.8960 cd        1 923      0.167100
     16 C16         0.9950   -0.6470   -6.3030 ca        1 923     -0.057800
     17 C17         0.2860   -1.6240   -7.0400 ca        1 923     -0.058000
     18 C18         0.4740   -1.6910   -8.4030 ca        1 923     -0.140300
     19 C19         1.3620   -0.7860   -9.0430 ca        1 923      0.129100
     20 C20         2.0540    0.1910   -8.3440 ca        1 923     -0.151000
     21 C21         1.8500    0.2490   -6.9600 ca        1 923     -0.114000
     22 C22        -0.0960   -2.6000   -9.4390 c3        1 923     -0.044100
     23 C23         0.5270   -2.0740  -10.7540 c3        1 923      0.145100
     24 O24         1.4340   -0.9800  -10.4120 os        1 923     -0.314900
     25 C25         1.2990   -3.1360  -11.5570 c3        1 923      0.142800
     26 C26         2.1450   -2.4700  -12.6340 c3        1 923     -0.123600
     27 O27         2.1260   -3.8390  -10.6320 oh        1 923     -0.591800
     28 C28         0.3060   -4.1050  -12.1920 c3        1 923     -0.123600
     29 C29        -3.0750    0.4580    4.0870 c3        1 923      0.142800
     30 O30        -2.9750    1.6700    3.3430 oh        1 923     -0.589800
     31 C31        -4.5160   -0.0450    4.0540 c3        1 923     -0.123600
     32 C32        -2.6270    0.6740    5.5270 c3        1 923     -0.123600
     33 O33        -1.5510   -1.2970   -4.5000 o         1 923     -0.556500
     34 O34         3.0280    0.1190   -3.9730 oh        1 923     -0.462100
     35 H1         -1.0480   -0.5190   -0.7850 ha        1 923      0.167000
     36 H3          2.8530    0.3520    0.9270 ha        1 923      0.132000
     37 H4          1.8990    0.2790    3.2360 ha        1 923      0.151000
     38 H7         -3.0140    0.1750    1.4970 hc        1 923      0.076200
     39 H7A        -2.7140   -1.6180    1.5320 hc        1 923      0.076200
     40 H8         -2.3400   -1.5770    3.8630 h1        1 923      0.067700
     41 H10         2.6690    0.2790   -1.3730 ha        1 923      0.149000
     42 H17        -0.4100   -2.3000   -6.5210 ha        1 923      0.158000
     43 H20         2.7260    0.8930   -8.8530 ha        1 923      0.151000
     44 H21         2.3560    1.0420   -6.3880 ha        1 923      0.127000
     45 H22         0.2030   -3.6630   -9.2540 hc        1 923      0.076700
     46 H22A       -1.2110   -2.5400   -9.4780 hc        1 923      0.076700
     47 H23        -0.2480   -1.6130  -11.4230 h1        1 923      0.068700
     48 H26         1.4990   -1.8480  -13.2970 hc        1 923      0.048033
     49 H26A        2.9110   -1.8120  -12.1570 hc        1 923      0.048033
     50 H26B        2.6620   -3.2430  -13.2510 hc        1 923      0.048033
     51 HO27        2.7120   -4.4000  -11.1550 ho        1 923      0.403000
     52 H28        -0.3260   -4.5780  -11.4030 hc        1 923      0.048033
     53 H28A        0.8560   -4.9100  -12.7360 hc        1 923      0.048033
     54 H28B       -0.3510   -3.5670  -12.9150 hc        1 923      0.048033
     55 HO30       -3.4290    2.3490    3.8560 ho        1 923      0.403000
     56 H31        -4.6070   -0.9970    4.6280 hc        1 923      0.047867
     57 H31A       -5.1930    0.7170    4.5100 hc        1 923      0.047867
     58 H31B       -4.8370   -0.2200    2.9990 hc        1 923      0.047867
     59 H32        -3.3180    1.3800    6.0440 hc        1 923      0.047867
     60 H32A       -2.6210   -0.2970    6.0750 hc        1 923      0.047867
     61 H32B       -1.5940    1.1010    5.5390 hc        1 923      0.047867
     62 HO34        3.3240   -0.0350   -4.8890 ho        1 923      0.446000
@<TRIPOS>BOND
     1    1    2 ar  
     2    1    6 ar  
     3    1   35 1   
     4    2    3 ar  
     5    2   10 1   
     6    3    4 ar  
     7    3   36 1   
     8    4    5 ar  
     9    4   37 1   
    10    5    6 ar  
    11    5    9 1   
    12    6    7 1   
    13    7    8 1   
    14    7   38 1   
    15    7   39 1   
    16    8    9 1   
    17    8   29 1   
    18    8   40 1   
    19   10   11 2   
    20   10   41 1   
    21   11   12 1   
    22   11   15 1   
    23   12   13 1   
    24   13   14 1   
    25   13   33 2   
    26   14   15 2   
    27   14   16 1   
    28   15   34 1   
    29   16   17 ar  
    30   16   21 ar  
    31   17   18 ar  
    32   17   42 1   
    33   18   19 ar  
    34   18   22 1   
    35   19   20 ar  
    36   19   24 1   
    37   20   21 ar  
    38   20   43 1   
    39   21   44 1   
    40   22   23 1   
    41   22   45 1   
    42   22   46 1   
    43   23   24 1   
    44   23   25 1   
    45   23   47 1   
    46   25   26 1   
    47   25   27 1   
    48   25   28 1   
    49   26   48 1   
    50   26   49 1   
    51   26   50 1   
    52   27   51 1   
    53   28   52 1   
    54   28   53 1   
    55   28   54 1   
    56   29   30 1   
    57   29   31 1   
    58   29   32 1   
    59   30   55 1   
    60   31   56 1   
    61   31   57 1   
    62   31   58 1   
    63   32   59 1   
    64   32   60 1   
    65   32   61 1   
    66   34   62 1   
@<TRIPOS>SUBSTRUCTURE
     1 923         1 TEMP              0 ****  ****    0 ROOT
