@<TRIPOS>MOLECULE
923
   62    66     1     0     0
SMALL
bcc


@<TRIPOS>ATOM
      1 C1         -0.4030   -0.3580    0.0920 ca        1 923     -0.042000
      2 C2          0.9770   -0.1030   -0.0660 ca        1 923     -0.110800
      3 C3          1.7850    0.1090    1.0660 ca        1 923     -0.076000
      4 C4          1.2670    0.0700    2.3630 ca        1 923     -0.164000
      5 C5         -0.0920   -0.1870    2.4910 ca        1 923      0.143100
      6 C6         -0.9300   -0.4000    1.3670 ca        1 923     -0.158300
      7 C7         -2.3210   -0.6250    1.8550 c3        1 923     -0.042100
      8 C8         -2.1690   -0.5810    3.3930 c3        1 923      0.145100
      9 O9         -0.7700   -0.2740    3.6930 os        1 923     -0.313900
     10 C10         1.6070   -0.0450   -1.3650 ce        1 923     -0.030200
     11 C11         1.0740   -0.3080   -2.5700 cd        1 923      0.035100
     12 O12        -0.2590   -0.7110   -2.7870 os        1 923     -0.343200
     13 C13        -0.4390   -0.9020   -4.1780 c         1 923      0.737800
     14 C14         0.8260   -0.5820   -4.8730 cc        1 923     -0.235400
     15 C15         1.7300   -0.2450   -3.8930 cd        1 923      0.167100
     16 C16         0.9980   -0.6450   -6.3010 ca        1 923     -0.057800
     17 C17         0.2840   -1.6150   -7.0420 ca        1 923     -0.058000
     18 C18         0.4730   -1.6800   -8.4060 ca        1 923     -0.140300
     19 C19         1.3660   -0.7780   -9.0420 ca        1 923      0.129100
     20 C20         2.0630    0.1930   -8.3390 ca        1 923     -0.151000
     21 C21         1.8590    0.2470   -6.9550 ca        1 923     -0.114000
     22 C22        -0.1020   -2.5820   -9.4440 c3        1 923     -0.044100
     23 C23         0.5250   -2.0560  -10.7570 c3        1 923      0.145100
     24 O24         1.4380   -0.9680  -10.4110 os        1 923     -0.314900
     25 C25         1.2910   -3.1200  -11.5630 c3        1 923      0.142800
     26 C26         2.1420   -2.4550  -12.6380 c3        1 923     -0.123600
     27 O27         2.1140   -3.8300  -10.6400 oh        1 923     -0.591800
     28 C28         0.2930   -4.0810  -12.2020 c3        1 923     -0.123600
     29 C29        -3.0710    0.4540    4.0900 c3        1 923      0.142800
     30 O30        -2.9590    1.6690    3.3520 oh        1 923     -0.589800
     31 C31        -4.5160   -0.0360    4.0540 c3        1 923     -0.123600
     32 C32        -2.6210    0.6590    5.5320 c3        1 923     -0.123600
     33 O33        -1.5530   -1.2850   -4.5030 o         1 923     -0.556500
     34 O34         3.0340    0.1010   -3.9680 oh        1 923     -0.462100
     35 H1         -1.0490   -0.5180   -0.7850 ha        1 923      0.167000
     36 H3          2.8590    0.3120    0.9330 ha        1 923      0.132000
     37 H4          1.9030    0.2370    3.2410 ha        1 923      0.151000
     38 H7         -3.0100    0.1830    1.4990 hc        1 923      0.076200
     39 H7A        -2.7250   -1.6130    1.5260 hc        1 923      0.076200
     40 H8         -2.3520   -1.5860    3.8570 h1        1 923      0.067700
     41 H10         2.6750    0.2540   -1.3670 ha        1 923      0.149000
     42 H17        -0.4170   -2.2900   -6.5250 ha        1 923      0.158000
     43 H20         2.7400    0.8920   -8.8450 ha        1 923      0.151000
     44 H21         2.3690    1.0360   -6.3800 ha        1 923      0.127000
     45 H22         0.1910   -3.6470   -9.2620 hc        1 923      0.076700
     46 H22A       -1.2160   -2.5160   -9.4840 hc        1 923      0.076700
     47 H23        -0.2470   -1.5870  -11.4250 h1        1 923      0.068700
     48 H26         2.6550   -3.2280  -13.2570 hc        1 923      0.048033
     49 H26A        1.5000   -1.8280  -13.2990 hc        1 923      0.048033
     50 H26B        2.9120   -1.8020  -12.1580 hc        1 923      0.048033
     51 HO27        2.6970   -4.3920  -11.1640 ho        1 923      0.403000
     52 H28         0.8390   -4.8870  -12.7480 hc        1 923      0.048033
     53 H28A       -0.3420   -4.5520  -11.4140 hc        1 923      0.048033
     54 H28B       -0.3610   -3.5360  -12.9230 hc        1 923      0.048033
     55 HO30       -3.4080    2.3490    3.8690 ho        1 923      0.403000
     56 H31        -4.6140   -0.9900    4.6230 hc        1 923      0.047867
     57 H31A       -5.1860    0.7290    4.5130 hc        1 923      0.047867
     58 H31B       -4.8370   -0.2030    2.9980 hc        1 923      0.047867
     59 H32        -1.5850    1.0770    5.5460 hc        1 923      0.047867
     60 H32A       -2.6240   -0.3150    6.0750 hc        1 923      0.047867
     61 H32B       -3.3070    1.3690    6.0520 hc        1 923      0.047867
     62 HO34        3.3300   -0.0510   -4.8840 ho        1 923      0.446000
@<TRIPOS>BOND
     1    1    2 ar  
     2    1    6 ar  
     3    1   35 1   
     4    2    3 ar  
     5    2   10 1   
     6    3    4 ar  
     7    3   36 1   
     8    4    5 ar  
     9    4   37 1   
    10    5    6 ar  
    11    5    9 1   
    12    6    7 1   
    13    7    8 1   
    14    7   38 1   
    15    7   39 1   
    16    8    9 1   
    17    8   29 1   
    18    8   40 1   
    19   10   11 2   
    20   10   41 1   
    21   11   12 1   
    22   11   15 1   
    23   12   13 1   
    24   13   14 1   
    25   13   33 2   
    26   14   15 2   
    27   14   16 1   
    28   15   34 1   
    29   16   17 ar  
    30   16   21 ar  
    31   17   18 ar  
    32   17   42 1   
    33   18   19 ar  
    34   18   22 1   
    35   19   20 ar  
    36   19   24 1   
    37   20   21 ar  
    38   20   43 1   
    39   21   44 1   
    40   22   23 1   
    41   22   45 1   
    42   22   46 1   
    43   23   24 1   
    44   23   25 1   
    45   23   47 1   
    46   25   26 1   
    47   25   27 1   
    48   25   28 1   
    49   26   48 1   
    50   26   49 1   
    51   26   50 1   
    52   27   51 1   
    53   28   52 1   
    54   28   53 1   
    55   28   54 1   
    56   29   30 1   
    57   29   31 1   
    58   29   32 1   
    59   30   55 1   
    60   31   56 1   
    61   31   57 1   
    62   31   58 1   
    63   32   59 1   
    64   32   60 1   
    65   32   61 1   
    66   34   62 1   
@<TRIPOS>SUBSTRUCTURE
     1 923         1 TEMP              0 ****  ****    0 ROOT
