@<TRIPOS>MOLECULE
923
   62    66     1     0     0
SMALL
bcc


@<TRIPOS>ATOM
      1 C1          3.6160   -0.2030    0.2240 ca        1 923     -0.042000
      2 C2          3.2770   -1.5670    0.0900 ca        1 923     -0.100800
      3 C3          4.2790   -2.5510    0.1760 ca        1 923     -0.081000
      4 C4          5.6190   -2.2250    0.4000 ca        1 923     -0.159000
      5 C5          5.9250   -0.8770    0.5320 ca        1 923      0.129100
      6 C6          4.9360    0.1350    0.4450 ca        1 923     -0.158300
      7 C7          5.6030    1.4590    0.6110 c3        1 923     -0.048100
      8 C8          7.0720    1.0830    0.9100 c3        1 923      0.102100
      9 O9          7.1940   -0.3720    0.7570 os        1 923     -0.326900
     10 C10         1.9190   -2.0060   -0.1410 ce        1 923     -0.062200
     11 C11         0.7880   -1.2800   -0.1270 cd        1 923      0.023100
     12 O12         0.7500    0.1010    0.1350 os        1 923     -0.340200
     13 C13        -0.6020    0.5200    0.0760 c         1 923      0.730800
     14 C14        -1.4600   -0.6480   -0.2410 cc        1 923     -0.153400
     15 C15        -0.6050   -1.7220   -0.3600 cd        1 923      0.133100
     16 C16        -2.8910   -0.5760   -0.3780 ca        1 923     -0.058800
     17 C17        -3.5710    0.6180   -0.0360 ca        1 923     -0.065000
     18 C18        -4.9410    0.6670   -0.1730 ca        1 923     -0.152300
     19 C19        -5.6490   -0.4670   -0.6490 ca        1 923      0.117100
     20 C20        -5.0080   -1.6470   -0.9910 ca        1 923     -0.157000
     21 C21        -3.6160   -1.6830   -0.8470 ca        1 923     -0.082000
     22 C22        -5.9260    1.7500    0.1120 c3        1 923     -0.048100
     23 C23        -7.2690    1.1420   -0.3550 c3        1 923      0.102100
     24 O24        -7.0150   -0.2520   -0.7280 os        1 923     -0.328900
     25 C25        -8.3730    1.1490    0.7190 c3        1 923      0.147800
     26 C26        -9.5980    0.4050    0.1990 c3        1 923     -0.105600
     27 O27        -7.9040    0.5410    1.9180 oh        1 923     -0.593800
     28 C28        -8.7380    2.5830    1.0810 c3        1 923     -0.105600
     29 C29         8.0990    1.7410   -0.0300 c3        1 923      0.147800
     30 O30         7.7570    1.4940   -1.3900 oh        1 923     -0.592800
     31 C31         8.0720    3.2550    0.1490 c3        1 923     -0.106100
     32 C32         9.4920    1.1970    0.2690 c3        1 923     -0.106100
     33 O33        -0.7640    1.7110    0.2910 o         1 923     -0.548500
     34 O34        -0.9780   -2.9930   -0.6470 oh        1 923     -0.454100
     35 H1          2.8450    0.5800    0.1530 ha        1 923      0.170000
     36 H3          4.0080   -3.6130    0.0680 ha        1 923      0.131000
     37 H4          6.3950   -2.9980    0.4700 ha        1 923      0.153000
     38 H7          5.5340    2.0630   -0.3300 hc        1 923      0.078700
     39 H7A         5.1640    2.0490    1.4520 hc        1 923      0.078700
     40 H8          7.3450    1.2940    1.9770 h1        1 923      0.073700
     41 H10         1.8140   -3.0890   -0.3510 ha        1 923      0.126000
     42 H17        -3.0100    1.4920    0.3310 ha        1 923      0.164000
     43 H20        -5.5660   -2.5170   -1.3600 ha        1 923      0.151000
     44 H21        -3.0860   -2.6110   -1.1150 ha        1 923      0.150000
     45 H22        -5.9580    1.9840    1.2070 hc        1 923      0.076700
     46 H22A       -5.6960    2.6870   -0.4510 hc        1 923      0.076700
     47 H23        -7.6450    1.6390   -1.2870 h1        1 923      0.071700
     48 H26        -9.3180   -0.6320   -0.1050 hc        1 923      0.048533
     49 H26A      -10.3710    0.3490    1.0010 hc        1 923      0.048533
     50 H26B      -10.0230    0.9370   -0.6840 hc        1 923      0.048533
     51 HO27       -7.6310   -0.3550    1.6830 ho        1 923      0.412000
     52 H28        -9.1210    3.1120    0.1780 hc        1 923      0.048533
     53 H28A       -9.5280    2.5770    1.8690 hc        1 923      0.048533
     54 H28B       -7.8460    3.1240    1.4780 hc        1 923      0.048533
     55 HO30        7.7520    0.5350   -1.5020 ho        1 923      0.411000
     56 H31         8.3350    3.5130    1.2020 hc        1 923      0.049200
     57 H31A        8.8120    3.7230   -0.5420 hc        1 923      0.049200
     58 H31B        7.0590    3.6580   -0.0900 hc        1 923      0.049200
     59 H32         9.4960    0.0840    0.1810 hc        1 923      0.049200
     60 H32A       10.2230    1.6200   -0.4600 hc        1 923      0.049200
     61 H32B        9.7990    1.4780    1.3030 hc        1 923      0.049200
     62 HO34       -0.1820   -3.5490   -0.6420 ho        1 923      0.432000
@<TRIPOS>BOND
     1    1    2 ar  
     2    1    6 ar  
     3    1   35 1   
     4    2    3 ar  
     5    2   10 1   
     6    3    4 ar  
     7    3   36 1   
     8    4    5 ar  
     9    4   37 1   
    10    5    6 ar  
    11    5    9 1   
    12    6    7 1   
    13    7    8 1   
    14    7   38 1   
    15    7   39 1   
    16    8    9 1   
    17    8   29 1   
    18    8   40 1   
    19   10   11 2   
    20   10   41 1   
    21   11   12 1   
    22   11   15 1   
    23   12   13 1   
    24   13   14 1   
    25   13   33 2   
    26   14   15 2   
    27   14   16 1   
    28   15   34 1   
    29   16   17 ar  
    30   16   21 ar  
    31   17   18 ar  
    32   17   42 1   
    33   18   19 ar  
    34   18   22 1   
    35   19   20 ar  
    36   19   24 1   
    37   20   21 ar  
    38   20   43 1   
    39   21   44 1   
    40   22   23 1   
    41   22   45 1   
    42   22   46 1   
    43   23   24 1   
    44   23   25 1   
    45   23   47 1   
    46   25   26 1   
    47   25   27 1   
    48   25   28 1   
    49   26   48 1   
    50   26   49 1   
    51   26   50 1   
    52   27   51 1   
    53   28   52 1   
    54   28   53 1   
    55   28   54 1   
    56   29   30 1   
    57   29   31 1   
    58   29   32 1   
    59   30   55 1   
    60   31   56 1   
    61   31   57 1   
    62   31   58 1   
    63   32   59 1   
    64   32   60 1   
    65   32   61 1   
    66   34   62 1   
@<TRIPOS>SUBSTRUCTURE
     1 923         1 TEMP              0 ****  ****    0 ROOT
