@<TRIPOS>MOLECULE
923
   62    60     1     0     0
SMALL
bcc


@<TRIPOS>ATOM
      1 C1         -2.2350    1.3820    3.3620 c1        1 923     -0.065000
      2 C2         -1.0280    0.7900    2.9410 c1        1 923     -0.095000
      3 C3         -0.1780    0.1850    3.8850 c1        1 923     -0.057000
      4 C4         -0.5340    0.1700    5.2500 c1        1 923     -0.161000
      5 C5         -1.7420    0.7630    5.6690 c1        1 923      0.097000
      6 C6         -2.5920    1.3680    4.7280 c1        1 923     -0.148000
      7 C7         -3.4000    2.4140    5.4450 c3        1 923     -0.129000
      8 C8         -2.9320    2.4760    6.8170 c3        1 923      0.034000
      9 O9         -1.9710    1.4340    7.0040 os        1 923     -0.195000
     10 C10        -0.5160    1.0560    1.5390 c2        1 923     -0.072000
     11 C11        -0.8160    0.2000    0.5420 c1        1 923     -0.024000
     12 O12        -1.5060   -1.2040    0.6970 o         1 923     -0.239500
     13 C13        -1.1380   -1.9630   -0.6280 c2        1 923      0.345000
     14 C14        -0.3410   -1.0170   -1.3600 c2        1 923     -0.142000
     15 C15        -0.1710    0.1300   -0.7380 c2        1 923      0.085000
     16 C16         0.7150   -1.5130   -2.3570 c2        1 923     -0.052000
     17 C17         0.5780   -1.2240   -3.7370 c2        1 923     -0.062000
     18 C18         1.5490   -1.6700   -4.6470 c1        1 923     -0.148000
     19 C19         2.6580   -2.4040   -4.1870 c1        1 923      0.086000
     20 C20         2.7930   -2.6910   -2.8120 c1        1 923     -0.154000
     21 C21         1.8190   -2.2430   -1.9020 c1        1 923     -0.083000
     22 C22         1.7030   -1.4850   -6.1380 c3        1 923     -0.127000
     23 C23         2.9210   -2.1750   -6.5520 c3        1 923      0.034000
     24 O24         3.5020   -2.7850   -5.3910 os        1 923     -0.198000
     25 C25         2.5810   -3.2540   -7.5860 c3        1 923      0.071000
     26 C26         3.8350   -4.1230   -7.8570 c3        1 923     -0.241000
     27 O27         1.5250   -4.0810   -7.0810 oh        1 923     -0.318000
     28 C28         2.1250   -2.5870   -8.8930 c3        1 923     -0.241000
     29 C29        -2.2850    3.8260    7.0800 c3        1 923      0.071000
     30 O30        -1.3090    4.0830    6.0880 oh        1 923     -0.320000
     31 C31        -3.3530    4.9210    7.0400 c3        1 923     -0.241000
     32 C32        -1.6230    3.8120    8.4570 c3        1 923     -0.241000
     33 O33        -1.7490   -2.9290   -1.1100 o         1 923     -0.239500
     34 O34         0.9790    0.9140   -0.9940 oh        1 923     -0.211000
     35 H1         -2.8450    1.8150    2.6880 ha        1 923      0.131000
     36 H3          0.6350   -0.2140    3.6030 ha        1 923      0.166000
     37 H4          0.0760   -0.2660    5.9270 ha        1 923      0.156000
     38 H7         -4.3410    2.1710    5.4310 hc        1 923      0.112500
     39 H7A        -3.2760    3.2850    5.0110 hc        1 923      0.112500
     40 H8         -3.6600    2.3500    7.4090 h1        1 923      0.108000
     41 H10        -0.0770    1.9240    1.3300 ha        1 923      0.124000
     42 H17        -0.2150   -0.7940   -4.0580 ha        1 923      0.151000
     43 H20         3.5510   -3.1930   -2.4970 ha        1 923      0.152000
     44 H21         1.9060   -2.4620   -0.9310 ha        1 923      0.160000
     45 H22         0.9110   -1.8770   -6.6120 hc        1 923      0.111500
     46 H22A        1.7780   -0.4950   -6.3560 hc        1 923      0.111500
     47 H23         3.5600   -1.5230   -6.9420 h1        1 923      0.105000
     48 H26         4.1070   -4.5650   -7.0360 hc        1 923      0.086833
     49 H26A        3.6270   -4.7880   -8.5280 hc        1 923      0.086833
     50 H26B        4.5510   -3.5640   -8.1710 hc        1 923      0.086833
     51 HO27        1.2350   -4.6100   -7.7200 ho        1 923      0.202000
     52 H28         2.6370   -1.8050   -9.0440 hc        1 923      0.086833
     53 H28A        1.1850   -2.3510   -8.8250 hc        1 923      0.086833
     54 H28B        2.2560   -3.2310   -9.6630 hc        1 923      0.086833
     55 HO30       -1.0220    4.9340    6.1610 ho        1 923      0.203000
     56 H31        -4.0500    4.7150    7.6770 hc        1 923      0.087500
     57 H31A       -3.7400    4.9710    6.1370 hc        1 923      0.087500
     58 H31B       -2.9350    5.8030    7.2750 hc        1 923      0.087500
     59 H32        -1.1080    4.6260    8.5780 hc        1 923      0.087500
     60 H32A       -1.0370    3.0490    8.5230 hc        1 923      0.087500
     61 H32B       -2.3170    3.7560    9.1550 hc        1 923      0.087500
     62 HO34        0.7420    1.7650   -1.0950 ho        1 923      0.230000
@<TRIPOS>BOND
     1    1    6 1   
     2    1   35 1   
     3    2    3 1   
     4    2   10 1   
     5    3   36 1   
     6    4    5 1   
     7    4   37 1   
     8    5    9 1   
     9    6    7 1   
    10    7    8 1   
    11    7   38 1   
    12    7   39 1   
    13    8    9 1   
    14    8   29 1   
    15    8   40 1   
    16   10   11 1   
    17   10   41 1   
    18   11   15 1   
    19   12   13 1   
    20   13   14 1   
    21   13   33 1   
    22   14   15 1   
    23   14   16 1   
    24   15   34 1   
    25   16   17 1   
    26   16   21 1   
    27   17   18 1   
    28   17   42 1   
    29   18   22 1   
    30   19   20 1   
    31   19   24 1   
    32   20   43 1   
    33   21   44 1   
    34   22   23 1   
    35   22   45 1   
    36   22   46 1   
    37   23   24 1   
    38   23   25 1   
    39   23   47 1   
    40   25   26 1   
    41   25   27 1   
    42   25   28 1   
    43   26   48 1   
    44   26   49 1   
    45   26   50 1   
    46   27   51 1   
    47   28   52 1   
    48   28   53 1   
    49   28   54 1   
    50   29   30 1   
    51   29   31 1   
    52   29   32 1   
    53   30   55 1   
    54   31   56 1   
    55   31   57 1   
    56   31   58 1   
    57   32   59 1   
    58   32   60 1   
    59   32   61 1   
    60   34   62 1   
@<TRIPOS>SUBSTRUCTURE
     1 923         1 TEMP              0 ****  ****    0 ROOT
