@<TRIPOS>MOLECULE
924
   48    52     1     0     0
SMALL
bcc


@<TRIPOS>ATOM
      1 N1          0.5640   -1.1510   -0.1590 n4        1 924     -0.815300
      2 C2          1.9950   -0.8350   -0.3430 ca        1 924      0.470200
      3 N3          2.8790   -1.3080    0.5600 nb        1 924     -0.631000
      4 C4          4.1830   -1.0020    0.3670 ca        1 924      0.402200
      5 C5          4.6650   -0.2330   -0.7020 ca        1 924     -0.127300
      6 C6          3.7450    0.2570   -1.6360 ca        1 924     -0.094100
      7 S7          3.9650    1.1940   -3.0090 ss        1 924      0.215500
      8 C8          2.3410    1.2250   -3.3940 cc        1 924     -0.120400
      9 C9          1.5500    0.5290   -2.5060 cd        1 924     -0.046400
     10 C10         0.1070    0.3720   -2.5750 ca        1 924     -0.155800
     11 C11        -0.7390    1.3390   -2.0250 ca        1 924     -0.092000
     12 C12        -2.1300    1.2270   -2.0970 ca        1 924     -0.194000
     13 C13        -2.6900    0.1300   -2.7620 ca        1 924      0.110600
     14 N14        -4.0230   -0.2270   -2.9610 n         1 924     -0.390000
     15 C15        -4.0870   -1.5370   -3.6330 c3        1 924      0.082000
     16 C16        -2.6270   -1.9670   -3.9240 c3        1 924     -0.050100
     17 C17        -1.8130   -0.8760   -3.3080 ca        1 924     -0.140300
     18 C18        -0.4460   -0.7520   -3.2260 ca        1 924     -0.102000
     19 C19        -5.2030    0.5340   -2.8430 c         1 924      0.673100
     20 O20        -6.2680   -0.0730   -3.0180 o         1 924     -0.534100
     21 C21        -5.1150    2.0060   -2.5000 c3        1 924     -0.090100
     22 C22        -6.3470    2.7600   -2.8590 ca        1 924     -0.107300
     23 C23        -7.5860    2.4130   -2.3100 ca        1 924     -0.107500
     24 C24        -8.7230    3.1580   -2.6200 ca        1 924     -0.126500
     25 C25        -8.6300    4.2540   -3.4780 ca        1 924     -0.110000
     26 C26        -7.3970    4.6010   -4.0300 ca        1 924     -0.126500
     27 C27        -6.2580    3.8570   -3.7250 ca        1 924     -0.107500
     28 C28         2.3560   -0.0480   -1.4640 ca        1 924     -0.165100
     29 HN1         0.2430   -1.6800   -0.9820 hn        1 924      0.472800
     30 HN1A        0.0420   -0.2640   -0.1230 hn        1 924      0.472800
     31 H4          4.8680   -1.4140    1.1340 h4        1 924      0.064100
     32 H5          5.7430   -0.0250   -0.7930 ha        1 924      0.182000
     33 H8          1.9630    1.7540   -4.2750 h4        1 924      0.206000
     34 H11        -0.3050    2.2280   -1.5370 ha        1 924      0.149000
     35 H12        -2.7520    2.0070   -1.6340 ha        1 924      0.160000
     36 H15        -4.6030   -2.2670   -2.9540 h1        1 924      0.079700
     37 H16        -2.4440   -2.0400   -5.0250 hc        1 924      0.075200
     38 H18         0.2140   -1.5020   -3.6900 ha        1 924      0.152000
     39 H21        -4.2330    2.4630   -3.0260 hc        1 924      0.074200
     40 H21A       -4.9470    2.0830   -1.3890 hc        1 924      0.074200
     41 H23        -7.6640    1.5330   -1.6530 ha        1 924      0.135000
     42 H24        -9.6950    2.8770   -2.1880 ha        1 924      0.140500
     43 H25        -9.5270    4.8420   -3.7210 ha        1 924      0.142000
     44 H26        -7.3210    5.4620   -4.7110 ha        1 924      0.140500
     45 H27        -5.2910    4.1360   -4.1680 ha        1 924      0.135000
     46 H181       -4.6860   -1.4460   -4.5790 h1        1 924      0.079700
     47 H19        -2.4080   -2.9610   -3.4640 hc        1 924      0.075200
     48 H13         0.4050   -1.6930    0.6980 hn        1 924      0.472800
@<TRIPOS>BOND
     1    1    2 1   
     2    1   29 1   
     3    1   30 1   
     4    1   48 1   
     5    2    3 ar  
     6    2   28 ar  
     7    3    4 ar  
     8    4    5 ar  
     9    4   31 1   
    10    5    6 ar  
    11    5   32 1   
    12    6    7 1   
    13    6   28 ar  
    14    7    8 1   
    15    8    9 2   
    16    8   33 1   
    17    9   10 1   
    18    9   28 1   
    19   10   11 ar  
    20   10   18 ar  
    21   11   12 ar  
    22   11   34 1   
    23   12   13 ar  
    24   12   35 1   
    25   13   14 1   
    26   13   17 ar  
    27   14   15 1   
    28   14   19 1   
    29   15   16 1   
    30   15   36 1   
    31   15   46 1   
    32   16   17 1   
    33   16   37 1   
    34   16   47 1   
    35   17   18 ar  
    36   18   38 1   
    37   19   20 2   
    38   19   21 1   
    39   21   22 1   
    40   21   39 1   
    41   21   40 1   
    42   22   23 ar  
    43   22   27 ar  
    44   23   24 ar  
    45   23   41 1   
    46   24   25 ar  
    47   24   42 1   
    48   25   26 ar  
    49   25   43 1   
    50   26   27 ar  
    51   26   44 1   
    52   27   45 1   
@<TRIPOS>SUBSTRUCTURE
     1 924         1 TEMP              0 ****  ****    0 ROOT
