@<TRIPOS>MOLECULE
924
   47    51     1     0     0
SMALL
bcc


@<TRIPOS>ATOM
      1 N1         -0.0510    0.0590    0.1540 nv        1 924     -0.937500
      2 C2          1.3300   -0.1170    0.1600 ca        1 924      0.689200
      3 N3          1.9780   -0.1950    1.3610 nb        1 924     -0.745000
      4 C4          3.3240   -0.2760    1.3620 ca        1 924      0.446200
      5 C5          4.1270   -0.3150    0.2220 ca        1 924     -0.272300
      6 C6          3.4800   -0.2570   -1.0170 ca        1 924     -0.023100
      7 S7          4.1510   -0.3070   -2.5600 ss        1 924      0.058500
      8 C8          2.6630   -0.1930   -3.3260 cc        1 924     -0.172400
      9 C9          1.6070   -0.1040   -2.4500 cd        1 924     -0.001400
     10 C10         0.2270    0.0270   -2.8900 ca        1 924     -0.079800
     11 C11        -0.4820    1.2120   -2.6780 ca        1 924     -0.079000
     12 C12        -1.7970    1.3740   -3.1280 ca        1 924     -0.176000
     13 C13        -2.4190    0.3160   -3.7920 ca        1 924      0.069600
     14 N14        -3.7040    0.2240   -4.3610 n         1 924     -0.379000
     15 C15        -3.8250   -1.0600   -5.0730 c3        1 924      0.086000
     16 C16        -2.5120   -1.8420   -4.8290 c3        1 924     -0.044100
     17 C17        -1.6780   -0.8890   -4.0380 ca        1 924     -0.136300
     18 C18        -0.3810   -1.0320   -3.5950 ca        1 924     -0.076000
     19 C19        -4.8630    0.9480   -4.0740 c         1 924      0.670100
     20 O20        -5.9100    0.6020   -4.6520 o         1 924     -0.581100
     21 C21        -4.7940    2.1280   -3.1270 c3        1 924     -0.098100
     22 C22        -6.1270    2.6140   -2.6790 ca        1 924     -0.088300
     23 C23        -6.3840    2.7580   -1.3100 ca        1 924     -0.109000
     24 C24        -7.6090    3.2620   -0.8750 ca        1 924     -0.132000
     25 C25        -8.5860    3.6240   -1.8020 ca        1 924     -0.123000
     26 C26        -8.3370    3.4770   -3.1660 ca        1 924     -0.132000
     27 C27        -7.1130    2.9750   -3.6050 ca        1 924     -0.109000
     28 C28         2.0620   -0.1480   -1.0780 ca        1 924     -0.236100
     29 HN1        -0.5190   -0.2580   -0.6640 hn        1 924      0.418800
     30 HN1A       -0.5290   -0.1070    1.0120 hn        1 924      0.418800
     31 H4          3.7750   -0.3230    2.3710 h4        1 924      0.021100
     32 H5          5.2180   -0.3910    0.2960 ha        1 924      0.148000
     33 H8          2.5770   -0.1810   -4.4130 h4        1 924      0.176000
     34 H11         0.0040    2.0450   -2.1430 ha        1 924      0.151000
     35 H12        -2.2950    2.3400   -2.9690 ha        1 924      0.143000
     36 H15        -4.7190   -1.6230   -4.6920 h1        1 924      0.066200
     37 H16        -2.0230   -2.1070   -5.7990 hc        1 924      0.065200
     38 H18         0.1810   -1.9570   -3.7890 ha        1 924      0.145000
     39 H21        -4.1810    1.8420   -2.2280 hc        1 924      0.077700
     40 H21A       -4.2640    2.9640   -3.6640 hc        1 924      0.077700
     41 H23        -5.6200    2.4730   -0.5720 ha        1 924      0.138000
     42 H24        -7.8030    3.3730    0.2020 ha        1 924      0.133000
     43 H25        -9.5520    4.0210   -1.4570 ha        1 924      0.132000
     44 H26        -9.1080    3.7530   -3.9000 ha        1 924      0.133000
     45 H27        -6.9250    2.8330   -4.6810 ha        1 924      0.138000
     46 H181       -3.9760   -0.8500   -6.1650 h1        1 924      0.066200
     47 H19        -2.7070   -2.7860   -4.2630 hc        1 924      0.065200
@<TRIPOS>BOND
     1    1    2 1   
     2    1   29 1   
     3    1   30 1   
     4    2    3 ar  
     5    2   28 ar  
     6    3    4 ar  
     7    4    5 ar  
     8    4   31 1   
     9    5    6 ar  
    10    5   32 1   
    11    6    7 1   
    12    6   28 ar  
    13    7    8 1   
    14    8    9 2   
    15    8   33 1   
    16    9   10 1   
    17    9   28 1   
    18   10   11 ar  
    19   10   18 ar  
    20   11   12 ar  
    21   11   34 1   
    22   12   13 ar  
    23   12   35 1   
    24   13   14 1   
    25   13   17 ar  
    26   14   15 1   
    27   14   19 1   
    28   15   16 1   
    29   15   36 1   
    30   15   46 1   
    31   16   17 1   
    32   16   37 1   
    33   16   47 1   
    34   17   18 ar  
    35   18   38 1   
    36   19   20 2   
    37   19   21 1   
    38   21   22 1   
    39   21   39 1   
    40   21   40 1   
    41   22   23 ar  
    42   22   27 ar  
    43   23   24 ar  
    44   23   41 1   
    45   24   25 ar  
    46   24   42 1   
    47   25   26 ar  
    48   25   43 1   
    49   26   27 ar  
    50   26   44 1   
    51   27   45 1   
@<TRIPOS>SUBSTRUCTURE
     1 924         1 TEMP              0 ****  ****    0 ROOT
