@<TRIPOS>MOLECULE
924
   47    51     1     0     0
SMALL
bcc


@<TRIPOS>ATOM
      1 N1         -0.0490    0.0520    0.1540 nh        1 924     -0.937500
      2 C2          1.3320   -0.1200    0.1590 ca        1 924      0.689200
      3 N3          1.9810   -0.2000    1.3600 nb        1 924     -0.745000
      4 C4          3.3270   -0.2780    1.3600 ca        1 924      0.446200
      5 C5          4.1300   -0.3090    0.2190 ca        1 924     -0.272300
      6 C6          3.4820   -0.2480   -1.0190 ca        1 924     -0.023100
      7 S7          4.1540   -0.2900   -2.5620 ss        1 924      0.058500
      8 C8          2.6650   -0.1770   -3.3280 cc        1 924     -0.172400
      9 C9          1.6090   -0.0940   -2.4510 cd        1 924     -0.001400
     10 C10         0.2280    0.0340   -2.8910 ca        1 924     -0.079800
     11 C11        -0.4830    1.2160   -2.6740 ca        1 924     -0.079000
     12 C12        -1.7990    1.3760   -3.1240 ca        1 924     -0.176000
     13 C13        -2.4180    0.3190   -3.7920 ca        1 924      0.069600
     14 N14        -3.7030    0.2250   -4.3610 n         1 924     -0.379000
     15 C15        -3.8210   -1.0570   -5.0760 c3        1 924      0.086000
     16 C16        -2.5050   -1.8360   -4.8360 c3        1 924     -0.044100
     17 C17        -1.6730   -0.8830   -4.0420 ca        1 924     -0.136300
     18 C18        -0.3770   -1.0240   -3.5990 ca        1 924     -0.076000
     19 C19        -4.8630    0.9460   -4.0730 c         1 924      0.670100
     20 O20        -5.9090    0.5990   -4.6520 o         1 924     -0.581100
     21 C21        -4.7970    2.1240   -3.1250 c3        1 924     -0.098100
     22 C22        -6.1320    2.6080   -2.6780 ca        1 924     -0.088300
     23 C23        -6.3910    2.7510   -1.3090 ca        1 924     -0.109000
     24 C24        -7.6170    3.2530   -0.8750 ca        1 924     -0.132000
     25 C25        -8.5930    3.6150   -1.8030 ca        1 924     -0.123000
     26 C26        -8.3420    3.4700   -3.1670 ca        1 924     -0.132000
     27 C27        -7.1170    2.9700   -3.6050 ca        1 924     -0.109000
     28 C28         2.0640   -0.1430   -1.0800 ca        1 924     -0.236100
     29 HN1        -0.5160   -0.2630   -0.6650 hn        1 924      0.418800
     30 HN1A       -0.5260   -0.1190    1.0100 hn        1 924      0.418800
     31 H4          3.7790   -0.3280    2.3690 h4        1 924      0.021100
     32 H5          5.2210   -0.3820    0.2930 ha        1 924      0.148000
     33 H8          2.5790   -0.1610   -4.4140 h4        1 924      0.176000
     34 H11        -0.0000    2.0480   -2.1360 ha        1 924      0.151000
     35 H12        -2.2990    2.3400   -2.9600 ha        1 924      0.143000
     36 H15        -4.7120   -1.6240   -4.6970 h1        1 924      0.066200
     37 H16        -2.0160   -2.0960   -5.8070 hc        1 924      0.065200
     38 H18         0.1880   -1.9470   -3.7960 ha        1 924      0.145000
     39 H21        -4.1860    1.8380   -2.2250 hc        1 924      0.077700
     40 H21A       -4.2670    2.9620   -3.6580 hc        1 924      0.077700
     41 H23        -5.6280    2.4650   -0.5710 ha        1 924      0.138000
     42 H24        -7.8130    3.3620    0.2010 ha        1 924      0.133000
     43 H25        -9.5600    4.0110   -1.4600 ha        1 924      0.132000
     44 H26        -9.1120    3.7460   -3.9020 ha        1 924      0.133000
     45 H27        -6.9270    2.8290   -4.6810 ha        1 924      0.138000
     46 H181       -3.9740   -0.8440   -6.1680 h1        1 924      0.066200
     47 H19        -2.6970   -2.7820   -4.2730 hc        1 924      0.065200
@<TRIPOS>BOND
     1    1    2 1   
     2    1   29 1   
     3    1   30 1   
     4    2    3 ar  
     5    2   28 ar  
     6    3    4 ar  
     7    4    5 ar  
     8    4   31 1   
     9    5    6 ar  
    10    5   32 1   
    11    6    7 1   
    12    6   28 ar  
    13    7    8 1   
    14    8    9 2   
    15    8   33 1   
    16    9   10 1   
    17    9   28 1   
    18   10   11 ar  
    19   10   18 ar  
    20   11   12 ar  
    21   11   34 1   
    22   12   13 ar  
    23   12   35 1   
    24   13   14 1   
    25   13   17 ar  
    26   14   15 1   
    27   14   19 1   
    28   15   16 1   
    29   15   36 1   
    30   15   46 1   
    31   16   17 1   
    32   16   37 1   
    33   16   47 1   
    34   17   18 ar  
    35   18   38 1   
    36   19   20 2   
    37   19   21 1   
    38   21   22 1   
    39   21   39 1   
    40   21   40 1   
    41   22   23 ar  
    42   22   27 ar  
    43   23   24 ar  
    44   23   41 1   
    45   24   25 ar  
    46   24   42 1   
    47   25   26 ar  
    48   25   43 1   
    49   26   27 ar  
    50   26   44 1   
    51   27   45 1   
@<TRIPOS>SUBSTRUCTURE
     1 924         1 TEMP              0 ****  ****    0 ROOT
