@<TRIPOS>MOLECULE
924
   47    51     1     0     0
SMALL
bcc


@<TRIPOS>ATOM
      1 N1         -2.0510   -1.8390    1.3010 nh        1 924     -0.937500
      2 C2         -3.4150   -1.7280    1.0450 ca        1 924      0.689200
      3 N3         -4.2550   -2.6950    1.5260 nb        1 924     -0.745000
      4 C4         -5.5620   -2.6310    1.2010 ca        1 924      0.446200
      5 C5         -6.1480   -1.6310    0.4240 ca        1 924     -0.272300
      6 C6         -5.3080   -0.6230   -0.0600 ca        1 924     -0.023100
      7 S7         -5.7040    0.7220   -0.9910 ss        1 924      0.058500
      8 C8         -4.1250    1.2860   -1.0380 cc        1 924     -0.172400
      9 C9         -3.2400    0.4800   -0.3620 cd        1 924     -0.001400
     10 C10        -1.8150    0.7610   -0.2890 ca        1 924     -0.079800
     11 C11        -0.8900   -0.0590   -0.9400 ca        1 924     -0.079000
     12 C12         0.4820    0.2150   -0.9160 ca        1 924     -0.176000
     13 C13         0.9360    1.3300   -0.2090 ca        1 924      0.069600
     14 N14         2.2390    1.8400   -0.0470 n         1 924     -0.379000
     15 C15         2.1680    3.1230    0.6720 c3        1 924      0.086000
     16 C16         0.6840    3.3530    1.0490 c3        1 924     -0.044100
     17 C17        -0.0190    2.1900    0.4300 ca        1 924     -0.136300
     18 C18        -1.3670    1.9110    0.3930 ca        1 924     -0.076000
     19 C19         3.4710    1.1930   -0.1530 c         1 924      0.670100
     20 O20         4.4870    1.8500    0.1420 o         1 924     -0.581100
     21 C21         3.5280   -0.2350   -0.6540 c3        1 924     -0.098100
     22 C22         4.8430   -0.8950   -0.4320 ca        1 924     -0.088300
     23 C23         4.8930   -2.1340    0.2170 ca        1 924     -0.109000
     24 C24         6.1100   -2.7910    0.3850 ca        1 924     -0.132000
     25 C25         7.2880   -2.2150   -0.0910 ca        1 924     -0.123000
     26 C26         7.2450   -0.9780   -0.7330 ca        1 924     -0.132000
     27 C27         6.0280   -0.3190   -0.9050 ca        1 924     -0.109000
     28 C28        -3.9150   -0.6510    0.2330 ca        1 924     -0.236100
     29 HN1        -1.5420   -0.9850    1.2830 hn        1 924      0.418800
     30 HN1A       -1.7770   -2.4850    2.0070 hn        1 924      0.418800
     31 H4         -6.1740   -3.4540    1.6160 h4        1 924      0.021100
     32 H5         -7.2220   -1.6360    0.2060 ha        1 924      0.148000
     33 H8         -3.8580    2.1990   -1.5710 h4        1 924      0.176000
     34 H11        -1.2460   -0.9470   -1.4880 ha        1 924      0.151000
     35 H12         1.1610   -0.4410   -1.4760 ha        1 924      0.143000
     36 H15         2.8250    3.0860    1.5820 h1        1 924      0.066200
     37 H16         0.5510    3.3720    2.1590 hc        1 924      0.065200
     38 H18        -2.0940    2.5760    0.8840 ha        1 924      0.145000
     39 H21         2.7220   -0.8340   -0.1470 hc        1 924      0.077700
     40 H21A        3.3120   -0.2170   -1.7590 hc        1 924      0.077700
     41 H23         3.9690   -2.5950    0.5980 ha        1 924      0.138000
     42 H24         6.1410   -3.7640    0.8960 ha        1 924      0.133000
     43 H25         8.2480   -2.7340    0.0430 ha        1 924      0.132000
     44 H26         8.1720   -0.5160   -1.1030 ha        1 924      0.133000
     45 H27         5.9970    0.6700   -1.3880 ha        1 924      0.138000
     46 H181        2.5450    3.9340   -0.0060 h1        1 924      0.066200
     47 H19         0.3160    4.3230    0.6330 hc        1 924      0.065200
@<TRIPOS>BOND
     1    1    2 1   
     2    1   29 1   
     3    1   30 1   
     4    2    3 ar  
     5    2   28 ar  
     6    3    4 ar  
     7    4    5 ar  
     8    4   31 1   
     9    5    6 ar  
    10    5   32 1   
    11    6    7 1   
    12    6   28 ar  
    13    7    8 1   
    14    8    9 2   
    15    8   33 1   
    16    9   10 1   
    17    9   28 1   
    18   10   11 ar  
    19   10   18 ar  
    20   11   12 ar  
    21   11   34 1   
    22   12   13 ar  
    23   12   35 1   
    24   13   14 1   
    25   13   17 ar  
    26   14   15 1   
    27   14   19 1   
    28   15   16 1   
    29   15   36 1   
    30   15   46 1   
    31   16   17 1   
    32   16   37 1   
    33   16   47 1   
    34   17   18 ar  
    35   18   38 1   
    36   19   20 2   
    37   19   21 1   
    38   21   22 1   
    39   21   39 1   
    40   21   40 1   
    41   22   23 ar  
    42   22   27 ar  
    43   23   24 ar  
    44   23   41 1   
    45   24   25 ar  
    46   24   42 1   
    47   25   26 ar  
    48   25   43 1   
    49   26   27 ar  
    50   26   44 1   
    51   27   45 1   
@<TRIPOS>SUBSTRUCTURE
     1 924         1 TEMP              0 ****  ****    0 ROOT
