@<TRIPOS>MOLECULE
924
   47    43     1     0     0
SMALL
bcc


@<TRIPOS>ATOM
      1 N1          0.7920   -4.3800    2.5080 n3        1 924     -0.342000
      2 C2          2.0620   -3.8330    3.0080 c2        1 924      0.178000
      3 N3          2.0530   -4.7200    4.0660 n1        1 924     -0.224000
      4 C4          3.0790   -4.6890    5.0180 c1        1 924     -0.017000
      5 C5          4.1170   -3.7570    4.9010 c1        1 924     -0.213000
      6 C6          4.1320   -2.8710    3.8500 c1        1 924     -0.245000
      7 S7          5.1260   -1.7060    3.4660 s         1 924      0.518000
      8 C8          4.5900   -1.0450    2.1880 c1        1 924     -0.415000
      9 C9          3.3780   -1.7320    1.8110 c1        1 924     -0.021000
     10 C10         2.2180   -1.1640    0.9430 c1        1 924     -0.072000
     11 C11         1.2440   -0.3110    1.5320 c2        1 924     -0.086000
     12 C12         0.2320    0.2640    0.7320 c1        1 924     -0.149000
     13 C13         0.1860   -0.0100   -0.6660 c2        1 924      0.079000
     14 N14        -0.6660    0.5410   -1.7610 n         1 924     -0.293000
     15 C15        -0.2950   -0.0960   -2.9660 c3        1 924     -0.026000
     16 C16         0.8360   -0.9680   -2.6800 c3        1 924     -0.122000
     17 C17         1.1450   -0.8490   -1.2440 c2        1 924     -0.140000
     18 C18         2.1740   -1.4340   -0.4290 c2        1 924     -0.079000
     19 C19        -1.5720    1.6350   -1.6400 c2        1 924      0.318000
     20 O20        -1.8140    2.0970   -0.5550 o         1 924     -0.330000
     21 C21        -2.2300    2.2270   -2.8850 c3        1 924     -0.134000
     22 C22        -3.2720    3.2640   -2.4670 c2        1 924     -0.071000
     23 C23        -2.9030    4.5830   -2.2890 c2        1 924     -0.109000
     24 C24        -3.8730    5.5450   -1.9370 c1        1 924     -0.128000
     25 C25        -5.2030    5.1640   -1.7690 c2        1 924     -0.122000
     26 C26        -5.5710    3.8400   -1.9490 c1        1 924     -0.128000
     27 C27        -4.6030    2.8820   -2.2990 c1        1 924     -0.113000
     28 C28         3.0990   -2.8990    2.8880 c2        1 924     -0.163000
     29 HN1         0.3390   -5.0370    2.9990 hn        1 924      0.220500
     30 HN1A        0.4530   -4.0960    1.6750 hn        1 924      0.220500
     31 H4          3.0710   -5.3000    5.7440 ha        1 924      0.156000
     32 H5          4.8350   -3.7360    5.5680 DU        1 924      0.157500
     33 H8          5.0490   -0.3690    1.6610 DU        1 924      0.157500
     34 H11         1.3190   -0.0600    2.4880 ha        1 924      0.151000
     35 H12        -0.4060    0.8250    1.1200 DU        1 924      0.157500
     36 H15        -1.0820   -0.6630   -3.3020 h1        1 924      0.087000
     37 H16         1.6200   -0.6680   -3.2110 hc        1 924      0.103000
     38 H18         2.8810   -1.9720   -0.8440 ha        1 924      0.142000
     39 H21        -2.6550    1.5360   -3.3770 hc        1 924      0.110000
     40 H21A       -1.5790    2.6360   -3.4180 hc        1 924      0.110000
     41 H23        -1.9630    4.8510   -2.4080 ha        1 924      0.132000
     42 H24        -3.6180    6.4630   -1.8110 DU        1 924      0.157500
     43 H25        -5.8880    5.8420   -1.5210 ha        1 924      0.132000
     44 H26        -6.5380    3.5630   -1.8270 ha        1 924      0.133000
     45 H27        -4.8690    1.9200   -2.4280 ha        1 924      0.130000
     46 H181       -0.0230    0.5710   -3.6070 h1        1 924      0.087000
     47 H19         0.5900   -1.8800   -2.8760 hc        1 924      0.103000
@<TRIPOS>BOND
     1    1    2 1   
     2    1   29 1   
     3    1   30 1   
     4    2    3 1   
     5    2   28 1   
     6    4    5 1   
     7    4   31 1   
     8    5    6 1   
     9    6   28 1   
    10    7    8 1   
    11    8    9 1   
    12    9   28 1   
    13   10   11 1   
    14   10   18 1   
    15   11   12 1   
    16   11   34 1   
    17   12   13 1   
    18   13   14 1   
    19   13   17 1   
    20   14   15 1   
    21   14   19 1   
    22   15   16 1   
    23   15   36 1   
    24   15   46 1   
    25   16   17 1   
    26   16   37 1   
    27   16   47 1   
    28   17   18 1   
    29   18   38 1   
    30   19   20 1   
    31   19   21 1   
    32   21   22 1   
    33   21   39 1   
    34   21   40 1   
    35   22   23 1   
    36   22   27 1   
    37   23   24 1   
    38   23   41 1   
    39   24   25 1   
    40   25   26 1   
    41   25   43 1   
    42   26   44 1   
    43   27   45 1   
@<TRIPOS>SUBSTRUCTURE
     1 924         1 TEMP              0 ****  ****    0 ROOT
