@<TRIPOS>MOLECULE
925
   70    74     1     0     0
SMALL
bcc


@<TRIPOS>ATOM
      1 C1         -0.4910   -0.3490   -0.0850 c3        1 925     -0.105600
      2 N1          1.4250   -0.0190    1.4220 n3        1 925     -0.477100
      3 O1          1.0880    1.2480    1.7120 oh        1 925     -0.409300
      4 C2          1.0500   -0.2990   -0.0020 c3        1 925      0.179200
      5 N2          3.5160   -3.2200   -0.6060 n4        1 925     -0.681800
      6 O2          5.6890   -2.3600   -0.6020 o         1 925     -0.423100
      7 C3          1.5500   -1.6950   -0.4270 c3        1 925     -0.099400
      8 N3         10.6070   -6.1820   -6.6370 nc        1 925     -0.651000
      9 O3         13.7340   -0.1110   -7.1230 oh        1 925     -0.492100
     10 C4          3.0460   -1.8530   -0.1610 c3        1 925      0.129500
     11 N4         10.1990   -4.7300   -4.6600 na        1 925      0.022200
     12 C5          3.3430   -1.6200    1.3190 c3        1 925     -0.099400
     13 N5          9.2740   -4.5210   -3.7200 nc        1 925     -0.575100
     14 C6          2.8660   -0.2260    1.7750 c3        1 925      0.179200
     15 N6         11.8890   -3.1630   -3.8810 nh        1 925     -0.642000
     16 C7          3.8350    0.8420    1.2550 c3        1 925     -0.105600
     17 C8          2.9810   -0.2140    3.3160 c3        1 925     -0.105600
     18 C9          4.9920   -3.3000   -0.9570 c         1 925      0.573700
     19 C10         5.3940   -4.4900   -1.7080 ca        1 925     -0.212600
     20 C11         4.6680   -5.6930   -1.6900 ca        1 925     -0.105000
     21 C12         5.1280   -6.7800   -2.4220 ca        1 925     -0.119000
     22 C13         6.3020   -6.6850   -3.1750 ca        1 925     -0.048000
     23 C14         7.0360   -5.4910   -3.1960 ca        1 925     -0.063900
     24 C15         6.5830   -4.3920   -2.4500 ca        1 925     -0.026000
     25 C16         8.2500   -5.4030   -3.9890 cd        1 925      0.380200
     26 C17         8.5410   -6.2110   -5.1410 cd        1 925     -0.298600
     27 C18         9.8160   -5.7810   -5.5860 cc        1 925      0.396500
     28 C19        11.7810   -5.5830   -6.7480 cd        1 925      0.470200
     29 C20        12.2620   -4.5660   -5.8670 cd        1 925     -0.344300
     30 C21        11.4710   -4.1150   -4.8040 cc        1 925      0.287300
     31 C22        12.7050   -2.0650   -4.2240 ca        1 925      0.173600
     32 C23        13.4160   -1.4150   -3.1870 ca        1 925     -0.196000
     33 C24        14.2350   -0.3300   -3.4800 ca        1 925     -0.061000
     34 C25        14.3740    0.1350   -4.7850 ca        1 925     -0.225000
     35 C26        13.6640   -0.5050   -5.8090 ca        1 925      0.158100
     36 C27        12.8240   -1.5980   -5.5450 ca        1 925     -0.205000
     37 C28         1.5110    0.7440   -1.0260 c3        1 925     -0.105600
     38 H1         -0.9120   -1.0800    0.6460 hc        1 925      0.053783
     39 H1A        -0.7960   -0.6510   -1.1140 hc        1 925      0.053783
     40 H1B        -0.9120    0.6620    0.1350 hc        1 925      0.053783
     41 HO1         0.4140    1.1640    2.4160 ho        1 925      0.433000
     42 HN2         3.3310   -3.8940    0.1440 hn        1 925      0.453800
     43 H3          0.9740   -2.4750    0.1400 hc        1 925      0.069700
     44 H3A         1.3270   -1.8150   -1.5200 hc        1 925      0.069700
     45 HO3        14.3450    0.6400   -7.1800 ho        1 925      0.429000
     46 H4          3.6270   -1.1050   -0.7830 hx        1 925      0.121700
     47 H5          4.4480   -1.6800    1.5030 hc        1 925      0.069700
     48 H5A         2.8320   -2.4010    1.9420 hc        1 925      0.069700
     49 HN6        11.4040   -3.0880   -3.0130 hn        1 925      0.461800
     50 H7          3.4210    1.8620    1.4520 hc        1 925      0.053783
     51 H7A         4.8140    0.7500    1.7850 hc        1 925      0.053783
     52 H7B         4.0210    0.7390    0.1620 hc        1 925      0.053783
     53 H8          4.0280   -0.4660    3.6080 hc        1 925      0.053783
     54 H8A         2.2880   -0.9560    3.7780 hc        1 925      0.053783
     55 H8B         2.7320    0.8030    3.7030 hc        1 925      0.053783
     56 H11         3.7540   -5.8120   -1.0910 ha        1 925      0.124000
     57 H12         4.5680   -7.7300   -2.4060 ha        1 925      0.164000
     58 H13         6.6590   -7.5570   -3.7500 ha        1 925      0.172000
     59 H15         7.1560   -3.4480   -2.4430 ha        1 925      0.181000
     60 H17         7.9280   -6.9810   -5.5950 ha        1 925      0.184000
     61 H19        12.4230   -5.9120   -7.5890 h4        1 925      0.047100
     62 H20        13.2670   -4.1480   -6.0220 ha        1 925      0.183000
     63 H23        13.3320   -1.7640   -2.1470 ha        1 925      0.142000
     64 H24        14.7860    0.1660   -2.6650 ha        1 925      0.145000
     65 H25        15.0290    0.9890   -5.0090 ha        1 925      0.146000
     66 H27        12.2740   -2.0580   -6.3790 ha        1 925      0.162000
     67 H28         0.9740    0.5850   -1.9920 hc        1 925      0.053783
     68 H28A        2.6060    0.6840   -1.2200 hc        1 925      0.053783
     69 H28B        1.2730    1.7720   -0.6540 hc        1 925      0.053783
     70 H22         2.9790   -3.5040   -1.4330 hn        1 925      0.453800
@<TRIPOS>BOND
     1    1    4 1   
     2    1   38 1   
     3    1   39 1   
     4    1   40 1   
     5    2    3 1   
     6    2    4 1   
     7    2   14 1   
     8    3   41 1   
     9    4    7 1   
    10    4   37 1   
    11    5   10 1   
    12    5   18 1   
    13    5   42 1   
    14    5   70 1   
    15    6   18 2   
    16    7   10 1   
    17    7   43 1   
    18    7   44 1   
    19    8   27 1   
    20    8   28 2   
    21    9   35 1   
    22    9   45 1   
    23   10   12 1   
    24   10   46 1   
    25   11   13 1   
    26   11   27 1   
    27   11   30 1   
    28   12   14 1   
    29   12   47 1   
    30   12   48 1   
    31   13   25 2   
    32   14   16 1   
    33   14   17 1   
    34   15   30 1   
    35   15   31 1   
    36   15   49 1   
    37   16   50 1   
    38   16   51 1   
    39   16   52 1   
    40   17   53 1   
    41   17   54 1   
    42   17   55 1   
    43   18   19 1   
    44   19   20 ar  
    45   19   24 ar  
    46   20   21 ar  
    47   20   56 1   
    48   21   22 ar  
    49   21   57 1   
    50   22   23 ar  
    51   22   58 1   
    52   23   24 ar  
    53   23   25 1   
    54   24   59 1   
    55   25   26 1   
    56   26   27 2   
    57   26   60 1   
    58   28   29 1   
    59   28   61 1   
    60   29   30 2   
    61   29   62 1   
    62   31   32 ar  
    63   31   36 ar  
    64   32   33 ar  
    65   32   63 1   
    66   33   34 ar  
    67   33   64 1   
    68   34   35 ar  
    69   34   65 1   
    70   35   36 ar  
    71   36   66 1   
    72   37   67 1   
    73   37   68 1   
    74   37   69 1   
@<TRIPOS>SUBSTRUCTURE
     1 925         1 TEMP              0 ****  ****    0 ROOT
