@<TRIPOS>MOLECULE
925
   69    73     1     0     0
SMALL
bcc


@<TRIPOS>ATOM
      1 C1          8.2690   -1.4730    0.7480 c3        1 925     -0.100100
      2 N1          7.2460    0.2020   -0.7300 n3        1 925     -0.483100
      3 O1          8.2260    1.1050   -0.5520 oh        1 925     -0.420300
      4 C2          7.0440   -0.5520    0.5480 c3        1 925      0.176700
      5 N2          3.3930   -1.5750   -0.0160 n         1 925     -0.570900
      6 O2          2.1470   -0.3250    1.4500 o         1 925     -0.603100
      7 C3          5.8140   -1.4710    0.4600 c3        1 925     -0.087400
      8 N3         -6.2650   -2.0660    0.6040 nc        1 925     -0.646000
      9 O3         -6.8620    4.6430    2.0570 oh        1 925     -0.493100
     10 C4          4.5540   -0.7120    0.0240 c3        1 925      0.098700
     11 N4         -4.2890   -0.7060   -0.0540 na        1 925      0.013200
     12 C5          4.8310   -0.0520   -1.3330 c3        1 925     -0.087400
     13 N5         -2.9590   -0.8150   -0.1560 nc        1 925     -0.571100
     14 C6          6.0410    0.8970   -1.2840 c3        1 925      0.176700
     15 N6         -4.5540    1.5460   -0.9610 nh        1 925     -0.625000
     16 C7          5.6450    2.1920   -0.5630 c3        1 925     -0.100100
     17 C8          6.3560    1.2880   -2.7450 c3        1 925     -0.100100
     18 C9          2.2410   -1.3160    0.6980 c         1 925      0.674700
     19 C10         1.1070   -2.2720    0.5230 ca        1 925     -0.146600
     20 C11         1.3130   -3.6510    0.4380 ca        1 925     -0.098000
     21 C12         0.2200   -4.5050    0.2900 ca        1 925     -0.142000
     22 C13        -1.0730   -3.9900    0.2250 ca        1 925     -0.091000
     23 C14        -1.2860   -2.6060    0.3190 ca        1 925     -0.106900
     24 C15        -0.1900   -1.7470    0.4740 ca        1 925     -0.051000
     25 C16        -2.6430   -2.0850    0.2640 cd        1 925      0.428200
     26 C17        -3.8260   -2.8210    0.6390 cd        1 925     -0.300600
     27 C18        -4.9050   -1.9320    0.4290 cc        1 925      0.375500
     28 C19        -7.0030   -1.0220    0.2730 cd        1 925      0.447200
     29 C20        -6.4910    0.2130   -0.2380 cd        1 925     -0.346300
     30 C21        -5.1140    0.3870   -0.4050 cc        1 925      0.272300
     31 C22        -4.9050    2.8340   -0.5080 ca        1 925      0.182600
     32 C23        -4.4210    3.9470   -1.2360 ca        1 925     -0.198000
     33 C24        -4.7690    5.2390   -0.8510 ca        1 925     -0.069000
     34 C25        -5.5900    5.4700    0.2480 ca        1 925     -0.178000
     35 C26        -6.0590    4.3650    0.9760 ca        1 925      0.155100
     36 C27        -5.7250    3.0540    0.6160 ca        1 925     -0.262000
     37 C28         6.9440    0.3160    1.8100 c3        1 925     -0.100100
     38 H1          9.1880   -0.8590    0.9010 hc        1 925      0.042700
     39 H1A         8.1040   -2.1090    1.6490 hc        1 925      0.042700
     40 H1B         8.4200   -2.1350   -0.1370 hc        1 925      0.042700
     41 HO1         8.9280    0.8170   -1.1650 ho        1 925      0.415000
     42 HN2         3.4110   -2.3320   -0.6550 hn        1 925      0.309500
     43 H3          6.0250   -2.3000   -0.2660 hc        1 925      0.052200
     44 H3A         5.6550   -1.9290    1.4700 hc        1 925      0.052200
     45 HO3        -7.0840    3.8060    2.4920 ho        1 925      0.422000
     46 H4          4.3370    0.1000    0.7850 h1        1 925      0.095700
     47 H5          5.0150   -0.8430   -2.1070 hc        1 925      0.052200
     48 H5A         3.9400    0.5460   -1.6570 hc        1 925      0.052200
     49 HN6        -3.6230    1.4740   -1.3200 hn        1 925      0.454800
     50 H7          6.5420    2.8420   -0.4170 hc        1 925      0.042700
     51 H7A         4.8980    2.7470   -1.1800 hc        1 925      0.042700
     52 H7B         5.1880    1.9860    0.4320 hc        1 925      0.042700
     53 H8          6.6650    0.3960   -3.3400 hc        1 925      0.042700
     54 H8A         5.4420    1.7290   -3.2090 hc        1 925      0.042700
     55 H8B         7.1770    2.0430   -2.7700 hc        1 925      0.042700
     56 H11         2.3260   -4.0750    0.5050 ha        1 925      0.137000
     57 H12         0.3790   -5.5910    0.2260 ha        1 925      0.139000
     58 H13        -1.9300   -4.6680    0.0980 ha        1 925      0.142000
     59 H15        -0.3330   -0.6580    0.5730 ha        1 925      0.168000
     60 H17        -3.8840   -3.8360    1.0140 ha        1 925      0.182000
     61 H19        -8.0960   -1.1320    0.4030 h4        1 925      0.034100
     62 H20        -7.1860    1.0160   -0.5150 ha        1 925      0.172000
     63 H23        -3.7700    3.8010   -2.1100 ha        1 925      0.142000
     64 H24        -4.3860    6.0940   -1.4300 ha        1 925      0.140000
     65 H25        -5.8700    6.4860    0.5550 ha        1 925      0.155000
     66 H27        -6.0960    2.2130    1.2200 ha        1 925      0.146000
     67 H28         7.7740    1.0640    1.8300 hc        1 925      0.042700
     68 H28A        5.9730    0.8590    1.8580 hc        1 925      0.042700
     69 H28B        7.0250   -0.3330    2.7150 hc        1 925      0.042700
@<TRIPOS>BOND
     1    1    4 1   
     2    1   38 1   
     3    1   39 1   
     4    1   40 1   
     5    2    3 1   
     6    2    4 1   
     7    2   14 1   
     8    3   41 1   
     9    4    7 1   
    10    4   37 1   
    11    5   10 1   
    12    5   18 1   
    13    5   42 1   
    14    6   18 2   
    15    7   10 1   
    16    7   43 1   
    17    7   44 1   
    18    8   27 1   
    19    8   28 2   
    20    9   35 1   
    21    9   45 1   
    22   10   12 1   
    23   10   46 1   
    24   11   13 1   
    25   11   27 1   
    26   11   30 1   
    27   12   14 1   
    28   12   47 1   
    29   12   48 1   
    30   13   25 2   
    31   14   16 1   
    32   14   17 1   
    33   15   30 1   
    34   15   31 1   
    35   15   49 1   
    36   16   50 1   
    37   16   51 1   
    38   16   52 1   
    39   17   53 1   
    40   17   54 1   
    41   17   55 1   
    42   18   19 1   
    43   19   20 ar  
    44   19   24 ar  
    45   20   21 ar  
    46   20   56 1   
    47   21   22 ar  
    48   21   57 1   
    49   22   23 ar  
    50   22   58 1   
    51   23   24 ar  
    52   23   25 1   
    53   24   59 1   
    54   25   26 1   
    55   26   27 2   
    56   26   60 1   
    57   28   29 1   
    58   28   61 1   
    59   29   30 2   
    60   29   62 1   
    61   31   32 ar  
    62   31   36 ar  
    63   32   33 ar  
    64   32   63 1   
    65   33   34 ar  
    66   33   64 1   
    67   34   35 ar  
    68   34   65 1   
    69   35   36 ar  
    70   36   66 1   
    71   37   67 1   
    72   37   68 1   
    73   37   69 1   
@<TRIPOS>SUBSTRUCTURE
     1 925         1 TEMP              0 ****  ****    0 ROOT
