@<TRIPOS>MOLECULE
925
   71    75     1     0     0
SMALL
bcc


@<TRIPOS>ATOM
      1 C1         -0.8060   -1.1030    0.8390 c3        1 925     -0.106100
      2 N1          1.2620   -0.2180    1.8350 n3        1 925     -0.475100
      3 O1          0.7270    0.9850    2.0900 oh        1 925     -0.407300
      4 C2          0.6710   -0.7460    0.5630 c3        1 925      0.179200
      5 N2          3.5310   -3.1960   -0.3380 n4        1 925     -0.677800
      6 O2          5.3940   -1.9350   -0.9720 o         1 925     -0.423100
      7 C3          1.3630   -2.0640    0.1540 c3        1 925     -0.100900
      8 N3         10.2260   -5.7240   -7.0140 nc        1 925     -0.550000
      9 O3         16.4500   -2.4360   -4.1970 oh        1 925     -0.465100
     10 C4          2.8790   -1.8910    0.0830 c3        1 925      0.131500
     11 N4          9.9910   -4.2530   -5.0230 na        1 925      0.020200
     12 C5          3.4180   -1.4170    1.4300 c3        1 925     -0.100900
     13 N5          9.1890   -4.0610   -3.9730 nc        1 925     -0.580100
     14 C6          2.7550   -0.0940    1.8650 c3        1 925      0.179200
     15 N6         11.6430   -2.4970   -4.4820 n4        1 925     -0.502800
     16 C7          3.3390    1.0650    1.0480 c3        1 925     -0.106100
     17 C8          3.1810    0.1400    3.3310 c3        1 925     -0.106100
     18 C9          4.8850   -3.0480   -0.9910 c         1 925      0.566700
     19 C10         5.4470   -4.2580   -1.6070 ca        1 925     -0.204600
     20 C11         4.9840   -5.5530   -1.3300 ca        1 925     -0.079000
     21 C12         5.5800   -6.6460   -1.9530 ca        1 925     -0.115000
     22 C13         6.6310   -6.4620   -2.8530 ca        1 925     -0.036000
     23 C14         7.1040   -5.1700   -3.1300 ca        1 925     -0.108900
     24 C15         6.5160   -4.0680   -2.5000 ca        1 925     -0.020000
     25 C16         8.1920   -5.0060   -4.0840 cd        1 925      0.430200
     26 C17         8.3710   -5.8290   -5.2530 cd        1 925     -0.238600
     27 C18         9.5440   -5.3500   -5.8790 cc        1 925      0.376500
     28 C19        11.3230   -5.0590   -7.3070 cd        1 925      0.432200
     29 C20        11.8550   -3.9730   -6.5120 cd        1 925     -0.179300
     30 C21        11.1780   -3.5860   -5.3700 cc        1 925      0.055300
     31 C22        12.9290   -1.9100   -4.8860 ca        1 925     -0.029400
     32 C23        12.9420   -0.7840   -5.7250 ca        1 925     -0.145000
     33 C24        14.1690   -0.2000   -6.0480 ca        1 925     -0.059000
     34 C25        15.3620   -0.7200   -5.5570 ca        1 925     -0.154000
     35 C26        15.3330   -1.8520   -4.7230 ca        1 925      0.170100
     36 C27        14.1140   -2.4640   -4.3780 ca        1 925     -0.152000
     37 C28         0.6750    0.2250   -0.6230 c3        1 925     -0.106100
     38 H1         -1.3810   -0.1720    1.0610 hc        1 925      0.055117
     39 H1A        -0.8980   -1.7990    1.7060 hc        1 925      0.055117
     40 H1B        -1.2430   -1.5900   -0.0650 hc        1 925      0.055117
     41 HO1         0.2300    0.8600    2.9230 ho        1 925      0.438000
     42 HN2         2.9080   -3.6760   -0.9980 hn        1 925      0.458300
     43 H3          1.0980   -2.8580    0.9020 hc        1 925      0.070200
     44 H3A         0.9500   -2.3650   -0.8450 hc        1 925      0.070200
     45 HO3        17.2330   -1.9320   -4.4780 ho        1 925      0.456000
     46 H4          3.1440   -1.1360   -0.7190 hx        1 925      0.121700
     47 H5          4.5240   -1.2390    1.3620 hc        1 925      0.070200
     48 H5A         3.2270   -2.1940    2.2190 hc        1 925      0.070200
     49 HN6        11.7400   -2.8710   -3.5220 hn        1 925      0.476800
     50 H7          4.4010    1.2360    1.3460 hc        1 925      0.055117
     51 H7A         2.7600    2.0010    1.2460 hc        1 925      0.055117
     52 H7B         3.3140    0.8570   -0.0470 hc        1 925      0.055117
     53 H8          2.8010    1.1310    3.6780 hc        1 925      0.055117
     54 H8A         4.2950    0.1370    3.3960 hc        1 925      0.055117
     55 H8B         2.7760   -0.6550    4.0010 hc        1 925      0.055117
     56 H11         4.1690   -5.7450   -0.6160 ha        1 925      0.138000
     57 H12         5.2210   -7.6670   -1.7340 ha        1 925      0.179000
     58 H13         7.0940   -7.3370   -3.3430 ha        1 925      0.173000
     59 H15         6.8820   -3.0460   -2.7010 ha        1 925      0.172000
     60 H17         7.7370   -6.6420   -5.6020 ha        1 925      0.210000
     61 H19        11.8680   -5.3660   -8.2250 h4        1 925      0.082100
     62 H20        12.7890   -3.4830   -6.8330 ha        1 925      0.201000
     63 H23        12.0140   -0.3470   -6.1270 ha        1 925      0.162000
     64 H24        14.1870    0.6900   -6.7020 ha        1 925      0.181000
     65 H25        16.3250   -0.2480   -5.8170 ha        1 925      0.180000
     66 H27        14.1320   -3.3470   -3.7190 ha        1 925      0.180000
     67 H28        -0.0090   -0.1530   -1.4210 hc        1 925      0.055117
     68 H28A        0.3090    1.2290   -0.2920 hc        1 925      0.055117
     69 H28B        1.6910    0.3470   -1.0610 hc        1 925      0.055117
     70 H22         3.6390   -3.7890    0.4930 hn        1 925      0.458300
     71 H62        10.9270   -1.7530   -4.4730 hn        1 925      0.476800
@<TRIPOS>BOND
     1    1    4 1   
     2    1   38 1   
     3    1   39 1   
     4    1   40 1   
     5    2    3 1   
     6    2    4 1   
     7    2   14 1   
     8    3   41 1   
     9    4    7 1   
    10    4   37 1   
    11    5   10 1   
    12    5   18 1   
    13    5   42 1   
    14    5   70 1   
    15    6   18 2   
    16    7   10 1   
    17    7   43 1   
    18    7   44 1   
    19    8   27 1   
    20    8   28 2   
    21    9   35 1   
    22    9   45 1   
    23   10   12 1   
    24   10   46 1   
    25   11   13 1   
    26   11   27 1   
    27   11   30 1   
    28   12   14 1   
    29   12   47 1   
    30   12   48 1   
    31   13   25 2   
    32   14   16 1   
    33   14   17 1   
    34   15   30 1   
    35   15   31 1   
    36   15   49 1   
    37   15   71 1   
    38   16   50 1   
    39   16   51 1   
    40   16   52 1   
    41   17   53 1   
    42   17   54 1   
    43   17   55 1   
    44   18   19 1   
    45   19   20 ar  
    46   19   24 ar  
    47   20   21 ar  
    48   20   56 1   
    49   21   22 ar  
    50   21   57 1   
    51   22   23 ar  
    52   22   58 1   
    53   23   24 ar  
    54   23   25 1   
    55   24   59 1   
    56   25   26 1   
    57   26   27 2   
    58   26   60 1   
    59   28   29 1   
    60   28   61 1   
    61   29   30 2   
    62   29   62 1   
    63   31   32 ar  
    64   31   36 ar  
    65   32   33 ar  
    66   32   63 1   
    67   33   34 ar  
    68   33   64 1   
    69   34   35 ar  
    70   34   65 1   
    71   35   36 ar  
    72   36   66 1   
    73   37   67 1   
    74   37   68 1   
    75   37   69 1   
@<TRIPOS>SUBSTRUCTURE
     1 925         1 TEMP              0 ****  ****    0 ROOT
