@<TRIPOS>MOLECULE
925
   70    74     1     0     0
SMALL
bcc


@<TRIPOS>ATOM
      1 C1          0.6680   -0.2530   -0.6000 c3        1 925     -0.107350
      2 N1          3.0230    0.4230   -0.3910 n3        1 925     -0.477100
      3 O1          2.8600    1.5490   -1.1030 oh        1 925     -0.409300
      4 C2          2.1220   -0.6340   -0.9540 c3        1 925      0.178700
      5 N2          4.1060   -3.7160    0.2940 ny        1 925     -0.684800
      6 O2          6.3200   -4.1290    0.8210 o         1 925     -0.414100
      7 C3          2.3880   -1.9940   -0.2760 c3        1 925     -0.099900
      8 N3         10.3440   -4.3530   -7.0290 nc        1 925     -0.620000
      9 O3          8.6410    0.0210   -1.8130 oh        1 925     -0.514100
     10 C4          3.8680   -2.3650   -0.3440 c3        1 925      0.130500
     11 N4         10.1890   -4.0590   -4.5630 na        1 925      0.032200
     12 C5          4.7040   -1.2800    0.3300 c3        1 925     -0.099900
     13 N5          9.3270   -4.2490   -3.5700 nc        1 925     -0.547100
     14 C6          4.4840    0.0900   -0.3440 c3        1 925      0.178700
     15 N6         12.0950   -3.0830   -3.3120 nu        1 925     -0.610000
     16 C7          5.2140    0.1240   -1.6910 c3        1 925     -0.107350
     17 C8          5.1780    1.1320    0.5610 c3        1 925     -0.107350
     18 C9          5.4790   -4.2630   -0.0550 c         1 925      0.578700
     19 C10         5.6180   -4.8470   -1.3900 ca        1 925     -0.203600
     20 C11         4.6490   -5.7020   -1.9370 ca        1 925     -0.101000
     21 C12         4.8620   -6.2530   -3.1970 ca        1 925     -0.119000
     22 C13         6.0190   -5.9520   -3.9170 ca        1 925     -0.055000
     23 C14         6.9910   -5.0970   -3.3770 ca        1 925     -0.063900
     24 C15         6.7950   -4.5570   -2.0960 ca        1 925     -0.036000
     25 C16         8.1820   -4.7690   -4.1410 cd        1 925      0.372200
     26 C17         8.3310   -4.9160   -5.5630 cd        1 925     -0.279600
     27 C18         9.6380   -4.4520   -5.8500 cc        1 925      0.363500
     28 C19        11.5590   -3.8460   -6.9460 cd        1 925      0.442200
     29 C20        12.1740   -3.3990   -5.7280 cd        1 925     -0.278300
     30 C21        11.4950   -3.5050   -4.5170 cc        1 925      0.223300
     31 C22        11.3390   -2.4630   -2.2940 ca        1 925      0.174600
     32 C23        11.6480   -2.7160   -0.9380 ca        1 925     -0.193000
     33 C24        10.9730   -2.0380    0.0720 ca        1 925     -0.070000
     34 C25         9.9750   -1.1140   -0.2230 ca        1 925     -0.180000
     35 C26         9.6650   -0.8700   -1.5690 ca        1 925      0.136100
     36 C27        10.3380   -1.5220   -2.6080 ca        1 925     -0.221000
     37 C28         2.1720   -0.8030   -2.4770 c3        1 925     -0.107350
     38 H1         -0.0180   -1.0700   -0.9260 hc        1 925      0.054283
     39 H1A         0.3870    0.6890   -1.1320 hc        1 925      0.054283
     40 H1B         0.5480   -0.0950    0.4980 hc        1 925      0.054283
     41 HO1         2.5150    2.1960   -0.4580 ho        1 925      0.433000
     42 HN2         4.0300   -3.6170    1.3140 hn        1 925      0.452800
     43 H3          2.0540   -1.9380    0.7940 hc        1 925      0.071450
     44 H3A         1.7620   -2.7620   -0.8020 hc        1 925      0.071450
     45 HO3         8.6870    0.2820   -2.7440 ho        1 925      0.426000
     46 H4          4.1840   -2.4770   -1.4260 hx        1 925      0.114700
     47 H5          4.4270   -1.2010    1.4160 hc        1 925      0.071450
     48 H5A         5.7960   -1.5270    0.2640 hc        1 925      0.071450
     49 HN6        12.7890   -3.7270   -2.9790 hn        1 925      0.437800
     50 H7          6.3200    0.1000   -1.5220 hc        1 925      0.054283
     51 H7A         4.9600    1.0670   -2.2350 hc        1 925      0.054283
     52 H7B         4.9390   -0.7410   -2.3370 hc        1 925      0.054283
     53 H8          5.1150    2.1410    0.0880 hc        1 925      0.054283
     54 H8A         6.2530    0.8560    0.6800 hc        1 925      0.054283
     55 H8B         4.7000    1.1740    1.5680 hc        1 925      0.054283
     56 H11         3.7430   -5.9790   -1.3780 ha        1 925      0.130000
     57 H12         4.1140   -6.9390   -3.6280 ha        1 925      0.164000
     58 H13         6.1750   -6.3960   -4.9150 ha        1 925      0.169000
     59 H15         7.5610   -3.9070   -1.6380 ha        1 925      0.182000
     60 H17         7.6090   -5.2880   -6.2810 ha        1 925      0.185000
     61 H19        12.1260   -3.7640   -7.8940 h4        1 925      0.050100
     62 H20        13.1840   -2.9660   -5.7620 ha        1 925      0.182000
     63 H23        12.4300   -3.4430   -0.6690 ha        1 925      0.142000
     64 H24        11.2360   -2.2350    1.1230 ha        1 925      0.145000
     65 H25         9.4430   -0.5720    0.5700 ha        1 925      0.150000
     66 H27        10.0860   -1.2920   -3.6530 ha        1 925      0.143000
     67 H28         1.3010   -1.4130   -2.8160 hc        1 925      0.054283
     68 H28A        3.1060   -1.3120   -2.8100 hc        1 925      0.054283
     69 H28B        2.1180    0.1980   -2.9730 hc        1 925      0.054283
     70 H22         3.3840   -4.3640   -0.0330 hn        1 925      0.452800
@<TRIPOS>BOND
     1    1    4 1   
     2    1   38 1   
     3    1   39 1   
     4    1   40 1   
     5    2    3 1   
     6    2    4 1   
     7    2   14 1   
     8    3   41 1   
     9    4    7 1   
    10    4   37 1   
    11    5   10 1   
    12    5   18 1   
    13    5   42 1   
    14    5   70 1   
    15    6   18 2   
    16    7   10 1   
    17    7   43 1   
    18    7   44 1   
    19    8   27 1   
    20    8   28 2   
    21    9   35 1   
    22    9   45 1   
    23   10   12 1   
    24   10   46 1   
    25   11   13 1   
    26   11   27 1   
    27   11   30 1   
    28   12   14 1   
    29   12   47 1   
    30   12   48 1   
    31   13   25 2   
    32   14   16 1   
    33   14   17 1   
    34   15   30 1   
    35   15   31 1   
    36   15   49 1   
    37   16   50 1   
    38   16   51 1   
    39   16   52 1   
    40   17   53 1   
    41   17   54 1   
    42   17   55 1   
    43   18   19 1   
    44   19   20 ar  
    45   19   24 ar  
    46   20   21 ar  
    47   20   56 1   
    48   21   22 ar  
    49   21   57 1   
    50   22   23 ar  
    51   22   58 1   
    52   23   24 ar  
    53   23   25 1   
    54   24   59 1   
    55   25   26 1   
    56   26   27 2   
    57   26   60 1   
    58   28   29 1   
    59   28   61 1   
    60   29   30 2   
    61   29   62 1   
    62   31   32 ar  
    63   31   36 ar  
    64   32   33 ar  
    65   32   63 1   
    66   33   34 ar  
    67   33   64 1   
    68   34   35 ar  
    69   34   65 1   
    70   35   36 ar  
    71   36   66 1   
    72   37   67 1   
    73   37   68 1   
    74   37   69 1   
@<TRIPOS>SUBSTRUCTURE
     1 925         1 TEMP              0 ****  ****    0 ROOT
