@<TRIPOS>MOLECULE
925
   69    64     1     0     0
SMALL
bcc


@<TRIPOS>ATOM
      1 C1         -2.5550   -5.8250    0.4770 c3        1 925     -0.218000
      2 N1         -0.4340   -6.9810    0.2180 n3        1 925     -0.115000
      3 O1         -1.0310   -8.0370    0.8510 oh        1 925     -0.271000
      4 C2         -1.4560   -6.1960   -0.4960 c3        1 925      0.018500
      5 N2          0.5300   -3.0100   -0.8210 n         1 925     -0.380000
      6 O2         -0.9140   -1.4540    0.0400 o         1 925     -0.364000
      7 C3         -0.8920   -4.9280   -1.1030 c3        1 925     -0.166000
      8 N3          3.8560    5.6150    0.3400 n1        1 925     -0.110500
      9 O3         -2.5590   10.4660    2.2460 oh        1 925     -0.248000
     10 C4         -0.1350   -4.1170   -0.1160 c3        1 925      0.022000
     11 N4          1.6040    5.0340   -0.1190 n1        1 925     -0.102000
     12 C5          0.8910   -4.9160    0.5980 c3        1 925     -0.166000
     13 N5          0.8880    3.9360   -0.5830 n1        1 925     -0.110500
     14 C6          0.3200   -6.1830    1.1990 c3        1 925      0.018500
     15 N6          0.2260    6.6240    1.2320 n3        1 925     -0.259000
     16 C7         -0.6020   -5.8120    2.3400 c3        1 925     -0.218000
     17 C8          1.4560   -7.0220    1.7410 c3        1 925     -0.218000
     18 C9          0.0460   -1.6760   -0.6710 c2        1 925      0.348000
     19 C10         0.7150   -0.5350   -1.4220 c2        1 925     -0.126000
     20 C11         1.0400   -0.6830   -2.7610 c2        1 925     -0.098000
     21 C12         1.6210    0.3690   -3.4550 c1        1 925     -0.142000
     22 C13         1.8760    1.5690   -2.8080 c1        1 925     -0.091000
     23 C14         1.5510    1.7180   -1.4690 c1        1 925     -0.021000
     24 C15         0.9710    0.6660   -0.7750 c1        1 925     -0.051000
     25 C16         1.7700    2.9330   -0.8320 c1        1 925     -0.004000
     26 C17         3.0300    3.3910   -0.5290 c1        1 925     -0.216000
     27 C18         2.9150    4.6970   -0.0870 c1        1 925     -0.004000
     28 C19         3.4700    6.8440    0.7240 c1        1 925     -0.148000
     29 C20         2.1440    7.1870    0.6930 c1        1 925     -0.148000
     30 C21         1.2120    6.2780    0.2700 c1        1 925      0.217000
     31 C22        -0.8330    7.5050    0.8800 c2        1 925      0.099000
     32 C23        -1.5750    7.2720   -0.2670 c2        1 925     -0.211000
     33 C24        -2.6560    8.0870   -0.5710 c1        1 925     -0.062000
     34 C25        -2.9940    9.1340    0.2720 c1        1 925     -0.236000
     35 C26        -2.2510    9.3670    1.4200 c2        1 925      0.109000
     36 C27        -1.1710    8.5530    1.7240 c2        1 925     -0.196000
     37 C28        -2.0450   -7.0470   -1.6000 c3        1 925     -0.218000
     38 H1         -2.4890   -6.3880    1.2760 hc        1 925      0.082167
     39 H1A        -3.4270   -5.9630    0.0520 hc        1 925      0.082167
     40 H1B        -2.4620   -4.8840    0.7320 hc        1 925      0.082167
     41 HO1        -0.9310   -8.7720    0.3600 ho        1 925      0.214000
     42 HN2         1.2530   -3.1750   -1.3530 hn        1 925      0.222000
     43 H3         -1.6290   -4.3910   -1.4550 hc        1 925      0.091250
     44 H3A        -0.2940   -5.1690   -1.8400 hc        1 925      0.091250
     45 HO3        -3.2840   10.2800    2.7280 ho        1 925      0.222000
     46 H4         -0.7610   -3.7480    0.5360 h1        1 925      0.135000
     47 H5          1.6010   -5.1560   -0.0310 hc        1 925      0.091250
     48 H5A         1.2740   -4.3710    1.3150 hc        1 925      0.091250
     49 HN6         0.2710    6.2790    2.0760 hn        1 925      0.253000
     50 H7         -0.0760   -5.6830    3.1570 hc        1 925      0.082167
     51 H7A        -1.0730   -4.9820    2.1210 hc        1 925      0.082167
     52 H7B        -1.2540   -6.5300    2.4810 hc        1 925      0.082167
     53 H8          2.1120   -6.4410    2.1790 hc        1 925      0.082167
     54 H8A         1.1050   -7.6670    2.3910 hc        1 925      0.082167
     55 H8B         1.8880   -7.5040    1.0040 hc        1 925      0.082167
     56 H11         0.8600   -1.5270   -3.2160 ha        1 925      0.137000
     57 H12         1.8490    0.2640   -4.3980 ha        1 925      0.138000
     58 H13         2.2850    2.3100   -3.2970 ha        1 925      0.142000
     59 H15         0.7420    0.7710    0.1690 ha        1 925      0.168000
     60 H17         3.8600    2.8830   -0.6110 DU        1 925      0.181000
     61 H19         4.1350    7.4920    1.0260 ha        1 925      0.171000
     62 H20         1.8630    8.0800    0.9720 ha        1 925      0.171000
     63 H23        -1.3370    6.5350   -0.8610 ha        1 925      0.146000
     64 H24        -3.1790    7.9230   -1.3800 ha        1 925      0.137000
     65 H25        -3.7540    9.7070    0.0570 ha        1 925      0.138000
     66 H27        -0.6640    8.7010    2.5450 ha        1 925      0.160000
     67 H28        -2.4180   -6.4670   -2.2960 hc        1 925      0.082167
     68 H28A       -1.3430   -7.6120   -1.9870 hc        1 925      0.082167
     69 H28B       -2.7540   -7.6140   -1.2320 hc        1 925      0.082167
@<TRIPOS>BOND
     1    1    4 1   
     2    1   38 1   
     3    1   39 1   
     4    1   40 1   
     5    2    3 1   
     6    2    4 1   
     7    2   14 1   
     8    3   41 1   
     9    4    7 1   
    10    4   37 1   
    11    5   10 1   
    12    5   18 1   
    13    5   42 1   
    14    6   18 1   
    15    7   10 1   
    16    7   43 1   
    17    7   44 1   
    18    8   27 1   
    19    9   35 1   
    20    9   45 1   
    21   10   12 1   
    22   10   46 1   
    23   11   30 1   
    24   12   14 1   
    25   12   47 1   
    26   12   48 1   
    27   13   25 1   
    28   14   16 1   
    29   14   17 1   
    30   15   30 1   
    31   15   31 1   
    32   15   49 1   
    33   16   50 1   
    34   16   51 1   
    35   16   52 1   
    36   17   53 1   
    37   17   54 1   
    38   17   55 1   
    39   18   19 1   
    40   19   20 1   
    41   19   24 1   
    42   20   21 1   
    43   20   56 1   
    44   21   57 1   
    45   22   23 1   
    46   22   58 1   
    47   24   59 1   
    48   25   26 1   
    49   26   27 1   
    50   28   29 1   
    51   28   61 1   
    52   29   62 1   
    53   31   32 1   
    54   31   36 1   
    55   32   33 1   
    56   32   63 1   
    57   33   64 1   
    58   34   35 1   
    59   34   65 1   
    60   35   36 1   
    61   36   66 1   
    62   37   67 1   
    63   37   68 1   
    64   37   69 1   
@<TRIPOS>SUBSTRUCTURE
     1 925         1 TEMP              0 ****  ****    0 ROOT
