@<TRIPOS>MOLECULE
926
   33    35     1     0     0
SMALL
bcc


@<TRIPOS>ATOM
      1 O13         0.1560    1.5320    1.2690 o         1 926     -0.647500
      2 C3          1.3060    1.2040    0.9140 c         1 926      0.684700
      3 N2          2.1660    0.6610    1.8870 n         1 926     -0.436100
      4 C1          3.4580    0.2710    1.5800 cc        1 926      0.117400
      5 C6          3.9490    0.4060    0.2970 cd        1 926     -0.238000
      6 C5          3.1140    0.9510   -0.7240 cd        1 926     -0.039000
      7 C4          1.8430    1.3370   -0.4400 cc        1 926     -0.255200
      8 C10         4.2970   -0.2930    2.6540 ca        1 926     -0.068800
      9 C11         3.7850   -1.2470    3.5390 ca        1 926     -0.120000
     10 C12         4.6080   -1.7780    4.5330 ca        1 926     -0.116000
     11 C7          5.9290   -1.3610    4.6500 ca        1 926     -0.112000
     12 C8          6.4490   -0.4000    3.7670 ca        1 926     -0.029100
     13 C9          5.6280    0.1270    2.7700 ca        1 926     -0.096000
     14 S14         8.0730   -0.0020    4.0480 ss        1 926     -0.120200
     15 C15         8.4840    1.1680    2.8970 cc        1 926      0.384800
     16 N19         8.6500    2.5400    3.2060 na        1 926     -0.157900
     17 C18         9.0730    3.1710    2.0470 cc        1 926     -0.229600
     18 C20         8.4890    3.1560    4.4840 c3        1 926      0.005600
     19 N16         8.7750    0.9490    1.5830 nd        1 926     -0.607000
     20 C17         9.1350    2.1700    1.0480 cd        1 926      0.280200
     21 H1          4.9720    0.0890    0.0580 ha        1 926      0.159000
     22 H2          3.5260    1.0470   -1.7410 ha        1 926      0.141000
     23 H3          1.1570    1.7610   -1.1850 ha        1 926      0.162000
     24 H5          2.7460   -1.5960    3.4480 ha        1 926      0.140000
     25 H6          4.2090   -2.5350    5.2260 ha        1 926      0.140000
     26 H7          6.5750   -1.7870    5.4340 ha        1 926      0.143000
     27 H8          6.0230    0.8760    2.0630 ha        1 926      0.156000
     28 H9          9.2930    4.2370    2.0020 h4        1 926      0.182000
     29 H10         8.0660    2.4070    5.2080 h1        1 926      0.065033
     30 H11         9.4810    3.5180    4.8660 h1        1 926      0.065033
     31 H12         7.7880    4.0290    4.3970 h1        1 926      0.065033
     32 H13         9.4190    2.2810    0.0030 h4        1 926      0.048100
     33 H14         1.8330    0.5620    2.8210 hn        1 926      0.332500
@<TRIPOS>BOND
     1    1    2 2   
     2    2    3 1   
     3    2    7 1   
     4    3    4 1   
     5    3   33 1   
     6    4    5 2   
     7    4    8 1   
     8    5    6 1   
     9    5   21 1   
    10    6    7 2   
    11    6   22 1   
    12    7   23 1   
    13    8    9 ar  
    14    8   13 ar  
    15    9   10 ar  
    16    9   24 1   
    17   10   11 ar  
    18   10   25 1   
    19   11   12 ar  
    20   11   26 1   
    21   12   13 ar  
    22   12   14 1   
    23   13   27 1   
    24   14   15 1   
    25   15   16 1   
    26   15   19 2   
    27   16   17 1   
    28   16   18 1   
    29   17   20 2   
    30   17   28 1   
    31   18   29 1   
    32   18   30 1   
    33   18   31 1   
    34   19   20 1   
    35   20   32 1   
@<TRIPOS>SUBSTRUCTURE
     1 926         1 TEMP              0 ****  ****    0 ROOT
