@<TRIPOS>MOLECULE
926
   33    35     1     0     0
SMALL
bcc


@<TRIPOS>ATOM
      1 O13         0.1110    1.5020    1.4930 o         1 926     -0.647500
      2 C3          1.2490    1.1950    1.0850 c         1 926      0.684700
      3 N2          2.1520    0.6370    2.0110 ns        1 926     -0.436100
      4 C1          3.4340    0.2680    1.6450 cc        1 926      0.117400
      5 C6          3.8740    0.4410    0.3470 cd        1 926     -0.238000
      6 C5          2.9940    1.0010   -0.6260 cd        1 926     -0.039000
      7 C4          1.7320    1.3670   -0.2840 cc        1 926     -0.255200
      8 C10         4.3200   -0.3120    2.6710 ca        1 926     -0.068800
      9 C11         3.8520   -1.2930    3.5520 ca        1 926     -0.120000
     10 C12         4.7180   -1.8400    4.5000 ca        1 926     -0.116000
     11 C7          6.0390   -1.4120    4.5750 ca        1 926     -0.112000
     12 C8          6.5150   -0.4240    3.6970 ca        1 926     -0.029100
     13 C9          5.6510    0.1190    2.7460 ca        1 926     -0.096000
     14 S14         8.1450   -0.0150    3.9250 ss        1 926     -0.120200
     15 C15         8.4990    1.1880    2.7900 cc        1 926      0.384800
     16 N19         8.6640    2.5530    3.1270 na        1 926     -0.157900
     17 C18         9.0340    3.2170    1.9690 cc        1 926     -0.229600
     18 C20         8.5470    3.1340    4.4250 c3        1 926      0.005600
     19 N16         8.7400    1.0050    1.4600 nd        1 926     -0.607000
     20 C17         9.0670    2.2430    0.9430 cd        1 926      0.280200
     21 H1          4.8900    0.1400    0.0610 ha        1 926      0.159000
     22 H2          3.3660    1.1260   -1.6560 ha        1 926      0.141000
     23 H3          1.0140    1.8010   -0.9920 ha        1 926      0.162000
     24 H5          2.8130   -1.6510    3.4920 ha        1 926      0.140000
     25 H6          4.3540   -2.6170    5.1880 ha        1 926      0.140000
     26 H7          6.7190   -1.8500    5.3230 ha        1 926      0.143000
     27 H8          6.0100    0.8880    2.0430 ha        1 926      0.156000
     28 H9          9.2420    4.2860    1.9430 h4        1 926      0.182000
     29 H10         8.1590    2.3630    5.1460 h1        1 926      0.065033
     30 H11         9.5500    3.4980    4.7780 h1        1 926      0.065033
     31 H12         7.8350    4.0030    4.3890 h1        1 926      0.065033
     32 H13         9.3090    2.3830   -0.1100 h4        1 926      0.048100
     33 H14         1.8570    0.5120    2.9540 hn        1 926      0.332500
@<TRIPOS>BOND
     1    1    2 2   
     2    2    3 1   
     3    2    7 1   
     4    3    4 1   
     5    3   33 1   
     6    4    5 2   
     7    4    8 1   
     8    5    6 1   
     9    5   21 1   
    10    6    7 2   
    11    6   22 1   
    12    7   23 1   
    13    8    9 ar  
    14    8   13 ar  
    15    9   10 ar  
    16    9   24 1   
    17   10   11 ar  
    18   10   25 1   
    19   11   12 ar  
    20   11   26 1   
    21   12   13 ar  
    22   12   14 1   
    23   13   27 1   
    24   14   15 1   
    25   15   16 1   
    26   15   19 2   
    27   16   17 1   
    28   16   18 1   
    29   17   20 2   
    30   17   28 1   
    31   18   29 1   
    32   18   30 1   
    33   18   31 1   
    34   19   20 1   
    35   20   32 1   
@<TRIPOS>SUBSTRUCTURE
     1 926         1 TEMP              0 ****  ****    0 ROOT
