@<TRIPOS>MOLECULE
926
   33    35     1     0     0
SMALL
bcc


@<TRIPOS>ATOM
      1 O13         0.1120    1.6260    1.5910 o         1 926     -0.647500
      2 C3          1.2340    1.2890    1.1630 c         1 926      0.684700
      3 N2          2.1410    0.7150    2.0750 n         1 926     -0.436100
      4 C1          3.4070    0.3140    1.6880 cc        1 926      0.117400
      5 C6          3.8250    0.4670    0.3810 cd        1 926     -0.238000
      6 C5          2.9410    1.0420   -0.5800 cd        1 926     -0.039000
      7 C4          1.6940    1.4400   -0.2160 cc        1 926     -0.255200
      8 C10         4.2980   -0.2820    2.7000 ca        1 926     -0.068800
      9 C11         3.8240   -1.2460    3.5960 ca        1 926     -0.120000
     10 C12         4.6950   -1.8080    4.5310 ca        1 926     -0.116000
     11 C7          6.0260   -1.4110    4.5790 ca        1 926     -0.112000
     12 C8          6.5090   -0.4400    3.6860 ca        1 926     -0.029100
     13 C9          5.6400    0.1180    2.7480 ca        1 926     -0.096000
     14 S14         8.1520   -0.0690    3.8800 ss        1 926     -0.120200
     15 C15         8.5120    1.1200    2.7320 cc        1 926      0.384800
     16 N19         8.7150    2.4830    3.0590 na        1 926     -0.157900
     17 C18         9.0790    3.1330    1.8900 cc        1 926     -0.229600
     18 C20         8.6350    3.0730    4.3560 c3        1 926      0.005600
     19 N16         8.7250    0.9250    1.3990 nd        1 926     -0.607000
     20 C17         9.0700    2.1520    0.8700 cd        1 926      0.280200
     21 H1          4.8280    0.1400    0.0770 ha        1 926      0.159000
     22 H2          3.2960    1.1510   -1.6170 ha        1 926      0.141000
     23 H3          0.9730    1.8880   -0.9130 ha        1 926      0.162000
     24 H5          2.7760   -1.5790    3.5590 ha        1 926      0.140000
     25 H6          4.3250   -2.5720    5.2310 ha        1 926      0.140000
     26 H7          6.7100   -1.8600    5.3170 ha        1 926      0.143000
     27 H8          6.0040    0.8740    2.0330 ha        1 926      0.156000
     28 H9          9.3110    4.1960    1.8550 h4        1 926      0.182000
     29 H10         7.9430    3.9570    4.3280 h1        1 926      0.065033
     30 H11         9.6520    3.4160    4.6870 h1        1 926      0.065033
     31 H12         8.2450    2.3140    5.0880 h1        1 926      0.065033
     32 H13         9.2960    2.2820   -0.1890 h4        1 926      0.048100
     33 H14         1.8610    0.6030    3.0250 hn        1 926      0.332500
@<TRIPOS>BOND
     1    1    2 2   
     2    2    3 1   
     3    2    7 1   
     4    3    4 1   
     5    3   33 1   
     6    4    5 2   
     7    4    8 1   
     8    5    6 1   
     9    5   21 1   
    10    6    7 2   
    11    6   22 1   
    12    7   23 1   
    13    8    9 ar  
    14    8   13 ar  
    15    9   10 ar  
    16    9   24 1   
    17   10   11 ar  
    18   10   25 1   
    19   11   12 ar  
    20   11   26 1   
    21   12   13 ar  
    22   12   14 1   
    23   13   27 1   
    24   14   15 1   
    25   15   16 1   
    26   15   19 2   
    27   16   17 1   
    28   16   18 1   
    29   17   20 2   
    30   17   28 1   
    31   18   29 1   
    32   18   30 1   
    33   18   31 1   
    34   19   20 1   
    35   20   32 1   
@<TRIPOS>SUBSTRUCTURE
     1 926         1 TEMP              0 ****  ****    0 ROOT
