@<TRIPOS>MOLECULE
926
   33    35     1     0     0
SMALL
bcc


@<TRIPOS>ATOM
      1 O13        -4.7790   -0.4860    2.4000 o         1 926     -0.647500
      2 C3         -4.0320    0.0950    1.5880 c         1 926      0.684700
      3 N2         -2.9960   -0.6530    0.9940 n         1 926     -0.436100
      4 C1         -2.1210   -0.0880    0.0840 cc        1 926      0.117400
      5 C6         -2.2340    1.2410   -0.2720 cd        1 926     -0.238000
      6 C5         -3.2680    2.0380    0.3020 cd        1 926     -0.039000
      7 C4         -4.1380    1.5000    1.1960 cc        1 926     -0.255200
      8 C10        -1.0650   -0.9380   -0.4970 ca        1 926     -0.068800
      9 C11        -1.3520   -2.2270   -0.9570 ca        1 926     -0.120000
     10 C12        -0.3370   -3.0010   -1.5210 ca        1 926     -0.116000
     11 C7          0.9560   -2.5000   -1.6230 ca        1 926     -0.112000
     12 C8          1.2530   -1.2080   -1.1590 ca        1 926     -0.029100
     13 C9          0.2380   -0.4310   -0.6000 ca        1 926     -0.096000
     14 S14         2.8750   -0.7520   -1.3560 ss        1 926     -0.120200
     15 C15         3.0120    0.8110   -0.7230 cc        1 926      0.384800
     16 N19         3.6380    1.0990    0.5130 na        1 926     -0.157900
     17 C18         3.6450    2.4780    0.6560 cc        1 926     -0.229600
     18 C20         4.2220    0.1610    1.4160 c3        1 926      0.005600
     19 N16         2.6230    1.9700   -1.3280 nd        1 926     -0.607000
     20 C17         3.0030    3.0000   -0.4920 cd        1 926      0.280200
     21 H1         -1.5410    1.6810   -1.0000 ha        1 926      0.159000
     22 H2         -3.3420    3.0950    0.0010 ha        1 926      0.141000
     23 H3         -4.9510    2.0660    1.6680 ha        1 926      0.162000
     24 H5         -2.3740   -2.6300   -0.8950 ha        1 926      0.140000
     25 H6         -0.5620   -4.0130   -1.8910 ha        1 926      0.140000
     26 H7          1.7520   -3.1140   -2.0730 ha        1 926      0.143000
     27 H8          0.4520    0.5880   -0.2390 ha        1 926      0.156000
     28 H9          4.0840    2.9790    1.5170 h4        1 926      0.182000
     29 H10         5.3370    0.3000    1.4510 h1        1 926      0.065033
     30 H11         3.8030    0.3150    2.4470 h1        1 926      0.065033
     31 H12         3.9910   -0.8840    1.0700 h1        1 926      0.065033
     32 H13         2.8110    4.0440   -0.7370 h4        1 926      0.048100
     33 H14        -2.8930   -1.6120    1.2440 hn        1 926      0.332500
@<TRIPOS>BOND
     1    1    2 2   
     2    2    3 1   
     3    2    7 1   
     4    3    4 1   
     5    3   33 1   
     6    4    5 2   
     7    4    8 1   
     8    5    6 1   
     9    5   21 1   
    10    6    7 2   
    11    6   22 1   
    12    7   23 1   
    13    8    9 ar  
    14    8   13 ar  
    15    9   10 ar  
    16    9   24 1   
    17   10   11 ar  
    18   10   25 1   
    19   11   12 ar  
    20   11   26 1   
    21   12   13 ar  
    22   12   14 1   
    23   13   27 1   
    24   14   15 1   
    25   15   16 1   
    26   15   19 2   
    27   16   17 1   
    28   16   18 1   
    29   17   20 2   
    30   17   28 1   
    31   18   29 1   
    32   18   30 1   
    33   18   31 1   
    34   19   20 1   
    35   20   32 1   
@<TRIPOS>SUBSTRUCTURE
     1 926         1 TEMP              0 ****  ****    0 ROOT
