@<TRIPOS>MOLECULE
926
   33    28     1     0     0
SMALL
bcc


@<TRIPOS>ATOM
      1 O13        -3.2660   -3.9590   -3.7900 o         1 926     -0.370000
      2 C3         -3.1330   -2.8170   -3.3740 c1        1 926      0.323000
      3 N2         -2.3560   -2.5660   -2.1460 n3        1 926     -0.280000
      4 C1         -2.3190   -1.2160   -1.5580 c2        1 926      0.106000
      5 C6         -3.0270   -0.0560   -2.2590 c1        1 926     -0.241000
      6 C5         -3.8010   -0.3030   -3.4930 c1        1 926     -0.137000
      7 C4         -3.8390   -1.6640   -4.0790 c1        1 926     -0.137000
      8 C10        -1.5230   -0.9610   -0.2470 c2        1 926     -0.058000
      9 C11        -2.1370   -1.1340    0.9770 c2        1 926     -0.121000
     10 C12        -1.4040   -0.9690    2.1530 c1        1 926     -0.115000
     11 C7         -0.0660   -0.6330    2.0930 c1        1 926     -0.106000
     12 C8          0.5490   -0.4590    0.8660 c1        1 926     -0.256000
     13 C9         -0.1810   -0.6230   -0.3070 c2        1 926     -0.099000
     14 S14         2.2860   -0.1450    0.7890 s         1 926      0.433000
     15 C15         2.6300    1.4300    1.4960 c2        1 926     -0.293000
     16 N19         3.8530    1.9060    1.8100 n2        1 926     -0.097000
     17 C18         3.7140    3.1870    2.2000 c1        1 926     -0.163000
     18 C20         5.1010    1.1690    1.7300 c2        1 926     -0.093000
     19 N16         1.7240    2.4330    1.6950 n2        1 926     -0.097000
     20 C17         2.3870    3.5100    2.1260 c1        1 926     -0.163000
     21 H1         -3.0010    0.8370   -1.8710 ha        1 926      0.154000
     22 H2         -4.2530    0.4360   -3.9430 ha        1 926      0.151500
     23 H3         -4.3540   -1.8310   -4.9020 ha        1 926      0.151500
     24 H5         -3.0790   -1.3700    1.0200 ha        1 926      0.140000
     25 H6         -1.8420   -1.0930    3.0270 ha        1 926      0.141000
     26 H7          0.4510   -0.5170    2.9240 ha        1 926      0.151000
     27 H8          0.2570   -0.4990   -1.1810 ha        1 926      0.149000
     28 H9          4.4330    3.7810    2.4840 DU        1 926      0.183000
     29 H10         5.8370    1.7480    1.9990 ha        1 926      0.104667
     30 H11         5.0600    0.3870    2.3290 ha        1 926      0.104667
     31 H12         5.2440    0.8660    0.8040 ha        1 926      0.104667
     32 H13         1.9880    4.3850    2.3520 DU        1 926      0.183000
     33 H14        -1.9310   -3.2610   -1.7250 hn        1 926      0.246000
@<TRIPOS>BOND
     1    1    2 1   
     2    2    3 1   
     3    3    4 1   
     4    3   33 1   
     5    4    5 1   
     6    4    8 1   
     7    5   21 1   
     8    6    7 1   
     9    6   22 1   
    10    7   23 1   
    11    8    9 1   
    12    8   13 1   
    13    9   10 1   
    14    9   24 1   
    15   10   25 1   
    16   11   12 1   
    17   11   26 1   
    18   12   13 1   
    19   13   27 1   
    20   14   15 1   
    21   15   16 1   
    22   15   19 1   
    23   16   17 1   
    24   17   20 1   
    25   18   29 1   
    26   18   30 1   
    27   18   31 1   
    28   19   20 1   
@<TRIPOS>SUBSTRUCTURE
     1 926         1 TEMP              0 ****  ****    0 ROOT
