@<TRIPOS>MOLECULE
928
   22    23     1     0     0
SMALL
bcc


@<TRIPOS>ATOM
      1 N15        -1.4310   -0.3490   -2.1390 n1        1 928     -0.391800
      2 C14        -0.7850   -0.2120   -1.1800 cg        1 928      0.279800
      3 C4         -0.0080   -0.0450   -0.0350 cc        1 928     -0.281300
      4 C3          1.4270    0.1350    0.0450 cc        1 928      0.379200
      5 N2          1.8230    0.2600    1.3250 nd        1 928     -0.504800
      6 C5         -0.4570   -0.0220    1.3180 cd        1 928      0.204300
      7 N13        -1.7250   -0.2460    1.7960 nh        1 928     -0.820200
      8 N1          0.7080    0.2170    2.1010 na        1 928      0.112300
      9 C6          0.7490    0.1390    3.5220 ca        1 928      0.019800
     10 C11         1.6600   -0.7200    4.1700 ca        1 928     -0.122000
     11 C10         1.6910   -0.7790    5.5600 ca        1 928     -0.113500
     12 C9          0.8200    0.0110    6.3150 ca        1 928      0.017400
     13 CL12        0.8540   -0.0740    8.0100 cl        1 928     -0.078400
     14 C8         -0.0770    0.8760    5.6810 ca        1 928     -0.113500
     15 C7         -0.1110    0.9490    4.2920 ca        1 928     -0.122000
     16 H3          2.1300    0.1730   -0.7910 h4        1 928      0.056100
     17 HN13       -1.9130   -0.0240    2.7470 hn        1 928      0.429300
     18 HN1A       -2.4570   -0.0660    1.1460 hn        1 928      0.429300
     19 H11         2.3570   -1.3410    3.5850 ha        1 928      0.153500
     20 H10         2.4060   -1.4520    6.0590 ha        1 928      0.155500
     21 H8         -0.7530    1.5100    6.2770 ha        1 928      0.155500
     22 H7         -0.7960    1.6640    3.8110 ha        1 928      0.153500
@<TRIPOS>BOND
     1    1    2 3   
     2    2    3 1   
     3    3    4 1   
     4    3    6 2   
     5    4    5 2   
     6    4   16 1   
     7    5    8 1   
     8    6    7 1   
     9    6    8 1   
    10    7   17 1   
    11    7   18 1   
    12    8    9 1   
    13    9   10 ar  
    14    9   15 ar  
    15   10   11 ar  
    16   10   19 1   
    17   11   12 ar  
    18   11   20 1   
    19   12   13 1   
    20   12   14 ar  
    21   14   15 ar  
    22   14   21 1   
    23   15   22 1   
@<TRIPOS>SUBSTRUCTURE
     1 928         1 TEMP              0 ****  ****    0 ROOT
