@<TRIPOS>MOLECULE
928
   23    24     1     0     0
SMALL
bcc


@<TRIPOS>ATOM
      1 N15        -1.5340    0.0310   -2.1270 n1        1 928     -0.251800
      2 C14        -0.8580    0.0680   -1.1800 cg        1 928      0.196800
      3 C4         -0.0260    0.1160   -0.0560 cc        1 928     -0.075300
      4 C3          1.4000    0.3050   -0.0010 cc        1 928      0.360200
      5 N2          1.8250    0.2940    1.2950 nd        1 928     -0.400800
      6 C5         -0.4140   -0.0110    1.3060 cd        1 928     -0.124700
      7 N13        -1.7360   -0.2540    1.8260 n4        1 928     -0.668000
      8 N1          0.7660    0.1100    2.0790 na        1 928      0.227300
      9 C6          0.7890    0.0510    3.5110 ca        1 928     -0.075200
     10 C11         1.6170   -0.8830    4.1600 ca        1 928     -0.110500
     11 C10         1.6310   -0.9330    5.5530 ca        1 928     -0.108000
     12 C9          0.8350   -0.0570    6.2980 ca        1 928      0.046400
     13 CL12        0.8510   -0.1260    7.9830 cl        1 928     -0.013400
     14 C8          0.0300    0.8910    5.6480 ca        1 928     -0.108000
     15 C7          0.0090    0.9560    4.2610 ca        1 928     -0.110500
     16 H3          2.0930    0.4450   -0.8400 h4        1 928      0.099100
     17 HN13       -2.4130    0.2760    1.2590 hn        1 928      0.478467
     18 HN1A       -1.8020    0.0420    2.8120 hn        1 928      0.478467
     19 H11         2.2660   -1.5650    3.5850 ha        1 928      0.161000
     20 H10         2.2840   -1.6640    6.0620 ha        1 928      0.179000
     21 H8         -0.5730    1.6030    6.2380 ha        1 928      0.179000
     22 H7         -0.5720    1.7530    3.7700 ha        1 928      0.161000
     23 H133       -1.9500   -1.2600    1.7590 hn        1 928      0.478467
@<TRIPOS>BOND
     1    1    2 3   
     2    2    3 1   
     3    3    4 1   
     4    3    6 2   
     5    4    5 2   
     6    4   16 1   
     7    5    8 1   
     8    6    7 1   
     9    6    8 1   
    10    7   17 1   
    11    7   18 1   
    12    7   23 1   
    13    8    9 1   
    14    9   10 ar  
    15    9   15 ar  
    16   10   11 ar  
    17   10   19 1   
    18   11   12 ar  
    19   11   20 1   
    20   12   13 1   
    21   12   14 ar  
    22   14   15 ar  
    23   14   21 1   
    24   15   22 1   
@<TRIPOS>SUBSTRUCTURE
     1 928         1 TEMP              0 ****  ****    0 ROOT
