@<TRIPOS>MOLECULE
928
   22    23     1     0     0
SMALL
bcc


@<TRIPOS>ATOM
      1 N15        -5.6160   -0.9110   -0.2100 n1        1 928     -0.388800
      2 C14        -4.5590   -0.4360   -0.0870 cg        1 928      0.277800
      3 C4         -3.2980    0.1380    0.0590 cc        1 928     -0.275300
      4 C3         -2.9810    1.5010    0.4300 cc        1 928      0.375200
      5 N2         -1.6480    1.6880    0.4640 nd        1 928     -0.501800
      6 C5         -2.0340   -0.4960   -0.1270 cd        1 928      0.189300
      7 N13        -1.7760   -1.8190   -0.4270 nh        1 928     -0.805200
      8 N1         -1.0640    0.5100    0.1290 na        1 928      0.118300
      9 C6          0.3450    0.3140    0.1000 ca        1 928      0.012800
     10 C11         1.1720    1.2640   -0.5350 ca        1 928     -0.120000
     11 C10         2.5490    1.0670   -0.5790 ca        1 928     -0.116500
     12 C9          3.1130   -0.0700    0.0070 ca        1 928      0.017400
     13 CL12        4.7920   -0.3110   -0.0610 cl        1 928     -0.079400
     14 C8          2.3020   -1.0060    0.6550 ca        1 928     -0.116500
     15 C7          0.9250   -0.8150    0.7130 ca        1 928     -0.120000
     16 H3         -3.6900    2.3000    0.6600 h4        1 928      0.056100
     17 HN13       -2.5440   -2.2840   -0.8620 hn        1 928      0.420800
     18 HN1A       -0.8840   -2.0170   -0.8260 hn        1 928      0.420800
     19 H11         0.7390    2.1690   -0.9910 ha        1 928      0.161500
     20 H10         3.1890    1.8130   -1.0760 ha        1 928      0.155500
     21 H8          2.7480   -1.8930    1.1320 ha        1 928      0.155500
     22 H7          0.3060   -1.5430    1.2620 ha        1 928      0.161500
@<TRIPOS>BOND
     1    1    2 3   
     2    2    3 1   
     3    3    4 1   
     4    3    6 2   
     5    4    5 2   
     6    4   16 1   
     7    5    8 1   
     8    6    7 1   
     9    6    8 1   
    10    7   17 1   
    11    7   18 1   
    12    8    9 1   
    13    9   10 ar  
    14    9   15 ar  
    15   10   11 ar  
    16   10   19 1   
    17   11   12 ar  
    18   11   20 1   
    19   12   13 1   
    20   12   14 ar  
    21   14   15 ar  
    22   14   21 1   
    23   15   22 1   
@<TRIPOS>SUBSTRUCTURE
     1 928         1 TEMP              0 ****  ****    0 ROOT
