@<TRIPOS>MOLECULE
928
   22    23     1     0     0
SMALL
bcc


@<TRIPOS>ATOM
      1 N15        -1.4290   -0.3750   -2.1780 n1        1 928     -0.391800
      2 C14        -0.7870   -0.2140   -1.2190 cg        1 928      0.279800
      3 C4         -0.0150   -0.0180   -0.0760 cc        1 928     -0.281300
      4 C3          1.4100    0.2340    0.0010 cc        1 928      0.379200
      5 N2          1.8030    0.3670    1.2810 nd        1 928     -0.504800
      6 C5         -0.4600   -0.0290    1.2790 cd        1 928      0.204300
      7 N13        -1.7130   -0.3210    1.7590 nv        1 928     -0.820200
      8 N1          0.6950    0.2610    2.0600 na        1 928      0.112300
      9 C6          0.7450    0.1750    3.4800 ca        1 928      0.019800
     10 C11         1.7000   -0.6420    4.1180 ca        1 928     -0.122000
     11 C10         1.7390   -0.7110    5.5080 ca        1 928     -0.113500
     12 C9          0.8320    0.0290    6.2720 ca        1 928      0.017400
     13 Cl12        0.8770   -0.0670    7.9660 cl        1 928     -0.078400
     14 C8         -0.1100    0.8530    5.6480 ca        1 928     -0.113500
     15 C7         -0.1510    0.9350    4.2600 ca        1 928     -0.122000
     16 H3          2.1060    0.3140   -0.8370 h4        1 928      0.056100
     17 HN13       -2.4550   -0.1720    1.1130 hn        1 928      0.429300
     18 HN1A       -1.9090   -0.1160    2.7120 hn        1 928      0.429300
     19 H11         2.4250   -1.2240    3.5260 ha        1 928      0.153500
     20 H10         2.4890   -1.3510    6.0000 ha        1 928      0.155500
     21 H8         -0.8140    1.4470    6.2500 ha        1 928      0.155500
     22 H7         -0.8740    1.6180    3.7860 ha        1 928      0.153500
@<TRIPOS>BOND
     1    1    2 3   
     2    2    3 1   
     3    3    4 1   
     4    3    6 2   
     5    4    5 2   
     6    4   16 1   
     7    5    8 1   
     8    6    7 1   
     9    6    8 1   
    10    7   17 1   
    11    7   18 1   
    12    8    9 1   
    13    9   10 ar  
    14    9   15 ar  
    15   10   11 ar  
    16   10   19 1   
    17   11   12 ar  
    18   11   20 1   
    19   12   13 1   
    20   12   14 ar  
    21   14   15 ar  
    22   14   21 1   
    23   15   22 1   
@<TRIPOS>SUBSTRUCTURE
     1 928         1 TEMP              0 ****  ****    0 ROOT
