@<TRIPOS>MOLECULE
928
   22    17     1     0     0
SMALL
bcc


@<TRIPOS>ATOM
      1 N15        -1.7330    0.1980   -4.9850 n1        1 928     -0.063000
      2 C14        -1.0750    0.1230   -4.0560 c1        1 928     -0.052000
      3 C4         -0.2010    0.0220   -2.8250 c1        1 928     -0.206000
      4 C3          1.1630   -0.0170   -2.8100 c1        1 928     -0.090000
      5 N2          1.5650   -0.0550   -1.5220 n2        1 928     -0.069000
      6 C5         -0.6370    0.0090   -1.5310 c1        1 928      0.132000
      7 N13        -1.9910   -0.0020   -1.1070 n2        1 928     -0.314000
      8 N1          0.4470   -0.0380   -0.7280 n3        1 928     -0.121000
      9 C6          0.4330   -0.0290    0.6130 c1        1 928      0.058000
     10 C11         0.4620   -1.2240    1.3140 c1        1 928     -0.103000
     11 C10         0.5200   -1.2150    2.6990 c1        1 928     -0.117000
     12 C9          0.5490   -0.0090    3.3830 c1        1 928     -0.061000
     13 CL12        0.6600    0.0030    5.1230 cl        1 928     -0.001000
     14 C8          0.5200    1.1860    2.6820 c2        1 928     -0.116000
     15 C7          0.4620    1.1760    1.2970 c1        1 928     -0.137000
     16 H3          1.7460   -0.0190   -3.5930 DU        1 928      0.193000
     17 HN13       -2.1970   -0.2080   -0.2410 hn        1 928      0.216000
     18 HN1A       -2.6590    0.1770   -1.7060 hn        1 928      0.216000
     19 H11         0.4420   -2.0730    0.8330 ha        1 928      0.163000
     20 H10         0.5410   -2.0560    3.1920 ha        1 928      0.156000
     21 H8          0.5400    2.0340    3.1640 ha        1 928      0.155000
     22 H7          0.4420    2.0180    0.8040 ha        1 928      0.160000
@<TRIPOS>BOND
     1    1    2 1   
     2    3    4 1   
     3    3    6 1   
     4    4    5 1   
     5    5    8 1   
     6    6    8 1   
     7    7   17 1   
     8    7   18 1   
     9    8    9 1   
    10    9   10 1   
    11   10   19 1   
    12   11   12 1   
    13   11   20 1   
    14   12   14 1   
    15   14   15 1   
    16   14   21 1   
    17   15   22 1   
@<TRIPOS>SUBSTRUCTURE
     1 928         1 TEMP              0 ****  ****    0 ROOT
