@<TRIPOS>MOLECULE
92G
   22    23     1     0     0
SMALL
bcc


@<TRIPOS>ATOM
      1 O7         -0.0980   -0.0100   -0.2260 oh        1 92G     -0.475100
      2 C5          3.5610    0.3950   -0.0250 ca        1 92G     -0.050000
      3 C6          2.2310    0.3720    0.3810 ca        1 92G     -0.189000
      4 C1          1.2310    0.0350   -0.5450 ca        1 92G      0.173100
      5 C3          2.8930   -0.2520   -2.2680 ca        1 92G     -0.050000
      6 C2          1.5630   -0.2810   -1.8780 ca        1 92G     -0.189000
      7 C4          3.9030    0.0900   -1.3510 ca        1 92G     -0.218500
      8 C8          5.2890    0.1230   -1.7930 cc        1 92G      0.473800
      9 C10         7.5080   -0.0340   -1.6530 cd        1 92G      0.280300
     10 C12         5.6880    0.4140   -3.1200 cd        1 92G     -0.255400
     11 S11         7.3140    0.3600   -3.3000 ss        1 92G      0.172700
     12 N9          6.3450   -0.1340   -0.9480 nc        1 92G     -0.582000
     13 N13         8.7830   -0.2630   -1.0000 n4        1 92G     -0.767300
     14 HO7        -0.2000    0.2220    0.7110 ho        1 92G      0.435000
     15 H3          3.1540   -0.5100   -3.3060 ha        1 92G      0.140500
     16 H2          0.7640   -0.5480   -2.5850 ha        1 92G      0.161000
     17 H12         4.9790    0.6580   -3.9180 h4        1 92G      0.224000
     18 HN13        8.9200    0.4330   -0.2520 hn        1 92G      0.471467
     19 HN1A        8.7950   -1.2030   -0.5780 hn        1 92G      0.471467
     20 H5          4.3400    0.6600    0.7060 ha        1 92G      0.140500
     21 H133        9.5400   -0.1840   -1.6850 hn        1 92G      0.471467
     22 H6          1.9650    0.6170    1.4200 ha        1 92G      0.161000
@<TRIPOS>BOND
     1    1    4 1   
     2    1   14 1   
     3    2    3 ar  
     4    2    7 ar  
     5    2   20 1   
     6    3    4 ar  
     7    3   22 1   
     8    4    6 ar  
     9    5    6 ar  
    10    5    7 ar  
    11    5   15 1   
    12    6   16 1   
    13    7    8 1   
    14    8   10 2   
    15    8   12 1   
    16    9   11 1   
    17    9   12 2   
    18    9   13 1   
    19   10   11 1   
    20   10   17 1   
    21   13   18 1   
    22   13   19 1   
    23   13   21 1   
@<TRIPOS>SUBSTRUCTURE
     1 92G         1 TEMP              0 ****  ****    0 ROOT
