@<TRIPOS>MOLECULE
92G
   21    17     1     0     0
SMALL
bcc


@<TRIPOS>ATOM
      1 O7         -4.2750    0.1600    1.5280 oh        1 92G     -0.250000
      2 C5         -0.6120   -0.2540    1.4790 c1        1 92G     -0.062000
      3 C6         -1.9130   -0.1540    1.9460 c1        1 92G     -0.164000
      4 C1         -2.9600    0.0060    1.0520 c2        1 92G      0.086000
      5 C3         -1.4040   -0.0350   -0.7760 c1        1 92G     -0.076000
      6 C2         -2.7060    0.0660   -0.3100 c2        1 92G     -0.219000
      7 C4         -0.3580   -0.1950    0.1180 c1        1 92G     -0.049000
      8 C8          0.9490   -0.2260   -0.3440 c1        1 92G     -0.006000
      9 C10         3.1390    0.5660   -1.0520 c1        1 92G     -0.173000
     10 C12         1.6910   -1.4100   -0.7040 c1        1 92G     -0.477000
     11 S11         3.0780   -0.9730   -1.1580 ss        1 92G      0.480000
     12 N9          1.8750    1.0220   -0.5670 n2        1 92G     -0.157000
     13 N13         4.2730    1.3760   -1.3150 n2        1 92G     -0.282000
     14 HO7        -4.7750   -0.5170    1.2420 ho        1 92G      0.218000
     15 H5          0.1250   -0.3670    2.1090 ha        1 92G      0.152000
     16 H6         -2.0930   -0.1960    2.9050 ha        1 92G      0.152000
     17 H3         -1.2250    0.0070   -1.7350 ha        1 92G      0.135000
     18 H2         -3.4430    0.1790   -0.9390 ha        1 92G      0.134000
     19 H12         1.3610   -2.3290   -0.6650 DU        1 92G      0.181000
     20 HN13        5.0780    0.9880   -1.5060 hn        1 92G      0.188500
     21 HN1A        4.1960    2.2870   -1.3060 hn        1 92G      0.188500
@<TRIPOS>BOND
     1    1    4 1   
     2    1   14 1   
     3    2    7 1   
     4    2   15 1   
     5    3    4 1   
     6    3   16 1   
     7    4    6 1   
     8    5    6 1   
     9    5   17 1   
    10    6   18 1   
    11    8   10 1   
    12    8   12 1   
    13    9   11 1   
    14    9   12 1   
    15   10   11 1   
    16   13   20 1   
    17   13   21 1   
@<TRIPOS>SUBSTRUCTURE
     1 92G         1 TEMP              0 ****  ****    0 ROOT
