@<TRIPOS>MOLECULE
92G
   21    22     1     0     0
SMALL
bcc


@<TRIPOS>ATOM
      1 O7          4.8880   -0.0390   -0.0590 oh        1 92G     -0.497100
      2 C5          1.4110    1.1220    0.3790 ca        1 92G     -0.069500
      3 C6          2.8030    1.1580    0.3440 ca        1 92G     -0.191500
      4 C1          3.5140    0.0010   -0.0040 ca        1 92G      0.130100
      5 C3          1.4500   -1.2100   -0.2780 ca        1 92G     -0.069500
      6 C2          2.8380   -1.1900   -0.3190 ca        1 92G     -0.191500
      7 C4          0.7230   -0.0610    0.0740 ca        1 92G     -0.156500
      8 C8         -0.7340   -0.1140    0.1230 cc        1 92G      0.429800
      9 C10        -2.8160    0.7040   -0.0130 cd        1 92G      0.598300
     10 C12        -1.4630   -1.2680    0.4030 cd        1 92G     -0.270400
     11 S11        -3.1030   -0.9720    0.3950 ss        1 92G     -0.105300
     12 N9         -1.5110    1.0170   -0.1270 nc        1 92G     -0.684000
     13 N13        -3.8910    1.5950   -0.0830 nh        1 92G     -0.884500
     14 HO7         5.2210    0.8410    0.1710 ho        1 92G      0.420000
     15 H6          3.3380    2.0860    0.5860 ha        1 92G      0.143000
     16 H3          0.9160   -2.1380   -0.5330 ha        1 92G      0.144000
     17 H2          3.4140   -2.0840   -0.5940 ha        1 92G      0.143000
     18 H12        -1.0310   -2.2430    0.6150 h4        1 92G      0.182000
     19 HN13       -4.5660    1.3130   -0.7660 hn        1 92G      0.393300
     20 HN1A       -3.6160    2.5490   -0.2110 hn        1 92G      0.393300
     21 H5          0.8540    2.0320    0.6500 ha        1 92G      0.144000
@<TRIPOS>BOND
     1    1    4 1   
     2    1   14 1   
     3    2    3 ar  
     4    2    7 ar  
     5    2   21 1   
     6    3    4 ar  
     7    3   15 1   
     8    4    6 ar  
     9    5    6 ar  
    10    5    7 ar  
    11    5   16 1   
    12    6   17 1   
    13    7    8 1   
    14    8   10 2   
    15    8   12 1   
    16    9   11 1   
    17    9   12 2   
    18    9   13 1   
    19   10   11 1   
    20   10   18 1   
    21   13   19 1   
    22   13   20 1   
@<TRIPOS>SUBSTRUCTURE
     1 92G         1 TEMP              0 ****  ****    0 ROOT
