@<TRIPOS>MOLECULE
92M
   68    72     1     0     0
SMALL
bcc


@<TRIPOS>ATOM
      1 C4         -3.2150   -0.2130   -0.0490 ca        1 92M      0.660200
      2 C5         -2.9910   -1.6400   -0.0070 ca        1 92M     -0.239000
      3 C6         -1.6630   -2.0500    0.2750 ca        1 92M      0.453200
      4 N1         -0.6480   -1.2100    0.5040 nb        1 92M     -0.729000
      5 N3         -2.1890    0.6590    0.1350 nb        1 92M     -0.777000
      6 CAT         6.2190   -0.7920    1.3670 c3        1 92M      0.190300
      7 CAU         7.7450   -0.7520    1.3370 c3        1 92M     -0.098900
      8 CAV         8.2640   -1.1860   -0.0280 c3        1 92M      0.141100
      9 OAW         9.6760   -1.0210    0.0010 oh        1 92M     -0.596800
     10 CAX         7.6300   -0.3400   -1.1260 c3        1 92M     -0.098900
     11 CAY         6.1070   -0.3860   -1.0300 c3        1 92M      0.190300
     12 NAS         5.6150   -0.0220    0.2920 nh        1 92M     -0.640000
     13 CAR         4.2150    0.1830    0.3790 ca        1 92M      0.166600
     14 CAZ         3.6130    1.1670   -0.4410 ca        1 92M     -0.220000
     15 CBA         2.2510    1.4380   -0.3330 ca        1 92M      0.118100
     16 OBB         1.6040    2.3770   -1.1200 os        1 92M     -0.342900
     17 CBC         2.4310    3.2500   -1.8800 c3        1 92M      0.117700
     18 CAQ         3.3990   -0.4980    1.3050 ca        1 92M     -0.206000
     19 CAP         2.0440   -0.2120    1.4190 ca        1 92M     -0.048000
     20 CAO         1.4270    0.7540    0.6070 ca        1 92M      0.059600
     21 C2         -0.9420    0.1440    0.4400 ca        1 92M      0.868900
     22 NBG        -4.0020   -2.5950   -0.2410 n         1 92M     -0.360000
     23 CBH        -4.2680   -3.5580    0.7950 c3        1 92M      0.080300
     24 CAB        -4.8850   -2.4350   -1.3080 c         1 92M      0.713500
     25 OAA        -5.8190   -3.2390   -1.4870 o         1 92M     -0.634500
     26 CAC        -4.6400   -1.2820   -2.2590 c3        1 92M     -0.159400
     27 CAD        -5.0350    0.0480   -1.6270 c3        1 92M      0.186800
     28 NAE        -4.5480    0.2560   -0.2690 nh        1 92M     -0.732300
     29 CAF        -4.8640    1.5950    0.2420 c3        1 92M      0.199500
     30 CAG        -4.5000    1.8010    1.7290 c3        1 92M     -0.080900
     31 CAH        -5.5860    2.6780    2.3380 c3        1 92M     -0.078900
     32 CAI        -6.6440    2.9160    1.2700 c3        1 92M     -0.078900
     33 CAJ        -6.3730    1.9220    0.1530 c3        1 92M     -0.080900
     34 H6         -1.4000   -3.1250    0.3280 h4        1 92M      0.034100
     35 HATA        5.8710   -0.3530    2.3450 h1        1 92M      0.039950
     36 HAU         8.1180    0.2800    1.5620 hc        1 92M      0.060700
     37 HAUA        8.1410   -1.4400    2.1280 hc        1 92M      0.060700
     38 HAV         8.0250   -2.2740   -0.2030 h1        1 92M      0.031700
     39 HOAW        9.9980   -1.2260   -0.8850 ho        1 92M      0.400000
     40 HAX         7.9960    0.7150   -1.0340 hc        1 92M      0.060700
     41 HAXA        7.9340   -0.7240   -2.1330 hc        1 92M      0.060700
     42 HAY         5.6780    0.3320   -1.7830 h1        1 92M      0.039950
     43 HAYA        5.7630   -1.4250   -1.3130 h1        1 92M      0.039950
     44 HAZ         4.2260    1.7290   -1.1600 ha        1 92M      0.144000
     45 HBC         1.7020    3.9800   -2.3170 h1        1 92M      0.046367
     46 HBCA        3.1700    3.7720   -1.2260 h1        1 92M      0.046367
     47 HBCB        2.9520    2.6850   -2.6910 h1        1 92M      0.046367
     48 HAQ         3.8190   -1.2750    1.9610 ha        1 92M      0.138000
     49 HAP         1.4450   -0.7650    2.1610 ha        1 92M      0.156000
     50 HBH        -4.6260   -3.0470    1.7300 h1        1 92M      0.049367
     51 HBHA       -5.0550   -4.2770    0.4440 h1        1 92M      0.049367
     52 HBHB       -3.3280   -4.1240    1.0310 h1        1 92M      0.049367
     53 HAC        -3.5660   -1.2660   -2.5810 hc        1 92M      0.079700
     54 HACA       -5.2740   -1.4420   -3.1710 hc        1 92M      0.079700
     55 HAD        -4.6940    0.8760   -2.3160 h1        1 92M      0.052700
     56 HADA       -6.1620    0.0920   -1.5680 h1        1 92M      0.052700
     57 HAF        -4.3120    2.3770   -0.3640 h1        1 92M      0.041700
     58 HAG        -4.4420    0.8240    2.2710 hc        1 92M      0.053450
     59 HAGA       -3.5020    2.2970    1.8130 hc        1 92M      0.053450
     60 HAH        -6.0370    2.1710    3.2280 hc        1 92M      0.042700
     61 HAHA       -5.1580    3.6490    2.6910 hc        1 92M      0.042700
     62 HAI        -7.6740    2.7780    1.6830 hc        1 92M      0.042700
     63 HAIA       -6.5750    3.9630    0.8820 hc        1 92M      0.042700
     64 HAJ        -6.6240    2.3500   -0.8470 hc        1 92M      0.053450
     65 HAJA       -6.9960    1.0040    0.3050 hc        1 92M      0.053450
     66 NAN         0.0600    1.0900    0.7790 nh        1 92M     -0.669300
     67 HAT         5.8900   -1.8730    1.3320 h1        1 92M      0.039950
     68 HNAN       -0.1490    2.0210    0.4620 hn        1 92M      0.437800
@<TRIPOS>BOND
     1    1    2 ar  
     2    1    5 ar  
     3    1   28 1   
     4    2    3 ar  
     5    2   22 1   
     6    3    4 ar  
     7    3   34 1   
     8    4   21 ar  
     9    5   21 ar  
    10    6    7 1   
    11    6   12 1   
    12    6   35 1   
    13    6   67 1   
    14    7    8 1   
    15    7   36 1   
    16    7   37 1   
    17    8    9 1   
    18    8   10 1   
    19    8   38 1   
    20    9   39 1   
    21   10   11 1   
    22   10   40 1   
    23   10   41 1   
    24   11   12 1   
    25   11   42 1   
    26   11   43 1   
    27   12   13 1   
    28   13   14 ar  
    29   13   18 ar  
    30   14   15 ar  
    31   14   44 1   
    32   15   16 1   
    33   15   20 ar  
    34   16   17 1   
    35   17   45 1   
    36   17   46 1   
    37   17   47 1   
    38   18   19 ar  
    39   18   48 1   
    40   19   20 ar  
    41   19   49 1   
    42   20   66 1   
    43   21   66 1   
    44   22   23 1   
    45   22   24 1   
    46   23   50 1   
    47   23   51 1   
    48   23   52 1   
    49   24   25 2   
    50   24   26 1   
    51   26   27 1   
    52   26   53 1   
    53   26   54 1   
    54   27   28 1   
    55   27   55 1   
    56   27   56 1   
    57   28   29 1   
    58   29   30 1   
    59   29   33 1   
    60   29   57 1   
    61   30   31 1   
    62   30   58 1   
    63   30   59 1   
    64   31   32 1   
    65   31   60 1   
    66   31   61 1   
    67   32   33 1   
    68   32   62 1   
    69   32   63 1   
    70   33   64 1   
    71   33   65 1   
    72   66   68 1   
@<TRIPOS>SUBSTRUCTURE
     1 92M         1 TEMP              0 ****  ****    0 ROOT
