@<TRIPOS>MOLECULE
92M
   68    67     1     0     0
SMALL
bcc


@<TRIPOS>ATOM
      1 C4         -0.3770    0.2570   -3.2430 c1        1 92M      0.139000
      2 C5          0.9850    0.2660   -3.2460 c1        1 92M     -0.099000
      3 C6          1.6810    0.2730   -2.0410 c1        1 92M     -0.012000
      4 N1          1.0050    0.2710   -0.8690 n1        1 92M     -0.203000
      5 N3         -1.0590    0.2540   -2.0520 n1        1 92M     -0.251000
      6 CAT         2.7340   -0.1950    5.3360 c3        1 92M     -0.063000
      7 CAU         3.5190   -0.4440    6.6120 c3        1 92M     -0.171000
      8 CAV         2.6350   -0.6260    7.7920 c3        1 92M      0.028000
      9 OAW         1.9960    0.6430    8.1010 oh        1 92M     -0.330000
     10 CAX         1.5850   -1.6460    7.5570 c3        1 92M     -0.171000
     11 CAY         0.8090   -1.3920    6.2770 c3        1 92M     -0.063000
     12 NAS         1.6900   -1.2070    5.1100 n3        1 92M     -0.221000
     13 CAR         0.8970   -0.8330    3.9600 c2        1 92M      0.035000
     14 CAZ         0.3770    0.4530    3.8640 c2        1 92M     -0.219000
     15 CBA        -0.2750    0.8570    2.7010 c1        1 92M      0.056000
     16 OBB        -0.7870    2.1670    2.5980 o         1 92M     -0.227000
     17 CBC        -1.9260    2.4040    3.4090 c3        1 92M     -0.071000
     18 CAQ         0.7650   -1.7170    2.8920 c1        1 92M     -0.132000
     19 CAP         0.1130   -1.3130    1.7300 c1        1 92M     -0.076000
     20 CAO        -0.4060   -0.0280    1.6350 c2        1 92M      0.006000
     21 NAN        -1.0970    0.2820    0.3930 n3        1 92M     -0.195000
     22 C2         -0.3720    0.2610   -0.8680 c1        1 92M      0.150000
     23 NBG         1.5070   -0.1230   -4.5510 n         1 92M     -0.264000
     24 CBH         2.0470   -1.4170   -4.8530 c3        1 92M     -0.075000
     25 CAB         1.5590    0.9930   -5.4310 c2        1 92M      0.321000
     26 OAA         2.1850    1.0190   -6.4750 o         1 92M     -0.358000
     27 CAC         0.8190    2.1730   -4.8500 c3        1 92M     -0.188000
     28 CAD        -0.6520    1.8450   -4.9710 c3        1 92M     -0.050000
     29 NAE        -0.8990    0.5040   -4.5680 n3        1 92M     -0.223000
     30 CAF        -2.3440    0.2490   -4.5790 c3        1 92M      0.002000
     31 CAG        -2.6320   -1.3600   -4.7850 c3        1 92M     -0.159500
     32 CAH        -3.8570   -1.4560   -5.2880 c3        1 92M     -0.157500
     33 CAI        -4.0880   -0.1130   -6.0450 c3        1 92M     -0.157500
     34 CAJ        -2.8930    0.8480   -5.5890 c3        1 92M     -0.159500
     35 H6          2.6540    0.2800   -2.0410 ha        1 92M      0.172000
     36 HAT         2.3130    0.6880    5.3920 h1        1 92M      0.080000
     37 HATA        3.3540   -0.2030    4.5760 h1        1 92M      0.080000
     38 HAU         4.0620   -1.2500    6.4960 hc        1 92M      0.095500
     39 HAUA        4.1110    0.3180    6.7740 hc        1 92M      0.095500
     40 HAV         3.1810   -0.9020    8.5580 h1        1 92M      0.073000
     41 HOAW        2.1720    0.8680    8.9490 ho        1 92M      0.197000
     42 HAX         0.9620   -1.6410    8.3120 hc        1 92M      0.095500
     43 HAXA        2.0080   -2.5290    7.5010 hc        1 92M      0.095500
     44 HAY         0.2630   -0.5870    6.3920 h1        1 92M      0.080000
     45 HAYA        0.2170   -2.1530    6.1090 h1        1 92M      0.080000
     46 HAZ         0.4970    1.0850    4.6010 ha        1 92M      0.144000
     47 HBC        -2.4750    1.5910    3.4470 h1        1 92M      0.086000
     48 HBCA       -2.4520    3.1350    3.0270 h1        1 92M      0.086000
     49 HBCB       -1.6370    2.6470    4.3170 h1        1 92M      0.086000
     50 HAQ         1.1290   -2.6200    2.9580 ha        1 92M      0.150000
     51 HAP         0.0200   -1.9330    0.9830 ha        1 92M      0.158000
     52 HNAN       -1.9950    0.4510    0.3990 hn        1 92M      0.235000
     53 HBH         3.0310   -1.3900   -4.7740 h1        1 92M      0.088667
     54 HBHA        1.6870   -2.0750   -4.2250 h1        1 92M      0.088667
     55 HBHB        1.7990   -1.6690   -5.7680 h1        1 92M      0.088667
     56 HAC         1.2010    2.4370   -3.9890 hc        1 92M      0.119000
     57 HACA        0.9650    2.9910   -5.3720 hc        1 92M      0.119000
     58 HAD        -1.1550    2.4460   -4.3850 h1        1 92M      0.092000
     59 HADA       -0.9190    1.9460   -5.9070 h1        1 92M      0.092000
     60 HAF        -2.7470    0.5580   -3.7460 h1        1 92M      0.081000
     61 HAG        -1.9820   -1.7400   -5.4090 hc        1 92M      0.092750
     62 HAGA       -2.5850   -1.8210   -3.9270 hc        1 92M      0.092750
     63 HAH        -3.9110   -2.2090   -5.9080 hc        1 92M      0.082000
     64 HAHA       -4.5120   -1.5580   -4.5700 hc        1 92M      0.082000
     65 HAI        -4.0540   -0.2590   -7.0100 hc        1 92M      0.082000
     66 HAIA       -4.9510    0.2750   -5.7920 hc        1 92M      0.082000
     67 HAJ        -3.2440    1.7200   -5.3180 hc        1 92M      0.092750
     68 HAJA       -2.2470    0.9520   -6.3140 hc        1 92M      0.092750
@<TRIPOS>BOND
     1    1    5 1   
     2    1   29 1   
     3    2    3 1   
     4    2   23 1   
     5    3   35 1   
     6    4   22 1   
     7    6    7 1   
     8    6   12 1   
     9    6   36 1   
    10    6   37 1   
    11    7    8 1   
    12    7   38 1   
    13    7   39 1   
    14    8    9 1   
    15    8   10 1   
    16    8   40 1   
    17    9   41 1   
    18   10   11 1   
    19   10   42 1   
    20   10   43 1   
    21   11   12 1   
    22   11   44 1   
    23   11   45 1   
    24   12   13 1   
    25   13   14 1   
    26   13   18 1   
    27   14   15 1   
    28   14   46 1   
    29   15   20 1   
    30   16   17 1   
    31   17   47 1   
    32   17   48 1   
    33   17   49 1   
    34   18   50 1   
    35   19   20 1   
    36   19   51 1   
    37   20   21 1   
    38   21   22 1   
    39   21   52 1   
    40   23   24 1   
    41   23   25 1   
    42   24   53 1   
    43   24   54 1   
    44   24   55 1   
    45   25   26 1   
    46   25   27 1   
    47   27   28 1   
    48   27   56 1   
    49   27   57 1   
    50   28   29 1   
    51   28   58 1   
    52   28   59 1   
    53   29   30 1   
    54   30   31 1   
    55   30   34 1   
    56   30   60 1   
    57   31   32 1   
    58   31   61 1   
    59   31   62 1   
    60   32   33 1   
    61   32   63 1   
    62   32   64 1   
    63   33   34 1   
    64   33   65 1   
    65   33   66 1   
    66   34   67 1   
    67   34   68 1   
@<TRIPOS>SUBSTRUCTURE
     1 92M         1 TEMP              0 ****  ****    0 ROOT
