@<TRIPOS>MOLECULE
92M
   68    87     1     0     0
SMALL
bcc


@<TRIPOS>ATOM
      1 C4          0.0000    0.0000    0.0000 c2        1 92M      0.046000
      2 C5          1.4000    0.0000    0.0000 c2        1 92M     -0.457000
      3 C6          2.0680    0.0000    1.2090 c2        1 92M     -0.091000
      4 N1          1.3590    0.0110    2.3310 n2        1 92M     -0.058000
      5 N3         -0.6420    0.0200    1.1620 n2        1 92M     -0.166000
      6 CAT         3.2620   -1.2910    8.1770 DU        1 92M     -0.232000
      7 CAU         3.9060   -1.5210    9.5460 DU        1 92M     -0.149000
      8 CAV         4.2970   -0.1710   10.1540 DU        1 92M     -0.394000
      9 OAW         4.8470   -0.3770   11.4570 oh        1 92M     -0.522000
     10 CAX         3.0510    0.7110   10.2590 DU        1 92M     -0.319000
     11 CAY         2.4310    0.8780    8.8700 c3        1 92M     -0.676000
     12 NAS         2.0740   -0.4410    8.3310 n3        1 92M      0.149000
     13 CAR         1.3850   -0.3180    7.1180 DU        1 92M     -0.111000
     14 CAZ         0.2290    0.4480    7.0530 c2        1 92M     -0.487000
     15 CBA        -0.4520    0.5700    5.8520 c2        1 92M      0.170000
     16 OBB        -1.5840    1.3200    5.7860 os        1 92M     -0.104000
     17 CBC        -2.0140    1.9560    6.9910 c3        1 92M     -0.091000
     18 CAQ         1.8610   -0.9580    5.9820 c3        1 92M     -0.559000
     19 CAP         1.1840   -0.8370    4.7840 c2        1 92M     -0.196000
     20 CAO         0.0250   -0.0770    4.7150 c2        1 92M     -0.285000
     21 C2          0.0350    0.0240    2.3020 c3        1 92M     -0.069000
     22 NBG         2.0950    0.0190   -1.2190 n         1 92M      0.208000
     23 CBH         3.1910   -0.9180   -1.4750 c3        1 92M     -0.225000
     24 CAB         1.7250    0.9250   -2.1510 c2        1 92M      0.337000
     25 OAA         2.2570    0.9330   -3.2420 o         1 92M     -0.267000
     26 CAC         0.6480    1.9230   -1.8240 DU        1 92M     -0.166000
     27 CAD        -0.7270    1.2620   -1.8670 c3        1 92M     -0.602000
     28 NAE        -0.6900   -0.0410   -1.1980 nx        1 92M      0.070000
     29 CAF        -2.0470   -0.5720   -1.0050 DU        1 92M     -0.300000
     30 CAG        -1.9920   -1.9640   -0.3400 DU        1 92M     -0.361000
     31 CAH        -3.1050   -2.8050   -0.9900 DU        1 92M     -0.291000
     32 CAI        -3.7970   -1.8950   -2.0250 DU        1 92M     -0.366000
     33 CAJ        -2.7260   -0.8310   -2.3720 c3        1 92M     -0.585000
     34 H6          1.2360   -0.0940    1.8960 DU        1 92M      0.254000
     35 HATA        3.2460   -1.0940    7.1120 ha        1 92M      0.288000
     36 HAU         3.4340   -1.8880    8.6420 DU        1 92M      0.216000
     37 HAUA        3.2000   -2.0200   10.1980 ha        1 92M      0.143000
     38 HAV         4.5490   -1.1600    9.7890 DU        1 92M      0.202000
     39 HOAW        4.9320   -0.0620   10.5720 DU        1 92M      0.339000
     40 HAX         4.0060    0.4420   10.6940 DU        1 92M      0.445000
     41 HAXA        3.3300    1.6830   10.6480 ha        1 92M      0.143000
     42 HAY         2.3790    0.5580    9.9030 DU        1 92M      0.215000
     43 HAYA        1.5400    1.4890    8.9450 h1        1 92M      0.130000
     44 HAZ         1.1970    0.7490    7.4350 DU        1 92M      0.298000
     45 HBC        -1.1590    1.4640    7.4400 h1        1 92M      0.099000
     46 HBCA       -1.1980    2.5360    7.4050 h1        1 92M      0.099000
     47 HBCB       -2.3200    1.2020    7.7070 h1        1 92M      0.099000
     48 HAQ         1.0050   -0.3090    6.1260 DU        1 92M      0.457000
     49 HAP         1.9850   -1.1990    5.4160 DU        1 92M      0.278000
     50 HBH         2.8770   -0.9990   -0.4420 h1        1 92M      0.122000
     51 HBHA        4.1380   -0.3970   -1.3950 h1        1 92M      0.122000
     52 HBHB        3.1580   -1.7200   -0.7480 h1        1 92M      0.122000
     53 HAC         1.2890    1.0680   -1.9950 ha        1 92M      0.149000
     54 HACA        0.8200    2.3210   -0.8310 ha        1 92M      0.149000
     55 HAD        -0.0180    2.0050   -2.2120 DU        1 92M      0.244000
     56 HADA       -1.4320    1.8980   -1.3460 hx        1 92M      0.107000
     57 HAF        -1.6360    0.0910   -1.7560 DU        1 92M      0.505000
     58 HAG        -2.3190   -0.9310   -0.3730 DU        1 92M      0.217000
     59 HAGA       -2.1720   -1.8720    0.7240 ha        1 92M      0.105000
     60 HAH        -2.0650   -2.6150   -0.7560 DU        1 92M      0.216000
     61 HAHA       -3.8190   -3.1180   -0.2370 ha        1 92M      0.092000
     62 HAI        -3.2370   -2.7820   -1.7570 DU        1 92M      0.232000
     63 HAIA       -4.6710   -1.4240   -1.5900 ha        1 92M      0.073000
     64 HAJ        -3.3920   -1.6420   -2.6410 DU        1 92M      0.265000
     65 HAJA       -3.2190    0.0730   -2.7100 hc        1 92M      0.073000
     66 NAN        -0.6630    0.0440    3.4980 n7        1 92M      0.281000
     67 HAT         3.9730   -0.8010    7.5230 ha        1 92M      0.288000
     68 HNAN       -1.3530   -0.6720    3.3890 hn        1 92M      0.083000
@<TRIPOS>BOND
     1    1    2 1   
     2    1    5 1   
     3    1   28 1   
     4    2    3 1   
     5    2   22 1   
     6    3    4 1   
     7    3   34 1   
     8    4   21 1   
     9    5   21 1   
    10    6    7 1   
    11    6   12 1   
    12    6   35 1   
    13    6   36 1   
    14    6   67 1   
    15    7    8 1   
    16    7   36 1   
    17    7   37 1   
    18    7   38 1   
    19    8    9 1   
    20    8   10 1   
    21    8   38 1   
    22    8   39 1   
    23    8   40 1   
    24    9   39 1   
    25   10   11 1   
    26   10   40 1   
    27   10   41 1   
    28   10   42 1   
    29   11   12 1   
    30   11   42 1   
    31   11   43 1   
    32   12   13 1   
    33   13   14 1   
    34   13   18 1   
    35   13   44 1   
    36   13   48 1   
    37   14   15 1   
    38   14   44 1   
    39   15   16 1   
    40   15   20 1   
    41   16   17 1   
    42   17   45 1   
    43   17   46 1   
    44   17   47 1   
    45   18   19 1   
    46   18   48 1   
    47   18   49 1   
    48   19   20 1   
    49   19   49 1   
    50   20   66 1   
    51   21   34 1   
    52   21   66 1   
    53   22   23 1   
    54   22   24 1   
    55   23   50 1   
    56   23   51 1   
    57   23   52 1   
    58   24   25 1   
    59   24   26 1   
    60   26   27 1   
    61   26   53 1   
    62   26   54 1   
    63   26   55 1   
    64   27   28 1   
    65   27   55 1   
    66   27   56 1   
    67   28   29 1   
    68   28   57 1   
    69   29   30 1   
    70   29   33 1   
    71   29   57 1   
    72   29   58 1   
    73   30   31 1   
    74   30   58 1   
    75   30   59 1   
    76   30   60 1   
    77   31   32 1   
    78   31   60 1   
    79   31   61 1   
    80   31   62 1   
    81   32   33 1   
    82   32   62 1   
    83   32   63 1   
    84   32   64 1   
    85   33   64 1   
    86   33   65 1   
    87   66   68 1   
@<TRIPOS>SUBSTRUCTURE
     1 92M         1 TEMP              0 ****  ****    0 ROOT
