@<TRIPOS>MOLECULE
92M
   68    71     1     0     0
SMALL
bcc


@<TRIPOS>ATOM
      1 C4          0.1080   -0.2160   -0.3220 c2        1 92M      0.126000
      2 C5          1.4560   -0.6070   -0.5260 c2        1 92M     -0.105000
      3 C6          2.3630   -0.5400    0.5980 c1        1 92M     -0.132000
      4 N1          1.9110   -0.0800    1.7650 n3        1 92M     -0.146000
      5 N3         -0.3230    0.2630    0.9040 n2        1 92M     -0.273000
      6 CAT         3.9380   -0.3310    8.2460 c3        1 92M     -0.032500
      7 CAU         4.4730   -1.0220    9.4940 c3        1 92M     -0.186500
      8 CAV         3.8300   -0.4500   10.7490 c3        1 92M      0.030000
      9 OAW         4.3610   -1.1770   11.8460 oh        1 92M     -0.316000
     10 CAX         2.3210   -0.6220   10.6520 c3        1 92M     -0.186500
     11 CAY         1.7600    0.0490    9.4030 c3        1 92M     -0.032500
     12 NAS         2.4930   -0.2010    8.1760 n3        1 92M     -0.243000
     13 CAR         1.9070    0.0750    6.9640 c2        1 92M      0.154000
     14 CAZ         0.5800    0.4910    6.8400 c2        1 92M     -0.379000
     15 CBA        -0.0170    0.7220    5.5780 c2        1 92M      0.230000
     16 OBB        -1.3260    1.0870    5.4550 os        1 92M     -0.201000
     17 CBC        -2.1180    1.2090    6.6360 c3        1 92M     -0.079000
     18 CAQ         2.7090   -0.1010    5.6960 c3        1 92M     -0.143000
     19 CAP         2.0390    0.1840    4.4500 c1        1 92M     -0.253000
     20 CAO         0.7250    0.5940    4.3630 c2        1 92M     -0.115000
     21 C2          0.5710    0.3410    1.9230 c2        1 92M      0.145000
     22 NBG         1.9530   -1.1450   -1.7300 n         1 92M     -0.230000
     23 CBH         3.0960   -2.0230   -1.5910 c3        1 92M     -0.064000
     24 CAB         1.7770   -0.5060   -2.9620 c2        1 92M      0.343000
     25 OAA         2.5520   -0.7770   -3.9070 o         1 92M     -0.374000
     26 CAC         0.6440    0.4070   -3.2000 c2        1 92M     -0.251000
     27 CAD        -0.5170    0.4620   -2.5220 c2        1 92M      0.015000
     28 NAE        -0.8450   -0.2980   -1.3860 na        1 92M     -0.205000
     29 CAF        -2.2670   -0.3490   -1.0430 c3        1 92M      0.023000
     30 CAG        -2.6150   -1.4910   -0.0620 c3        1 92M     -0.161500
     31 CAH        -3.9180   -2.1180   -0.5340 c3        1 92M     -0.156500
     32 CAI        -4.3630   -1.3800   -1.7870 c3        1 92M     -0.156500
     33 CAJ        -3.1700   -0.5770   -2.2780 c3        1 92M     -0.161500
     34 H6          2.5140   -0.0490    2.5960 hn        1 92M      0.323000
     35 HATA        4.3950    0.7000    8.1750 h1        1 92M      0.094000
     36 HAU         4.0900    0.6410   10.8600 h1        1 92M      0.079000
     37 HAUA        5.5830   -0.8760    9.5340 hc        1 92M      0.109250
     38 HAV         4.2770   -2.1250    9.4510 hc        1 92M      0.109250
     39 HOAW        3.9400   -0.8290   12.6420 ho        1 92M      0.205000
     40 HAX         1.8200   -0.1660   11.5440 hc        1 92M      0.109250
     41 HAXA        2.0780   -1.7170   10.6470 hc        1 92M      0.109250
     42 HAY         1.7100    1.1640    9.5760 h1        1 92M      0.094000
     43 HAYA        0.7050   -0.3330    9.2710 h1        1 92M      0.094000
     44 HAZ        -0.0380    0.6650    7.7320 ha        1 92M      0.141000
     45 HBC        -2.1580    0.2370    7.1840 h1        1 92M      0.095333
     46 HBCA       -1.7230    2.0230    7.2890 h1        1 92M      0.095333
     47 HBCB       -3.1280    1.4790    6.2330 h1        1 92M      0.095333
     48 HAQ         3.0750   -1.1700    5.6320 hc        1 92M      0.159000
     49 HAP         3.6240    0.5640    5.7370 hc        1 92M      0.159000
     50 HBH         2.9250   -2.7080   -0.7210 h1        1 92M      0.087000
     51 HBHA        3.2080   -2.6210   -2.5330 h1        1 92M      0.087000
     52 HBHB        4.0370   -1.4380   -1.4110 h1        1 92M      0.087000
     53 HAC         1.6690    5.1680   -0.1060 ha        1 92M      0.000000
     54 HACA        0.7790    1.0370   -4.0950 ha        1 92M      0.159000
     55 HAD         1.4740    5.8140   -0.0580 ha        1 92M      0.000000
     56 HADA       -1.3320    1.1160   -2.9000 h4        1 92M      0.131000
     57 HAF        -2.6290   -1.1430   -3.0780 hc        1 92M      0.093250
     58 HAG        -2.5790    0.6300   -0.5680 h1        1 92M      0.083000
     59 HAGA       -1.8040   -2.2620   -0.0280 hc        1 92M      0.093250
     60 HAH        -2.7270   -1.0750    0.9700 hc        1 92M      0.093250
     61 HAHA       -3.7640   -3.2040   -0.7580 hc        1 92M      0.080000
     62 HAI        -4.7020   -2.0520    0.2610 hc        1 92M      0.080000
     63 HAIA       -4.7120   -2.0930   -2.5740 hc        1 92M      0.080000
     64 HAJ        -5.2180   -0.6970   -1.5520 hc        1 92M      0.080000
     65 HAJA       -3.4940    0.4020   -2.7100 hc        1 92M      0.093250
     66 NAN         0.1420    0.9680    3.1230 n3        1 92M     -0.197000
     67 HAT         4.2950   -0.9310    7.3590 h1        1 92M      0.094000
     68 HNAN       -0.8500    1.1090    3.1740 hn        1 92M      0.227000
@<TRIPOS>BOND
     1    1    2 1   
     2    1    5 1   
     3    1   28 1   
     4    2    3 1   
     5    2   22 1   
     6    3    4 1   
     7    4   21 1   
     8    4   34 1   
     9    5   21 1   
    10    6    7 1   
    11    6   12 1   
    12    6   35 1   
    13    6   67 1   
    14    7    8 1   
    15    7   37 1   
    16    7   38 1   
    17    8    9 1   
    18    8   10 1   
    19    8   36 1   
    20    9   39 1   
    21   10   11 1   
    22   10   40 1   
    23   10   41 1   
    24   11   12 1   
    25   11   42 1   
    26   11   43 1   
    27   12   13 1   
    28   13   14 1   
    29   13   18 1   
    30   14   15 1   
    31   14   44 1   
    32   15   16 1   
    33   15   20 1   
    34   16   17 1   
    35   17   45 1   
    36   17   46 1   
    37   17   47 1   
    38   18   19 1   
    39   18   48 1   
    40   18   49 1   
    41   19   20 1   
    42   20   66 1   
    43   21   66 1   
    44   22   23 1   
    45   22   24 1   
    46   23   50 1   
    47   23   51 1   
    48   23   52 1   
    49   24   25 1   
    50   24   26 1   
    51   26   27 1   
    52   26   54 1   
    53   27   28 1   
    54   27   56 1   
    55   28   29 1   
    56   29   30 1   
    57   29   33 1   
    58   29   58 1   
    59   30   31 1   
    60   30   59 1   
    61   30   60 1   
    62   31   32 1   
    63   31   61 1   
    64   31   62 1   
    65   32   33 1   
    66   32   63 1   
    67   32   64 1   
    68   33   57 1   
    69   33   65 1   
    70   53   55 1   
    71   66   68 1   
@<TRIPOS>SUBSTRUCTURE
     1 92M         1 TEMP              0 ****  ****    0 ROOT
