@<TRIPOS>MOLECULE
92P
   21    22     1     0     0
SMALL
bcc


@<TRIPOS>ATOM
      1 C1         -2.6050    1.7000   -0.0010 ca        1 92P     -0.263300
      2 C2         -3.4360    0.5490   -0.0000 ca        1 92P      0.410200
      3 N3         -3.0040   -0.7180    0.0000 nb        1 92P     -0.664000
      4 C4         -1.2240    1.5570   -0.0000 ca        1 92P     -0.043000
      5 N5         -0.8930   -2.0480    0.0010 na        1 92P     -0.278100
      6 C6          0.4530   -1.7180    0.0000 cc        1 92P     -0.013100
      7 C7          0.6130   -0.3250    0.0000 cd        1 92P     -0.199400
      8 C8         -0.7070    0.2590   -0.0000 ca        1 92P     -0.155100
      9 C9         -1.6450   -0.8540    0.0000 ca        1 92P      0.408800
     10 C10         1.8580    0.4060   -0.0000 c         1 92P      0.678300
     11 O11         2.0410    1.6280   -0.0000 o         1 92P     -0.550000
     12 O12         2.9730   -0.4020    0.0000 os        1 92P     -0.450900
     13 C13         4.2360    0.2630    0.0000 c3        1 92P      0.129700
     14 H1         -3.0670    2.6950   -0.0010 ha        1 92P      0.146000
     15 H2         -4.5360    0.6640   -0.0000 h4        1 92P      0.024100
     16 H4         -0.5420    2.4210   -0.0010 ha        1 92P      0.165000
     17 H5         -1.2750   -2.9580    0.0010 hn        1 92P      0.315700
     18 H6          1.2320   -2.4870    0.0010 h4        1 92P      0.188000
     19 H131        4.3340    0.8960   -0.9140 h1        1 92P      0.050033
     20 H132        4.3340    0.8960    0.9140 h1        1 92P      0.050033
     21 H133        4.9750   -0.5750    0.0000 h1        1 92P      0.050033
@<TRIPOS>BOND
     1    1    2 ar  
     2    1    4 ar  
     3    1   14 1   
     4    2    3 ar  
     5    2   15 1   
     6    3    9 ar  
     7    4    8 ar  
     8    4   16 1   
     9    5    6 1   
    10    5    9 1   
    11    5   17 1   
    12    6    7 2   
    13    6   18 1   
    14    7    8 1   
    15    7   10 1   
    16    8    9 ar  
    17   10   11 2   
    18   10   12 1   
    19   12   13 1   
    20   13   19 1   
    21   13   20 1   
    22   13   21 1   
@<TRIPOS>SUBSTRUCTURE
     1 92P         1 TEMP              0 ****  ****    0 ROOT
