@<TRIPOS>MOLECULE
92P
   21    16     1     0     0
SMALL
bcc


@<TRIPOS>ATOM
      1 C1          0.5850   -0.2050   -3.0720 c1        1 92P     -0.120500
      2 C2          1.9730   -0.1920   -3.0650 c1        1 92P     -0.055000
      3 N3          2.6500   -0.1810   -1.8800 n1        1 92P     -0.138000
      4 C4         -0.1040   -0.2080   -1.8930 c1        1 92P     -0.120500
      5 N5          2.3770   -0.1690    0.6330 n2        1 92P     -0.192000
      6 C6          1.2690   -0.1750    1.4330 c1        1 92P      0.015500
      7 C7          0.1540   -0.1910    0.6200 c1        1 92P     -0.135000
      8 C8          0.5830   -0.1960   -0.6900 c1        1 92P     -0.135000
      9 C9          1.9540   -0.1830   -0.6850 c1        1 92P      0.015500
     10 C10        -1.1870   -0.2100    1.3200 c1        1 92P      0.380000
     11 O11        -1.8170   -1.2460    1.3990 o         1 92P     -0.361000
     12 O12        -1.7060    0.9720    1.8760 os        1 92P     -0.289000
     13 C13        -2.9630    0.8080    2.4930 c3        1 92P     -0.060000
     14 H1          0.1010   -0.2130   -3.9200 ha        1 92P      0.155500
     15 H2          2.4660   -0.1900   -3.9080 ha        1 92P      0.161000
     16 H4         -1.0800   -0.2170   -1.8970 ha        1 92P      0.155500
     17 H5          3.2430   -0.1590    0.9170 DU        1 92P      0.227000
     18 H6          1.2670   -0.1560    2.4090 DU        1 92P      0.227000
     19 H131       -3.2220    1.6460    2.9350 h1        1 92P      0.089333
     20 H132       -3.6330    0.5760    1.8150 h1        1 92P      0.089333
     21 H133       -2.9090    0.0900    3.1600 h1        1 92P      0.089333
@<TRIPOS>BOND
     1    1    4 1   
     2    1   14 1   
     3    2    3 1   
     4    2   15 1   
     5    4   16 1   
     6    5    6 1   
     7    5    9 1   
     8    6    7 1   
     9    7    8 1   
    10    8    9 1   
    11   10   11 1   
    12   10   12 1   
    13   12   13 1   
    14   13   19 1   
    15   13   20 1   
    16   13   21 1   
@<TRIPOS>SUBSTRUCTURE
     1 92P         1 TEMP              0 ****  ****    0 ROOT
