@<TRIPOS>MOLECULE
92R
   44    46     1     0     0
SMALL
bcc


@<TRIPOS>ATOM
      1 O1          0.0150    0.7310    0.0290 o         1 92R     -0.617500
      2 C9          1.2350    0.5000    0.1060 c         1 92R      0.708100
      3 C5          1.9670    0.2590    1.3660 ca        1 92R     -0.109600
      4 C4          1.2700    0.2710    2.5810 ca        1 92R     -0.101000
      5 C3          1.9560    0.0450    3.7680 ca        1 92R     -0.094000
      6 C2          3.3340   -0.1940    3.7640 ca        1 92R     -0.173000
      7 N           1.9720    0.4680   -1.0860 n         1 92R     -0.460100
      8 C8          3.3440    0.2260   -1.0990 cc        1 92R      0.041400
      9 C7          4.0370    0.0090    0.0640 cd        1 92R     -0.123200
     10 C6          3.3550    0.0190    1.3290 ca        1 92R     -0.041800
     11 C1          4.0320   -0.2070    2.5550 ca        1 92R      0.130100
     12 O           5.3900   -0.4270    2.4420 os        1 92R     -0.333900
     13 C           6.0870   -0.7010    3.6560 c3        1 92R      0.111700
     14 C10         4.0350    0.1990   -2.3980 ca        1 92R      0.005200
     15 C18         3.4530   -0.4170   -3.5160 ca        1 92R     -0.112500
     16 C17         4.1270   -0.4420   -4.7350 ca        1 92R     -0.099500
     17 C13         5.3920    0.1450   -4.8500 ca        1 92R     -0.193300
     18 C12         5.9800    0.7540   -3.7340 ca        1 92R     -0.099500
     19 C11         5.3060    0.7840   -2.5180 ca        1 92R     -0.112500
     20 C14         6.1360    0.0810   -6.1370 c3        1 92R      0.177100
     21 N1          6.0440    1.3840   -6.8990 n4        1 92R     -0.685400
     22 C16         7.1110    1.4720   -7.9270 c3        1 92R      0.081100
     23 C15         4.7020    1.5500   -7.5150 c3        1 92R      0.081100
     24 H           1.4960    0.6440   -1.9420 hn        1 92R      0.328500
     25 H4          0.1840    0.4610    2.5760 ha        1 92R      0.169000
     26 H3          1.4130    0.0530    4.7260 ha        1 92R      0.151000
     27 H2          3.8530   -0.3700    4.7170 ha        1 92R      0.150000
     28 H7          5.1180   -0.1940    0.0560 ha        1 92R      0.164000
     29 HC1         7.1410   -0.8650    3.3160 h1        1 92R      0.052033
     30 HC2         6.0270    0.1730    4.3480 h1        1 92R      0.052033
     31 HC3         5.6820   -1.6210    4.1430 h1        1 92R      0.052033
     32 H18         2.4690   -0.9070   -3.4340 ha        1 92R      0.166500
     33 H11         5.7700    1.2650   -1.6410 ha        1 92R      0.166500
     34 H17         3.6660   -0.9440   -5.6000 ha        1 92R      0.139500
     35 H12         6.9850    1.1990   -3.8080 ha        1 92R      0.139500
     36 H141        7.2310   -0.1160   -5.9440 hx        1 92R      0.105700
     37 H142        5.7330   -0.7330   -6.8040 hx        1 92R      0.105700
     38 H161        8.1160    1.4520   -7.4260 hx        1 92R      0.104700
     39 H162        6.9970    2.4310   -8.5010 hx        1 92R      0.104700
     40 H163        7.0260    0.6020   -8.6310 hx        1 92R      0.104700
     41 H151        3.9170    1.3870   -6.7260 hx        1 92R      0.104700
     42 H152        4.6100    2.5860   -7.9370 hx        1 92R      0.104700
     43 H153        4.5690    0.7960   -8.3360 hx        1 92R      0.104700
     44 H111        6.1770    2.1470   -6.2190 hn        1 92R      0.452800
@<TRIPOS>BOND
     1    1    2 2   
     2    2    3 1   
     3    2    7 1   
     4    3    4 ar  
     5    3   10 ar  
     6    4    5 ar  
     7    4   25 1   
     8    5    6 ar  
     9    5   26 1   
    10    6   11 ar  
    11    6   27 1   
    12    7    8 1   
    13    7   24 1   
    14    8    9 2   
    15    8   14 1   
    16    9   10 1   
    17    9   28 1   
    18   10   11 ar  
    19   11   12 1   
    20   12   13 1   
    21   13   29 1   
    22   13   30 1   
    23   13   31 1   
    24   14   15 ar  
    25   14   19 ar  
    26   15   16 ar  
    27   15   32 1   
    28   16   17 ar  
    29   16   34 1   
    30   17   18 ar  
    31   17   20 1   
    32   18   19 ar  
    33   18   35 1   
    34   19   33 1   
    35   20   21 1   
    36   20   36 1   
    37   20   37 1   
    38   21   22 1   
    39   21   23 1   
    40   21   44 1   
    41   22   38 1   
    42   22   39 1   
    43   22   40 1   
    44   23   41 1   
    45   23   42 1   
    46   23   43 1   
@<TRIPOS>SUBSTRUCTURE
     1 92R         1 TEMP              0 ****  ****    0 ROOT
