@<TRIPOS>MOLECULE
92R
   44    46     1     0     0
SMALL
bcc


@<TRIPOS>ATOM
      1 O1          0.0180    0.7530    0.0340 o         1 92R     -0.617500
      2 C9          1.2370    0.5150    0.1100 c         1 92R      0.708100
      3 C5          1.9690    0.2670    1.3690 ca        1 92R     -0.109600
      4 C4          1.2730    0.2830    2.5850 ca        1 92R     -0.101000
      5 C3          1.9580    0.0520    3.7710 ca        1 92R     -0.094000
      6 C2          3.3350   -0.1960    3.7650 ca        1 92R     -0.173000
      7 N           1.9720    0.4790   -1.0820 ns        1 92R     -0.460100
      8 C8          3.3420    0.2290   -1.0980 cc        1 92R      0.041400
      9 C7          4.0360    0.0070    0.0640 cd        1 92R     -0.123200
     10 C6          3.3550    0.0200    1.3300 ca        1 92R     -0.041800
     11 C1          4.0320   -0.2120    2.5550 ca        1 92R      0.130100
     12 O           5.3890   -0.4400    2.4420 os        1 92R     -0.333900
     13 C           6.0840   -0.7190    3.6540 c3        1 92R      0.111700
     14 C10         4.0320    0.1980   -2.3970 ca        1 92R      0.005200
     15 C18         3.4450   -0.4130   -3.5150 ca        1 92R     -0.112500
     16 C17         4.1180   -0.4410   -4.7340 ca        1 92R     -0.099500
     17 C13         5.3860    0.1390   -4.8510 ca        1 92R     -0.193300
     18 C12         5.9790    0.7440   -3.7350 ca        1 92R     -0.099500
     19 C11         5.3060    0.7760   -2.5180 ca        1 92R     -0.112500
     20 C14         6.1290    0.0710   -6.1390 c3        1 92R      0.177100
     21 N1          6.0420    1.3750   -6.9000 nx        1 92R     -0.685400
     22 C16         7.1090    1.4570   -7.9290 c3        1 92R      0.081100
     23 C15         4.7010    1.5470   -7.5140 c3        1 92R      0.081100
     24 H           1.4970    0.6590   -1.9380 hn        1 92R      0.328500
     25 H4          0.1880    0.4790    2.5810 ha        1 92R      0.169000
     26 H3          1.4160    0.0620    4.7290 ha        1 92R      0.151000
     27 H2          3.8540   -0.3760    4.7180 ha        1 92R      0.150000
     28 H7          5.1160   -0.2020    0.0560 ha        1 92R      0.164000
     29 HC1         5.6740   -1.6370    4.1410 h1        1 92R      0.052033
     30 HC2         7.1370   -0.8890    3.3120 h1        1 92R      0.052033
     31 HC3         6.0300    0.1550    4.3470 h1        1 92R      0.052033
     32 H18         2.4580   -0.8970   -3.4320 ha        1 92R      0.166500
     33 H11         5.7750    1.2540   -1.6410 ha        1 92R      0.166500
     34 H17         3.6530   -0.9400   -5.5990 ha        1 92R      0.139500
     35 H12         6.9860    1.1820   -3.8100 ha        1 92R      0.139500
     36 H141        7.2230   -0.1320   -5.9470 hx        1 92R      0.105700
     37 H142        5.7210   -0.7420   -6.8050 hx        1 92R      0.105700
     38 H161        7.0000    2.4160   -8.5030 hx        1 92R      0.104700
     39 H162        8.1140    1.4320   -7.4290 hx        1 92R      0.104700
     40 H163        7.0190    0.5870   -8.6330 hx        1 92R      0.104700
     41 H151        4.5630    0.7940   -8.3350 hx        1 92R      0.104700
     42 H152        4.6140    2.5830   -7.9370 hx        1 92R      0.104700
     43 H153        3.9150    1.3890   -6.7250 hx        1 92R      0.104700
     44 H111        6.1810    2.1360   -6.2200 hn        1 92R      0.452800
@<TRIPOS>BOND
     1    1    2 2   
     2    2    3 1   
     3    2    7 1   
     4    3    4 ar  
     5    3   10 ar  
     6    4    5 ar  
     7    4   25 1   
     8    5    6 ar  
     9    5   26 1   
    10    6   11 ar  
    11    6   27 1   
    12    7    8 1   
    13    7   24 1   
    14    8    9 2   
    15    8   14 1   
    16    9   10 1   
    17    9   28 1   
    18   10   11 ar  
    19   11   12 1   
    20   12   13 1   
    21   13   29 1   
    22   13   30 1   
    23   13   31 1   
    24   14   15 ar  
    25   14   19 ar  
    26   15   16 ar  
    27   15   32 1   
    28   16   17 ar  
    29   16   34 1   
    30   17   18 ar  
    31   17   20 1   
    32   18   19 ar  
    33   18   35 1   
    34   19   33 1   
    35   20   21 1   
    36   20   36 1   
    37   20   37 1   
    38   21   22 1   
    39   21   23 1   
    40   21   44 1   
    41   22   38 1   
    42   22   39 1   
    43   22   40 1   
    44   23   41 1   
    45   23   42 1   
    46   23   43 1   
@<TRIPOS>SUBSTRUCTURE
     1 92R         1 TEMP              0 ****  ****    0 ROOT
