@<TRIPOS>MOLECULE
930
   56    53     1     0     0
SMALL
bcc


@<TRIPOS>ATOM
      1 F2          4.2230    0.3000    0.5340 f         1 930     -0.113000
      2 C21         3.5740    0.1870   -0.5970 c2        1 930      0.048000
      3 C15         2.2040    0.3070   -0.6160 c1        1 930      0.051000
      4 C22         1.5190    0.2290   -1.8180 c1        1 930     -0.113500
      5 C26         2.2200    0.0280   -3.0140 c1        1 930     -0.113500
      6 C27         3.5950   -0.0920   -2.9960 c1        1 930     -0.056000
      7 C28         4.3850   -0.2860   -4.3460 c3        1 930      0.006000
      8 C7          4.6740    1.1370   -5.0270 c3        1 930     -0.172000
      9 C11         4.8490    0.9070   -6.2750 c3        1 930     -0.181000
     10 C8          4.0570   -0.3640   -6.5560 c3        1 930     -0.088000
     11 N4          3.6830   -0.9380   -5.1680 n3        1 930     -0.282000
     12 C24         4.2800   -0.0150   -1.7980 c2        1 930     -0.145000
     13 N2          1.4670    0.3990    0.6320 n         1 930     -0.280000
     14 C50         1.3700    1.6720    1.5550 c2        1 930      0.297000
     15 O3          1.6350    2.8090    1.2300 o         1 930     -0.334000
     16 C12         0.6150    1.3180    2.5560 c3        1 930      0.036000
     17 C13         0.8980   -0.3580    2.6570 c3        1 930     -0.188000
     18 C14         0.9730   -0.7860    1.4770 c3        1 930     -0.027000
     19 N1         -0.7950    1.6780    2.3870 n3        1 930     -0.883000
     20 S1         -1.8060    1.7570    3.7170 s4        1 930      2.076800
     21 O2         -1.1500    1.3030    4.8910 o         1 930     -0.538400
     22 O1         -2.0980    3.1210    4.0690 o         1 930     -0.538400
     23 C6         -3.3130    0.8290    3.4110 c1        1 930     -0.823000
     24 C16        -4.3920    1.5780    2.9530 c2        1 930     -0.041000
     25 C18        -5.6090    0.9600    2.6990 c1        1 930     -0.130000
     26 C17        -5.7510   -0.4260    2.9050 c1        1 930     -0.029000
     27 C4         -4.6790   -1.1690    3.3600 c1        1 930     -0.029000
     28 C5         -3.4520   -0.5430    3.6160 c1        1 930      0.022000
     29 C9         -6.9960   -1.0610    2.6450 c1        1 930     -0.110000
     30 C1         -7.1350   -2.4410    2.8500 c1        1 930     -0.037000
     31 CL1        -8.5510   -3.3730    2.3910 cl        1 930     -0.002000
     32 C2         -6.0430   -3.1960    3.3140 c1        1 930     -0.130000
     33 C3         -4.8220   -2.5740    3.5690 c1        1 930     -0.110000
     34 H24         5.2790   -0.1020   -1.7850 ha        1 930      0.147000
     35 H22         0.5230    0.3160   -1.8320 ha        1 930      0.159500
     36 H26         1.7380   -0.0280   -3.8570 ha        1 930      0.159500
     37 H28         5.2430   -0.7620   -4.1760 h1        1 930      0.080000
     38 H71C        5.4730    1.5320   -4.6470 hc        1 930      0.095000
     39 H72C        3.9030    1.7380   -4.8970 hc        1 930      0.095000
     40 H4          3.9140   -1.8300   -5.1300 hn        1 930      0.154000
     41 H111        5.7810    0.7680   -6.4620 hc        1 930      0.088500
     42 H112        4.5020    1.6490   -6.8080 hc        1 930      0.088500
     43 H81C        3.2630   -0.1590   -7.0570 h1        1 930      0.085500
     44 H82C        4.5830   -0.9730   -7.0230 h1        1 930      0.085500
     45 H141        0.1040   -1.0710    1.1720 h1        1 930      0.105500
     46 H142        1.6210   -1.5380    1.4230 h1        1 930      0.105500
     47 H12         0.8460    1.7830    3.3790 h1        1 930      0.120000
     48 H131        1.7710   -0.5330    3.1460 hc        1 930      0.114500
     49 H132        0.1790   -0.7830    3.1130 hc        1 930      0.114500
     50 H1         -1.0930    1.9560    1.5770 hn        1 930      0.263000
     51 H16        -4.2940    2.5270    2.8110 ha        1 930      0.148000
     52 H5         -2.6810   -1.0740    3.8720 ha        1 930      0.157000
     53 H18        -6.3590    1.4810    2.3810 ha        1 930      0.145000
     54 H9         -7.7570   -0.5320    2.2340 ha        1 930      0.149500
     55 H3         -4.0280   -3.1250    3.9060 ha        1 930      0.149500
     56 H2         -6.1380   -4.1380    3.4540 ha        1 930      0.153000
@<TRIPOS>BOND
     1    1    2 1   
     2    2    3 1   
     3    2   12 1   
     4    3   13 1   
     5    4    5 1   
     6    4   35 1   
     7    5   36 1   
     8    6    7 1   
     9    6   12 1   
    10    7    8 1   
    11    7   11 1   
    12    7   37 1   
    13    8    9 1   
    14    8   38 1   
    15    8   39 1   
    16    9   10 1   
    17    9   41 1   
    18    9   42 1   
    19   10   11 1   
    20   10   43 1   
    21   10   44 1   
    22   11   40 1   
    23   12   34 1   
    24   13   14 1   
    25   13   18 1   
    26   14   15 1   
    27   14   16 1   
    28   16   17 1   
    29   16   19 1   
    30   16   47 1   
    31   17   18 1   
    32   17   48 1   
    33   17   49 1   
    34   18   45 1   
    35   18   46 1   
    36   19   20 1   
    37   19   50 1   
    38   20   21 1   
    39   20   22 1   
    40   23   24 1   
    41   23   28 1   
    42   24   25 1   
    43   24   51 1   
    44   25   53 1   
    45   26   27 1   
    46   26   29 1   
    47   27   33 1   
    48   28   52 1   
    49   29   54 1   
    50   30   31 1   
    51   30   32 1   
    52   32   56 1   
    53   33   55 1   
@<TRIPOS>SUBSTRUCTURE
     1 930         1 TEMP              0 ****  ****    0 ROOT
