@<TRIPOS>MOLECULE
930
   57    60     1     0     0
SMALL
bcc


@<TRIPOS>ATOM
      1 F2          0.3980   -0.9770   -0.6870 f         1 930     -0.138900
      2 C21         1.6510   -0.5670   -0.3740 ca        1 930      0.118900
      3 C15         1.9820   -0.1790    0.9560 ca        1 930     -0.012400
      4 C22         3.2960    0.2580    1.2150 ca        1 930     -0.103000
      5 C26         4.2480    0.2860    0.2040 ca        1 930     -0.133000
      6 C27         3.9260   -0.1180   -1.0980 ca        1 930     -0.027300
      7 C28         4.9900   -0.0750   -2.1670 c3        1 930      0.204800
      8 C7          4.8360    1.2070   -3.0280 c3        1 930     -0.091400
      9 C11         4.8100    0.7400   -4.4770 c3        1 930     -0.103400
     10 C8          4.7160   -0.7930   -4.4210 c3        1 930      0.148800
     11 N4          4.9360   -1.2460   -3.0530 n3        1 930     -0.809200
     12 C24         2.6290   -0.5420   -1.3830 ca        1 930     -0.122000
     13 N2          1.0200   -0.2270    1.9900 n         1 930     -0.352000
     14 C50         0.7330    0.7940    2.8660 c         1 930      0.701500
     15 O3          1.1670    1.9590    2.8570 o         1 930     -0.655500
     16 C12        -0.2860    0.2930    3.9320 c3        1 930      0.044500
     17 C13        -0.6440   -1.1380    3.4810 c3        1 930     -0.115400
     18 C14         0.3140   -1.4600    2.3160 c3        1 930      0.084000
     19 N1         -1.4020    1.2230    4.0920 n3        1 930     -0.989800
     20 S1         -0.9750    2.9060    5.5900 s4        1 930      1.670300
     21 O2         -2.1250    2.6610    6.2830 o         1 930     -0.446400
     22 O1          0.2220    2.4230    6.0200 o         1 930     -0.446400
     23 C6         -0.9860    4.0880    4.5750 ca        1 930     -0.618500
     24 C16        -2.1990    4.8410    4.3830 ca        1 930     -0.052000
     25 C18        -2.2510    5.9130    3.5440 ca        1 930     -0.114000
     26 C17        -1.0960    6.3280    2.8140 ca        1 930      0.067000
     27 C4          0.1140    5.5940    2.9770 ca        1 930     -0.110000
     28 C5          0.1450    4.4930    3.8500 ca        1 930      0.142000
     29 C9         -1.1280    7.4370    1.9400 ca        1 930     -0.155000
     30 C1          0.0150    7.8020    1.2470 ca        1 930      0.091400
     31 CL1        -0.0130    9.1260    0.2030 cl        1 930     -0.018400
     32 C2          1.2240    7.0710    1.4010 ca        1 930     -0.130000
     33 C3          1.2720    5.9920    2.2460 ca        1 930     -0.056000
     34 H24         2.3540   -0.8700   -2.3990 ha        1 930      0.176000
     35 H22         3.5700    0.5900    2.2290 ha        1 930      0.149000
     36 H26         5.2700    0.6240    0.4380 ha        1 930      0.148000
     37 H28         5.9910   -0.0370   -1.6410 h1        1 930      0.048700
     38 H71C        3.8930    1.7460   -2.7670 hc        1 930      0.053700
     39 H72C        5.6920    1.8980   -2.8380 hc        1 930      0.053700
     40 H4          5.7830   -1.7750   -2.9770 hn        1 930      0.367800
     41 H111        5.7380    1.0570   -5.0140 hc        1 930      0.055200
     42 H112        3.9370    1.1690   -5.0260 hc        1 930      0.055200
     43 H81C        3.6830   -1.1250   -4.7180 h1        1 930      0.052200
     44 H82C        5.4440   -1.2630   -5.1350 h1        1 930      0.052200
     45 H141        1.0520   -2.2550    2.6150 h1        1 930      0.083200
     46 H142       -0.2520   -1.8190    1.4120 h1        1 930      0.083200
     47 H12         0.2630    0.2540    4.9220 h1        1 930      0.123700
     48 H131       -1.7050   -1.2240    3.1390 hc        1 930      0.079700
     49 H132       -0.4920   -1.8600    4.3210 hc        1 930      0.079700
     50 H1         -2.2050    0.7280    4.4530 hn        1 930      0.411800
     51 H16        -3.0970    4.5330    4.9490 ha        1 930      0.166000
     52 H5          1.0950    3.9230    3.9560 ha        1 930      0.192000
     53 H18        -3.1870    6.4830    3.4160 ha        1 930      0.170000
     54 H9         -2.0670    8.0020    1.8210 ha        1 930      0.173000
     55 H3          2.2030    5.4130    2.3690 ha        1 930      0.164000
     56 H2          2.1180    7.3820    0.8340 ha        1 930      0.175000
     57 H121       -1.6500    1.6290    3.2030 hn        1 930      0.411800
@<TRIPOS>BOND
     1    1    2 1   
     2    2    3 ar  
     3    2   12 ar  
     4    3    4 ar  
     5    3   13 1   
     6    4    5 ar  
     7    4   35 1   
     8    5    6 ar  
     9    5   36 1   
    10    6    7 1   
    11    6   12 ar  
    12    7    8 1   
    13    7   11 1   
    14    7   37 1   
    15    8    9 1   
    16    8   38 1   
    17    8   39 1   
    18    9   10 1   
    19    9   41 1   
    20    9   42 1   
    21   10   11 1   
    22   10   43 1   
    23   10   44 1   
    24   11   40 1   
    25   12   34 1   
    26   13   14 1   
    27   13   18 1   
    28   14   15 2   
    29   14   16 1   
    30   16   17 1   
    31   16   19 1   
    32   16   47 1   
    33   17   18 1   
    34   17   48 1   
    35   17   49 1   
    36   18   45 1   
    37   18   46 1   
    38   19   50 1   
    39   19   57 1   
    40   20   21 1   
    41   20   22 1   
    42   20   23 1   
    43   23   24 ar  
    44   23   28 ar  
    45   24   25 ar  
    46   24   51 1   
    47   25   26 ar  
    48   25   53 1   
    49   26   27 ar  
    50   26   29 ar  
    51   27   28 ar  
    52   27   33 ar  
    53   28   52 1   
    54   29   30 ar  
    55   29   54 1   
    56   30   31 1   
    57   30   32 ar  
    58   32   33 ar  
    59   32   56 1   
    60   33   55 1   
@<TRIPOS>SUBSTRUCTURE
     1 930         1 TEMP              0 ****  ****    0 ROOT
