@<TRIPOS>MOLECULE
930
   57    60     1     0     0
SMALL
bcc


@<TRIPOS>ATOM
      1 F2          0.3730   -0.9860   -0.7700 f         1 930     -0.136900
      2 C21         1.6000   -0.5010   -0.4600 ca        1 930      0.123900
      3 C15         1.9060   -0.0710    0.8630 ca        1 930     -0.004400
      4 C22         3.1940    0.4460    1.1140 ca        1 930     -0.104000
      5 C26         4.1450    0.5110    0.1030 ca        1 930     -0.116000
      6 C27         3.8480    0.0670   -1.1900 ca        1 930     -0.046300
      7 C28         4.8970    0.1380   -2.2650 c3        1 930      0.191800
      8 C7          4.4720    1.0990   -3.4060 c3        1 930     -0.098400
      9 C11         4.8400    0.3890   -4.7020 c3        1 930     -0.104400
     10 C8          5.4150   -0.9760   -4.2890 c3        1 930      0.139800
     11 N4          5.2570   -1.1630   -2.8480 n7        1 930     -0.784200
     12 C24         2.5780   -0.4370   -1.4670 ca        1 930     -0.151000
     13 N2          0.9470   -0.1470    1.8970 n         1 930     -0.352000
     14 C50         0.6920    0.8430    2.8210 c         1 930      0.700500
     15 O3          1.1290    2.0060    2.8370 o         1 930     -0.652500
     16 C12        -0.2950    0.3070    3.8990 c3        1 930      0.045500
     17 C13        -0.6640   -1.1100    3.4130 c3        1 930     -0.115400
     18 C14         0.2580   -1.3930    2.2120 c3        1 930      0.083000
     19 N1         -1.4060    1.2290    4.1230 n8        1 930     -0.989800
     20 S1         -0.9280    2.8730    5.6650 s4        1 930      1.671300
     21 O2         -2.0580    2.6040    6.3820 o         1 930     -0.444900
     22 O1          0.2800    2.3710    6.0380 o         1 930     -0.444900
     23 C6         -0.9670    4.0870    4.6900 ca        1 930     -0.619500
     24 C16        -2.1840    4.8460    4.5580 ca        1 930     -0.052000
     25 C18        -2.2590    5.9450    3.7570 ca        1 930     -0.113000
     26 C17        -1.1250    6.3830    3.0070 ca        1 930      0.068000
     27 C4          0.0890    5.6430    3.1110 ca        1 930     -0.110000
     28 C5          0.1430    4.5140    3.9460 ca        1 930      0.142000
     29 C9         -1.1790    7.5200    2.1720 ca        1 930     -0.155000
     30 C1         -0.0570    7.9080    1.4590 ca        1 930      0.091400
     31 Cl1        -0.1120    9.2660    0.4600 cl        1 930     -0.017400
     32 C2          1.1550    7.1720    1.5530 ca        1 930     -0.130000
     33 C3          1.2260    6.0640    2.3610 ca        1 930     -0.056000
     34 H24         2.3180   -0.7830   -2.4800 ha        1 930      0.163000
     35 H22         3.4470    0.8120    2.1220 ha        1 930      0.152000
     36 H26         5.1470    0.9090    0.3310 ha        1 930      0.155000
     37 H28         5.8540    0.5340   -1.8070 h1        1 930      0.077700
     38 H71C        3.3750    1.3080   -3.3610 hc        1 930      0.051700
     39 H72C        5.0110    2.0710   -3.3060 hc        1 930      0.051700
     40 H4          4.5450   -1.8440   -2.6570 hn        1 930      0.350800
     41 H111        3.9430    0.2590   -5.3550 hc        1 930      0.054200
     42 H112        5.5980    0.9720   -5.2790 hc        1 930      0.054200
     43 H81C        6.5190   -1.0090   -4.5060 h1        1 930      0.056200
     44 H82C        4.9280   -1.8070   -4.8650 h1        1 930      0.056200
     45 H141        1.0080   -2.1930    2.4650 h1        1 930      0.083700
     46 H142       -0.3350   -1.7300    1.3160 h1        1 930      0.083700
     47 H12         0.2840    0.2370    4.8700 h1        1 930      0.124700
     48 H131       -1.7350   -1.1870    3.1000 hc        1 930      0.080700
     49 H132       -0.4880   -1.8580    4.2250 hc        1 930      0.080700
     50 H1         -1.6850    1.6600    3.2550 hn        1 930      0.411300
     51 H16        -3.0660    4.5210    5.1400 ha        1 930      0.166000
     52 H5          1.0940    3.9400    4.0050 ha        1 930      0.191000
     53 H18        -3.1970    6.5200    3.6750 ha        1 930      0.171000
     54 H9         -2.1210    8.0900    2.0990 ha        1 930      0.173000
     55 H3          2.1590    5.4820    2.4370 ha        1 930      0.164000
     56 H2          2.0330    7.5010    0.9720 ha        1 930      0.176000
     57 H121       -2.1960    0.7230    4.4970 hn        1 930      0.411300
@<TRIPOS>BOND
     1    1    2 1   
     2    2    3 ar  
     3    2   12 ar  
     4    3    4 ar  
     5    3   13 1   
     6    4    5 ar  
     7    4   35 1   
     8    5    6 ar  
     9    5   36 1   
    10    6    7 1   
    11    6   12 ar  
    12    7    8 1   
    13    7   11 1   
    14    7   37 1   
    15    8    9 1   
    16    8   38 1   
    17    8   39 1   
    18    9   10 1   
    19    9   41 1   
    20    9   42 1   
    21   10   11 1   
    22   10   43 1   
    23   10   44 1   
    24   11   40 1   
    25   12   34 1   
    26   13   14 1   
    27   13   18 1   
    28   14   15 2   
    29   14   16 1   
    30   16   17 1   
    31   16   19 1   
    32   16   47 1   
    33   17   18 1   
    34   17   48 1   
    35   17   49 1   
    36   18   45 1   
    37   18   46 1   
    38   19   50 1   
    39   19   57 1   
    40   20   21 1   
    41   20   22 1   
    42   20   23 1   
    43   23   24 ar  
    44   23   28 ar  
    45   24   25 ar  
    46   24   51 1   
    47   25   26 ar  
    48   25   53 1   
    49   26   27 ar  
    50   26   29 ar  
    51   27   28 ar  
    52   27   33 ar  
    53   28   52 1   
    54   29   30 ar  
    55   29   54 1   
    56   30   31 1   
    57   30   32 ar  
    58   32   33 ar  
    59   32   56 1   
    60   33   55 1   
@<TRIPOS>SUBSTRUCTURE
     1 930         1 TEMP              0 ****  ****    0 ROOT
