@<TRIPOS>MOLECULE
930
   56    60     1     0     0
SMALL
bcc


@<TRIPOS>ATOM
      1 F2         -3.5220   -2.5670    1.5240 f         1 930     -0.145900
      2 C21        -3.6010   -1.7190    0.4670 ca        1 930      0.087900
      3 C15        -2.4910   -1.5180   -0.4050 ca        1 930      0.035600
      4 C22        -2.6600   -0.6100   -1.4730 ca        1 930     -0.128000
      5 C26        -3.8630    0.0560   -1.6700 ca        1 930     -0.124000
      6 C27        -4.9500   -0.1550   -0.8140 ca        1 930     -0.061300
      7 C28        -6.2330    0.5990   -1.0490 c3        1 930      0.210800
      8 C7         -6.3470    1.7910   -0.0630 c3        1 930     -0.092400
      9 C11        -7.7160    1.6700    0.5910 c3        1 930     -0.102400
     10 C8         -8.2640    0.3010    0.1590 c3        1 930      0.149800
     11 N4         -7.4230   -0.2520   -0.8960 n3        1 930     -0.804200
     12 C24        -4.8150   -1.0450    0.2480 ca        1 930     -0.118000
     13 N2         -1.2660   -2.1820   -0.2100 n         1 930     -0.375000
     14 C50        -0.0210   -1.7280   -0.6420 c         1 930      0.682500
     15 O3          0.2270   -0.6100   -1.1150 o         1 930     -0.626500
     16 C12         1.0460   -2.8480   -0.4470 c3        1 930      0.170500
     17 C13         0.2290   -4.0630    0.0510 c3        1 930     -0.111400
     18 C14        -1.2120   -3.5630    0.2490 c3        1 930      0.084000
     19 N1          2.1160   -2.4440    0.4070 n3        1 930     -0.897100
     20 S1          3.6590   -2.2420   -0.0810 sy        1 930      1.521200
     21 O2          4.5100   -2.9780    0.7680 o         1 930     -0.652300
     22 O1          3.7480   -2.5350   -1.4570 o         1 930     -0.652300
     23 C6          3.9240   -0.6030    0.1860 ca        1 930     -0.398500
     24 C16         4.9620   -0.2100    1.0770 ca        1 930     -0.044000
     25 C18         5.2510    1.1120    1.2930 ca        1 930     -0.140000
     26 C17         4.5110    2.1300    0.6310 ca        1 930      0.020000
     27 C4          3.4700    1.7540   -0.2550 ca        1 930     -0.079000
     28 C5          3.1980    0.3770   -0.4600 ca        1 930      0.044000
     29 C9          4.7880    3.5080    0.8360 ca        1 930     -0.135000
     30 C1          4.0440    4.4610    0.1780 ca        1 930      0.045400
     31 CL1         4.3660    6.1130    0.4150 cl        1 930     -0.085400
     32 C2          2.9960    4.0920   -0.7070 ca        1 930     -0.138000
     33 C3          2.7180    2.7650   -0.9160 ca        1 930     -0.080000
     34 H24        -5.6580   -1.2360    0.9310 ha        1 930      0.162000
     35 H22        -1.8180   -0.4110   -2.1580 ha        1 930      0.162000
     36 H26        -3.9540    0.7550   -2.5150 ha        1 930      0.138000
     37 H28        -6.1930    1.0100   -2.1030 h1        1 930      0.041700
     38 H71C       -5.5350    1.7440    0.7040 hc        1 930      0.055200
     39 H72C       -6.2430    2.7560   -0.6150 hc        1 930      0.055200
     40 H4         -7.9200   -0.3020   -1.7640 hn        1 930      0.359800
     41 H111       -7.6420    1.7320    1.7040 hc        1 930      0.049700
     42 H112       -8.3950    2.4900    0.2490 hc        1 930      0.049700
     43 H81C       -8.2230   -0.4180    1.0250 h1        1 930      0.046200
     44 H82C       -9.3350    0.3840   -0.1660 h1        1 930      0.046200
     45 H141       -1.4960   -3.6060    1.3370 h1        1 930      0.065200
     46 H142       -1.9420   -4.1910   -0.3290 h1        1 930      0.065200
     47 H12         1.4670   -3.0680   -1.4770 h1        1 930      0.116700
     48 H131        0.2590   -4.8730   -0.7170 hc        1 930      0.071200
     49 H132        0.6260   -4.4820    1.0080 hc        1 930      0.071200
     50 H1          1.8450   -2.3040    1.3510 hn        1 930      0.449800
     51 H16         5.5380   -1.0010    1.5920 ha        1 930      0.164000
     52 H5          2.3750    0.1040   -1.1510 ha        1 930      0.171000
     53 H18         6.0590    1.4070    1.9800 ha        1 930      0.143000
     54 H9          5.6010    3.7900    1.5240 ha        1 930      0.153000
     55 H3          1.9060    2.4590   -1.5950 ha        1 930      0.152000
     56 H2          2.4170    4.8780   -1.2160 ha        1 930      0.152000
@<TRIPOS>BOND
     1    1    2 1   
     2    2    3 ar  
     3    2   12 ar  
     4    3    4 ar  
     5    3   13 1   
     6    4    5 ar  
     7    4   35 1   
     8    5    6 ar  
     9    5   36 1   
    10    6    7 1   
    11    6   12 ar  
    12    7    8 1   
    13    7   11 1   
    14    7   37 1   
    15    8    9 1   
    16    8   38 1   
    17    8   39 1   
    18    9   10 1   
    19    9   41 1   
    20    9   42 1   
    21   10   11 1   
    22   10   43 1   
    23   10   44 1   
    24   11   40 1   
    25   12   34 1   
    26   13   14 1   
    27   13   18 1   
    28   14   15 2   
    29   14   16 1   
    30   16   17 1   
    31   16   19 1   
    32   16   47 1   
    33   17   18 1   
    34   17   48 1   
    35   17   49 1   
    36   18   45 1   
    37   18   46 1   
    38   19   20 1   
    39   19   50 1   
    40   20   21 2   
    41   20   22 2   
    42   20   23 1   
    43   23   24 ar  
    44   23   28 ar  
    45   24   25 ar  
    46   24   51 1   
    47   25   26 ar  
    48   25   53 1   
    49   26   27 ar  
    50   26   29 ar  
    51   27   28 ar  
    52   27   33 ar  
    53   28   52 1   
    54   29   30 ar  
    55   29   54 1   
    56   30   31 1   
    57   30   32 ar  
    58   32   33 ar  
    59   32   56 1   
    60   33   55 1   
@<TRIPOS>SUBSTRUCTURE
     1 930         1 TEMP              0 ****  ****    0 ROOT
