@<TRIPOS>MOLECULE
930
   57    60     1     0     0
SMALL
bcc


@<TRIPOS>ATOM
      1 F2          0.4000   -0.9990   -0.6580 f         1 930     -0.138900
      2 C21         1.6510   -0.5720   -0.3620 ca        1 930      0.118900
      3 C15         1.9920   -0.1690    0.9600 ca        1 930     -0.011400
      4 C22         3.3040    0.2860    1.2000 ca        1 930     -0.103000
      5 C26         4.2450    0.3160    0.1790 ca        1 930     -0.133000
      6 C27         3.9130   -0.1030   -1.1160 ca        1 930     -0.027300
      7 C28         4.9640   -0.0570   -2.1970 c3        1 930      0.204800
      8 C7          4.7830    1.2130   -3.0700 c3        1 930     -0.091400
      9 C11         4.7480    0.7300   -4.5140 c3        1 930     -0.103400
     10 C8          4.6760   -0.8030   -4.4410 c3        1 930      0.148800
     11 N4          4.9170   -1.2380   -3.0690 n3        1 930     -0.809200
     12 C24         2.6180   -0.5440   -1.3830 ca        1 930     -0.122000
     13 N2          1.0430   -0.2190    2.0060 n         1 930     -0.352000
     14 C50         0.7590    0.8040    2.8800 c         1 930      0.700500
     15 O3          1.1830    1.9720    2.8590 o         1 930     -0.655500
     16 C12        -0.2410    0.2990    3.9620 c3        1 930      0.044500
     17 C13        -0.5920   -1.1370    3.5230 c3        1 930     -0.115400
     18 C14         0.3530   -1.4570    2.3480 c3        1 930      0.084000
     19 N1         -1.3630    1.2200    4.1320 n3        1 930     -0.989800
     20 S1         -0.9320    2.9140    5.6160 s4        1 930      1.670300
     21 O2         -2.0700    2.6630    6.3250 o         1 930     -0.446400
     22 O1          0.2760    2.4440    6.0330 o         1 930     -0.446400
     23 C6         -0.9670    4.0910    4.5960 ca        1 930     -0.618500
     24 C16        -2.1880    4.8330    4.4170 ca        1 930     -0.052000
     25 C18        -2.2610    5.9010    3.5740 ca        1 930     -0.114000
     26 C17        -1.1200    6.3210    2.8260 ca        1 930      0.067000
     27 C4          0.0990    5.5990    2.9770 ca        1 930     -0.110000
     28 C5          0.1520    4.5020    3.8550 ca        1 930      0.142000
     29 C9         -1.1730    7.4260    1.9480 ca        1 930     -0.155000
     30 C1         -0.0430    7.7980    1.2380 ca        1 930      0.091400
     31 CL1        -0.0960    9.1170    0.1880 cl        1 930     -0.018400
     32 C2          1.1750    7.0780    1.3790 ca        1 930     -0.130000
     33 C3          1.2430    6.0030    2.2280 ca        1 930     -0.056000
     34 H24         2.3350   -0.8840   -2.3930 ha        1 930      0.176000
     35 H22         3.5860    0.6300    2.2090 ha        1 930      0.149000
     36 H26         5.2650    0.6680    0.3990 ha        1 930      0.148000
     37 H28         5.9710    0.0010   -1.6830 h1        1 930      0.048700
     38 H71C        5.6300    1.9190   -2.8980 hc        1 930      0.053700
     39 H72C        3.8350    1.7410   -2.8050 hc        1 930      0.053700
     40 H4          5.7710   -1.7550   -2.9970 hn        1 930      0.367800
     41 H111        3.8630    1.1400   -5.0580 hc        1 930      0.055200
     42 H112        5.6660    1.0530   -5.0640 hc        1 930      0.055200
     43 H81C        3.6440   -1.1530   -4.7230 h1        1 930      0.052200
     44 H82C        5.4030   -1.2720   -5.1560 h1        1 930      0.052200
     45 H141        1.1020   -2.2440    2.6410 h1        1 930      0.083200
     46 H142       -0.2220   -1.8260    1.4540 h1        1 930      0.083200
     47 H12         0.3210    0.2700    4.9450 h1        1 930      0.123700
     48 H131       -0.4240   -1.8530    4.3650 hc        1 930      0.079700
     49 H132       -1.6570   -1.2340    3.1950 hc        1 930      0.079700
     50 H1         -1.6260    1.6200    3.2440 hn        1 930      0.411800
     51 H16        -3.0760    4.5200    4.9970 ha        1 930      0.166000
     52 H5          1.1070    3.9420    3.9500 ha        1 930      0.192000
     53 H18        -3.2040    6.4620    3.4560 ha        1 930      0.170000
     54 H9         -2.1190    7.9820    1.8390 ha        1 930      0.173000
     55 H3          2.1810    5.4340    2.3410 ha        1 930      0.164000
     56 H2          2.0580    7.3940    0.7990 ha        1 930      0.175000
     57 H121       -2.1580    0.7210    4.5060 hn        1 930      0.411800
@<TRIPOS>BOND
     1    1    2 1   
     2    2    3 ar  
     3    2   12 ar  
     4    3    4 ar  
     5    3   13 1   
     6    4    5 ar  
     7    4   35 1   
     8    5    6 ar  
     9    5   36 1   
    10    6    7 1   
    11    6   12 ar  
    12    7    8 1   
    13    7   11 1   
    14    7   37 1   
    15    8    9 1   
    16    8   38 1   
    17    8   39 1   
    18    9   10 1   
    19    9   41 1   
    20    9   42 1   
    21   10   11 1   
    22   10   43 1   
    23   10   44 1   
    24   11   40 1   
    25   12   34 1   
    26   13   14 1   
    27   13   18 1   
    28   14   15 2   
    29   14   16 1   
    30   16   17 1   
    31   16   19 1   
    32   16   47 1   
    33   17   18 1   
    34   17   48 1   
    35   17   49 1   
    36   18   45 1   
    37   18   46 1   
    38   19   50 1   
    39   19   57 1   
    40   20   21 1   
    41   20   22 1   
    42   20   23 1   
    43   23   24 ar  
    44   23   28 ar  
    45   24   25 ar  
    46   24   51 1   
    47   25   26 ar  
    48   25   53 1   
    49   26   27 ar  
    50   26   29 ar  
    51   27   28 ar  
    52   27   33 ar  
    53   28   52 1   
    54   29   30 ar  
    55   29   54 1   
    56   30   31 1   
    57   30   32 ar  
    58   32   33 ar  
    59   32   56 1   
    60   33   55 1   
@<TRIPOS>SUBSTRUCTURE
     1 930         1 TEMP              0 ****  ****    0 ROOT
