@<TRIPOS>MOLECULE
931
   56    54     1     0     0
SMALL
bcc


@<TRIPOS>ATOM
      1 F1         -0.0300   -1.7790    2.1680 f         1 931     -0.110000
      2 C7          1.2950   -1.6010    2.2570 c2        1 931      0.050000
      3 C6          1.9130   -1.6050    3.4980 c2        1 931     -0.129000
      4 C1          6.1550   -0.7450    4.6110 c3        1 931     -0.094000
      5 N1          4.6850   -0.4000    5.1410 n3        1 931     -0.268000
      6 C11         3.2840   -1.4220    3.5910 c1        1 931     -0.079000
      7 C10         4.0360   -1.2350    2.4420 c1        1 931     -0.126000
      8 C9          3.4180   -1.2310    1.2010 c1        1 931     -0.126000
      9 C8          2.0470   -1.4150    1.1080 c1        1 931      0.057000
     10 N2          1.4230   -1.4710   -0.1660 n         1 931     -0.281000
     11 C25         0.6940   -0.5110   -0.7220 c2        1 931      0.292000
     12 O3          0.9150    0.6820   -0.6560 o         1 931     -0.349000
     13 C12         1.0790   -2.7340   -0.9360 c3        1 931     -0.030000
     14 C13        -0.2080   -2.3980   -1.7570 c3        1 931     -0.188000
     15 C14        -0.6630   -1.1920   -1.2430 c3        1 931      0.023000
     16 N3         -1.4140   -0.3720   -2.2110 n3        1 931     -0.868000
     17 S1         -2.9620    0.0720   -1.8840 s4        1 931      2.076800
     18 C70         4.9990   -2.6660    5.0010 c3        1 931     -0.176000
     19 O2         -3.8190   -1.0750   -1.7660 o         1 931     -0.538900
     20 O1         -3.0750    0.6410   -0.5690 o         1 931     -0.538900
     21 C15        -3.5540    1.1940   -3.1240 c1        1 931     -0.844000
     22 C80         6.3830   -2.0170    4.9410 c3        1 931     -0.181000
     23 C24        -4.0270    2.3150   -2.4530 c2        1 931      0.046000
     24 C16        -3.9010    0.9820   -4.4550 c1        1 931     -0.044000
     25 C17        -4.7210    1.8890   -5.1130 c1        1 931     -0.140000
     26 C18        -5.2020    3.0250   -4.4340 c1        1 931      0.020000
     27 C19        -6.0330    3.9450   -5.1000 c1        1 931     -0.135000
     28 C20        -6.5060    5.0650   -4.4290 c1        1 931     -0.033000
     29 CL1        -7.6210    6.1520   -5.2120 cl        1 931     -0.006000
     30 C23        -4.8580    3.2350   -3.1190 c2        1 931     -0.080000
     31 C22        -5.3390    4.3700   -2.4400 c2        1 931     -0.081000
     32 C21        -6.1580    5.2780   -3.0980 c2        1 931     -0.138000
     33 C28         3.9710   -1.4740    4.9530 c3        1 931     -0.003000
     34 H6          1.3830   -1.7370    4.3070 ha        1 931      0.155000
     35 H11C        6.1960   -0.6380    3.6400 h1        1 931      0.086500
     36 H12C        6.8140   -0.1620    5.0430 h1        1 931      0.086500
     37 H1          4.3370    0.2870    4.6490 hn        1 931      0.150000
     38 H801        6.8220   -2.0680    5.8170 hc        1 931      0.088000
     39 H802        6.9340   -2.4520    4.2580 hc        1 931      0.088000
     40 H28         3.3070   -1.5700    5.6650 h1        1 931      0.110000
     41 H10         5.0010   -1.1060    2.5070 ha        1 931      0.153500
     42 H9          3.9480   -1.1000    0.3920 ha        1 931      0.153500
     43 H121        1.8110   -2.9710   -1.5390 h1        1 931      0.105500
     44 H122        0.9000   -3.4690   -0.3150 h1        1 931      0.105500
     45 H14        -1.3190   -1.3140   -0.5270 h1        1 931      0.158000
     46 H131        0.0100   -2.3030   -2.7060 hc        1 931      0.110500
     47 H132       -0.8830   -3.0980   -1.6310 hc        1 931      0.110500
     48 H3         -1.0300   -0.1390   -3.0060 hn        1 931      0.243000
     49 H701        4.8970   -3.1680    5.8350 hc        1 931      0.091500
     50 H702        4.8690   -3.2560    4.2310 hc        1 931      0.091500
     51 H24        -3.7880    2.4600   -1.5190 ha        1 931      0.170000
     52 H16        -3.5730    0.1910   -4.9240 ha        1 931      0.164000
     53 H17        -4.9650    1.7400   -6.0460 ha        1 931      0.143000
     54 H19        -6.2920    3.7860   -6.0270 ha        1 931      0.153000
     55 H21        -6.4910    6.0650   -2.6260 ha        1 931      0.153000
     56 H22        -5.0950    4.5200   -1.5070 ha        1 931      0.151000
@<TRIPOS>BOND
     1    1    2 1   
     2    2    3 1   
     3    2    9 1   
     4    3    6 1   
     5    3   34 1   
     6    4    5 1   
     7    4   22 1   
     8    4   35 1   
     9    4   36 1   
    10    5   33 1   
    11    5   37 1   
    12    6   33 1   
    13    7    8 1   
    14    7   41 1   
    15    8   42 1   
    16    9   10 1   
    17   10   11 1   
    18   10   13 1   
    19   11   12 1   
    20   11   15 1   
    21   13   14 1   
    22   13   43 1   
    23   13   44 1   
    24   14   15 1   
    25   14   46 1   
    26   14   47 1   
    27   15   16 1   
    28   15   45 1   
    29   16   17 1   
    30   16   48 1   
    31   17   19 1   
    32   17   20 1   
    33   18   22 1   
    34   18   33 1   
    35   18   49 1   
    36   18   50 1   
    37   21   23 1   
    38   21   24 1   
    39   22   38 1   
    40   22   39 1   
    41   23   30 1   
    42   23   51 1   
    43   24   52 1   
    44   25   26 1   
    45   25   53 1   
    46   26   30 1   
    47   27   28 1   
    48   27   54 1   
    49   28   32 1   
    50   30   31 1   
    51   31   32 1   
    52   31   56 1   
    53   32   55 1   
    54   33   40 1   
@<TRIPOS>SUBSTRUCTURE
     1 931         1 TEMP              0 ****  ****    0 ROOT
