@<TRIPOS>MOLECULE
931
   57    60     1     0     0
SMALL
bcc


@<TRIPOS>ATOM
      1 F1          0.7330    1.7840    0.5710 f         1 931     -0.140900
      2 C7          1.9400    1.2090    0.3440 ca        1 931      0.117900
      3 C6          2.9430    1.3360    1.3200 ca        1 931     -0.154000
      4 C1          7.4800    0.0900    2.0950 c3        1 931      0.149800
      5 N1          6.5760    1.1460    1.6520 n7        1 931     -0.809200
      6 C11         4.1930    0.7470    1.1310 ca        1 931     -0.029300
      7 C10         4.4440    0.0280   -0.0430 ca        1 931     -0.098000
      8 C9          3.4690   -0.0920   -1.0250 ca        1 931     -0.109000
      9 C8          2.2010    0.5020   -0.8630 ca        1 931     -0.008400
     10 N2          1.2160    0.3860   -1.8700 n         1 931     -0.351000
     11 C25         0.9250   -0.7660   -2.5690 c         1 931      0.695500
     12 O3          1.3340   -1.9180   -2.3570 o         1 931     -0.635500
     13 C12         0.5500    1.5580   -2.4250 c3        1 931      0.083000
     14 C13        -0.4070    1.0570   -3.5250 c3        1 931     -0.113400
     15 C14        -0.0740   -0.4360   -3.7180 c3        1 931      0.040500
     16 N3         -1.2080   -1.3600   -3.7300 n8        1 931     -0.990800
     17 S1         -0.8560   -3.2000   -5.0120 s4        1 931      1.665300
     18 C70         5.2990   -0.3920    3.0760 c3        1 931     -0.091400
     19 O2         -1.9830   -2.9890   -5.7560 o         1 931     -0.445900
     20 O1          0.3720   -2.8400   -5.4720 o         1 931     -0.445900
     21 C15        -0.9720   -4.2630   -3.8730 ca        1 931     -0.605500
     22 C80         6.7640   -0.8030    3.1200 c3        1 931     -0.102400
     23 C24        -2.1600   -4.9690   -3.6240 ca        1 931      0.092000
     24 C16         0.1710   -4.5870   -3.0670 ca        1 931     -0.017000
     25 C17         0.1140   -5.5530   -2.1020 ca        1 931     -0.119000
     26 C18        -1.0890   -6.2740   -1.8610 ca        1 931      0.074000
     27 C19        -1.1680   -7.2830   -0.8700 ca        1 931     -0.155000
     28 C20        -2.3550   -7.9600   -0.6670 ca        1 931      0.087400
     29 Cl1        -2.4610   -9.1640    0.5100 cl        1 931     -0.016400
     30 C23        -2.2420   -5.9650   -2.6420 ca        1 931     -0.102000
     31 C22        -3.4530   -6.6850   -2.4070 ca        1 931     -0.074000
     32 C21        -3.5100   -7.6570   -1.4450 ca        1 931     -0.121000
     33 C28         5.2400    0.8920    2.2080 c3        1 931      0.204800
     34 H6          2.7180    1.9070    2.2350 ha        1 931      0.159000
     35 H1          6.9030    2.0480    1.9390 hn        1 931      0.367800
     36 H801        6.8920   -1.8820    2.8590 hc        1 931      0.054200
     37 H802        7.1920   -0.6480    4.1410 hc        1 931      0.054200
     38 H28         4.9280    1.7570    2.8670 h1        1 931      0.048700
     39 H10         5.4310   -0.4390   -0.2000 ha        1 931      0.164000
     40 H9          3.6870   -0.6710   -1.9380 ha        1 931      0.151000
     41 H121        1.3120    2.2660   -2.8530 h1        1 931      0.083200
     42 H122       -0.0140    2.0900   -1.6090 h1        1 931      0.083200
     43 H14         0.4860   -0.5770   -4.6930 h1        1 931      0.124700
     44 H131       -0.2370    1.6200   -4.4750 hc        1 931      0.079200
     45 H132       -1.4680    1.2200   -3.2120 hc        1 931      0.079200
     46 H3         -2.0180   -0.8970   -4.1170 hn        1 931      0.413300
     47 H701        4.9050   -0.1790    4.0990 hc        1 931      0.054700
     48 H702        4.6720   -1.2010    2.6270 hc        1 931      0.054700
     49 H24        -3.0620   -4.7420   -4.2290 ha        1 931      0.165000
     50 H16         1.1090   -4.0190   -3.2300 ha        1 931      0.191000
     51 H17         1.0040   -5.7850   -1.4920 ha        1 931      0.174000
     52 H19        -0.2710   -7.5150   -0.2710 ha        1 931      0.175000
     53 H21        -4.4430   -8.2170   -1.2610 ha        1 931      0.176000
     54 H22        -4.3410   -6.4460   -3.0150 ha        1 931      0.158000
     55 H11C        8.4280    0.5110    2.5250 h1        1 931      0.050700
     56 H32        -1.4250   -1.6570   -2.7910 hn        1 931      0.413300
     57 H12C        7.7560   -0.5130    1.1850 h1        1 931      0.050700
@<TRIPOS>BOND
     1    1    2 1   
     2    2    3 ar  
     3    2    9 ar  
     4    3    6 ar  
     5    3   34 1   
     6    4    5 1   
     7    4   22 1   
     8    4   55 1   
     9    4   57 1   
    10    5   33 1   
    11    5   35 1   
    12    6    7 ar  
    13    6   33 1   
    14    7    8 ar  
    15    7   39 1   
    16    8    9 ar  
    17    8   40 1   
    18    9   10 1   
    19   10   11 1   
    20   10   13 1   
    21   11   12 2   
    22   11   15 1   
    23   13   14 1   
    24   13   41 1   
    25   13   42 1   
    26   14   15 1   
    27   14   44 1   
    28   14   45 1   
    29   15   16 1   
    30   15   43 1   
    31   16   46 1   
    32   16   56 1   
    33   17   19 1   
    34   17   20 1   
    35   17   21 1   
    36   18   22 1   
    37   18   33 1   
    38   18   47 1   
    39   18   48 1   
    40   21   23 ar  
    41   21   24 ar  
    42   22   36 1   
    43   22   37 1   
    44   23   30 ar  
    45   23   49 1   
    46   24   25 ar  
    47   24   50 1   
    48   25   26 ar  
    49   25   51 1   
    50   26   27 ar  
    51   26   30 ar  
    52   27   28 ar  
    53   27   52 1   
    54   28   29 1   
    55   28   32 ar  
    56   30   31 ar  
    57   31   32 ar  
    58   31   54 1   
    59   32   53 1   
    60   33   38 1   
@<TRIPOS>SUBSTRUCTURE
     1 931         1 TEMP              0 ****  ****    0 ROOT
