@<TRIPOS>MOLECULE
931
   57    60     1     0     0
SMALL
bcc


@<TRIPOS>ATOM
      1 F1          0.7150    1.7830    0.5730 f         1 931     -0.140900
      2 C7          1.9240    1.2110    0.3520 ca        1 931      0.117900
      3 C6          2.9230    1.3400    1.3330 ca        1 931     -0.154000
      4 C1          7.4570    0.0990    2.1320 c3        1 931      0.149800
      5 N1          6.5550    1.1540    1.6830 n3        1 931     -0.809200
      6 C11         4.1750    0.7530    1.1500 ca        1 931     -0.029300
      7 C10         4.4330    0.0340   -0.0220 ca        1 931     -0.098000
      8 C9          3.4630   -0.0870   -1.0100 ca        1 931     -0.109000
      9 C8          2.1930    0.5040   -0.8540 ca        1 931     -0.008400
     10 N2          1.2130    0.3860   -1.8660 n         1 931     -0.351000
     11 C25         0.9300   -0.7650   -2.5680 c         1 931      0.695500
     12 O3          1.3410   -1.9170   -2.3560 o         1 931     -0.635500
     13 C12         0.5480    1.5570   -2.4230 c3        1 931      0.083000
     14 C13        -0.4020    1.0550   -3.5290 c3        1 931     -0.113400
     15 C14        -0.0630   -0.4370   -3.7230 c3        1 931      0.040500
     16 N3         -1.1940   -1.3640   -3.7430 n3        1 931     -0.990800
     17 S1         -0.8290   -3.2000   -5.0260 s4        1 931      1.665300
     18 C70         5.2710   -0.3810    3.1040 c3        1 931     -0.091400
     19 O2         -1.9520   -2.9900   -5.7770 o         1 931     -0.445900
     20 O1          0.4010   -2.8360   -5.4780 o         1 931     -0.445900
     21 C15        -0.9490   -4.2660   -3.8910 ca        1 931     -0.605500
     22 C80         6.7360   -0.7920    3.1560 c3        1 931     -0.102400
     23 C24        -2.1370   -4.9760   -3.6510 ca        1 931      0.092000
     24 C16         0.1890   -4.5880   -3.0780 ca        1 931     -0.017000
     25 C17         0.1290   -5.5560   -2.1150 ca        1 931     -0.119000
     26 C18        -1.0730   -6.2820   -1.8840 ca        1 931      0.074000
     27 C19        -1.1550   -7.2930   -0.8960 ca        1 931     -0.155000
     28 C20        -2.3410   -7.9750   -0.7020 ca        1 931      0.087400
     29 CL1        -2.4500   -9.1820    0.4700 cl        1 931     -0.016400
     30 C23        -2.2210   -5.9750   -2.6720 ca        1 931     -0.102000
     31 C22        -3.4320   -6.7000   -2.4470 ca        1 931     -0.074000
     32 C21        -3.4910   -7.6750   -1.4870 ca        1 931     -0.121000
     33 C28         5.2160    0.9010    2.2320 c3        1 931      0.204800
     34 H6          2.6920    1.9100    2.2460 ha        1 931      0.159000
     35 H1          6.8800    2.0570    1.9700 hn        1 931      0.367800
     36 H801        6.8650   -1.8710    2.8980 hc        1 931      0.054200
     37 H802        7.1580   -0.6350    4.1790 hc        1 931      0.054200
     38 H28         4.9000    1.7670    2.8880 h1        1 931      0.048700
     39 H10         5.4210   -0.4310   -0.1740 ha        1 931      0.164000
     40 H9          3.6860   -0.6660   -1.9210 ha        1 931      0.151000
     41 H121        1.3100    2.2680   -2.8460 h1        1 931      0.083200
     42 H122       -0.0220    2.0870   -1.6100 h1        1 931      0.083200
     43 H14         0.5030   -0.5750   -4.6940 h1        1 931      0.124700
     44 H131       -0.2280    1.6200   -4.4780 hc        1 931      0.079200
     45 H132       -1.4650    1.2150   -3.2210 hc        1 931      0.079200
     46 H3         -2.0040   -0.9030   -4.1330 hn        1 931      0.413300
     47 H701        4.6470   -1.1910    2.6530 hc        1 931      0.054700
     48 H702        4.8720   -0.1670    4.1240 hc        1 931      0.054700
     49 H24        -3.0350   -4.7510   -4.2610 ha        1 931      0.165000
     50 H16         1.1270   -4.0170   -3.2330 ha        1 931      0.191000
     51 H17         1.0160   -5.7870   -1.5000 ha        1 931      0.174000
     52 H19        -0.2610   -7.5240   -0.2920 ha        1 931      0.175000
     53 H21        -4.4240   -8.2380   -1.3110 ha        1 931      0.176000
     54 H22        -4.3160   -6.4620   -3.0610 ha        1 931      0.158000
     55 H11C        7.7370   -0.5050    1.2260 h1        1 931      0.050700
     56 H32        -1.4160   -1.6630   -2.8050 hn        1 931      0.413300
     57 H12C        8.4020    0.5210    2.5670 h1        1 931      0.050700
@<TRIPOS>BOND
     1    1    2 1   
     2    2    3 ar  
     3    2    9 ar  
     4    3    6 ar  
     5    3   34 1   
     6    4    5 1   
     7    4   22 1   
     8    4   55 1   
     9    4   57 1   
    10    5   33 1   
    11    5   35 1   
    12    6    7 ar  
    13    6   33 1   
    14    7    8 ar  
    15    7   39 1   
    16    8    9 ar  
    17    8   40 1   
    18    9   10 1   
    19   10   11 1   
    20   10   13 1   
    21   11   12 2   
    22   11   15 1   
    23   13   14 1   
    24   13   41 1   
    25   13   42 1   
    26   14   15 1   
    27   14   44 1   
    28   14   45 1   
    29   15   16 1   
    30   15   43 1   
    31   16   46 1   
    32   16   56 1   
    33   17   19 1   
    34   17   20 1   
    35   17   21 1   
    36   18   22 1   
    37   18   33 1   
    38   18   47 1   
    39   18   48 1   
    40   21   23 ar  
    41   21   24 ar  
    42   22   36 1   
    43   22   37 1   
    44   23   30 ar  
    45   23   49 1   
    46   24   25 ar  
    47   24   50 1   
    48   25   26 ar  
    49   25   51 1   
    50   26   27 ar  
    51   26   30 ar  
    52   27   28 ar  
    53   27   52 1   
    54   28   29 1   
    55   28   32 ar  
    56   30   31 ar  
    57   31   32 ar  
    58   31   54 1   
    59   32   53 1   
    60   33   38 1   
@<TRIPOS>SUBSTRUCTURE
     1 931         1 TEMP              0 ****  ****    0 ROOT
