@<TRIPOS>MOLECULE
931
   57    60     1     0     0
SMALL
bcc


@<TRIPOS>ATOM
      1 F1          0.7290    1.7920    0.5500 f         1 931     -0.140900
      2 C7          1.9360    1.2130    0.3350 ca        1 931      0.117900
      3 C6          2.9320    1.3400    1.3180 ca        1 931     -0.154000
      4 C1          7.4580    0.0810    2.1350 c3        1 931      0.149800
      5 N1          6.5620    1.1380    1.6800 n3        1 931     -0.809200
      6 C11         4.1820    0.7460    1.1420 ca        1 931     -0.029300
      7 C10         4.4400    0.0210   -0.0270 ca        1 931     -0.098000
      8 C9          3.4720   -0.0990   -1.0170 ca        1 931     -0.109000
      9 C8          2.2040    0.5000   -0.8670 ca        1 931     -0.008400
     10 N2          1.2270    0.3830   -1.8810 n         1 931     -0.351000
     11 C25         0.9380   -0.7710   -2.5780 c         1 931      0.695500
     12 O3          1.3420   -1.9230   -2.3590 o         1 931     -0.635500
     13 C12         0.5690    1.5540   -2.4460 c3        1 931      0.083000
     14 C13        -0.3810    1.0520   -3.5510 c3        1 931     -0.113400
     15 C14        -0.0510   -0.4420   -3.7360 c3        1 931      0.040500
     16 N3         -1.1880   -1.3630   -3.7530 n3        1 931     -0.990800
     17 S1         -0.8320   -3.2090   -5.0250 s4        1 931      1.665300
     18 C70         5.2680   -0.3880    3.1010 c3        1 931     -0.091400
     19 O2         -1.9530   -2.9970   -5.7780 o         1 931     -0.445900
     20 O1          0.4010   -2.8540   -5.4780 o         1 931     -0.445900
     21 C15        -0.9590   -4.2670   -3.8830 ca        1 931     -0.605500
     22 C80         6.7310   -0.8050    3.1580 c3        1 931     -0.102400
     23 C24        -2.1520   -4.9680   -3.6400 ca        1 931      0.092000
     24 C16         0.1760   -4.5910   -3.0670 ca        1 931     -0.017000
     25 C17         0.1100   -5.5540   -2.0990 ca        1 931     -0.119000
     26 C18        -1.0970   -6.2700   -1.8640 ca        1 931      0.074000
     27 C19        -1.1860   -7.2750   -0.8700 ca        1 931     -0.155000
     28 C20        -2.3770   -7.9480   -0.6730 ca        1 931      0.087400
     29 CL1        -2.4940   -9.1460    0.5070 cl        1 931     -0.016400
     30 C23        -2.2430   -5.9610   -2.6550 ca        1 931     -0.102000
     31 C22        -3.4580   -6.6760   -2.4260 ca        1 931     -0.074000
     32 C21        -3.5250   -7.6450   -1.4610 ca        1 931     -0.121000
     33 C28         5.2200    0.8920    2.2260 c3        1 931      0.204800
     34 H6          2.7020    1.9150    2.2290 ha        1 931      0.159000
     35 H1          6.8900    2.0400    1.9650 hn        1 931      0.367800
     36 H801        6.8560   -1.8850    2.9030 hc        1 931      0.054200
     37 H802        7.1510   -0.6470    4.1820 hc        1 931      0.054200
     38 H28         4.9060    1.7610    2.8790 h1        1 931      0.048700
     39 H10         5.4260   -0.4490   -0.1740 ha        1 931      0.164000
     40 H9          3.6950   -0.6820   -1.9250 ha        1 931      0.151000
     41 H121        1.3370    2.2590   -2.8710 h1        1 931      0.083200
     42 H122        0.0010    2.0910   -1.6370 h1        1 931      0.083200
     43 H14         0.5160   -0.5890   -4.7060 h1        1 931      0.124700
     44 H131       -1.4440    1.2200   -3.2470 hc        1 931      0.079200
     45 H132       -0.2020    1.6110   -4.5020 hc        1 931      0.079200
     46 H3         -1.4130   -1.6550   -2.8140 hn        1 931      0.413300
     47 H701        4.6410   -1.1960    2.6510 hc        1 931      0.054700
     48 H702        4.8670   -0.1690    4.1200 hc        1 931      0.054700
     49 H24        -3.0480   -4.7410   -4.2530 ha        1 931      0.165000
     50 H16         1.1180   -4.0270   -3.2260 ha        1 931      0.191000
     51 H17         0.9950   -5.7860   -1.4820 ha        1 931      0.174000
     52 H19        -0.2950   -7.5070   -0.2640 ha        1 931      0.175000
     53 H21        -4.4610   -8.2010   -1.2820 ha        1 931      0.176000
     54 H22        -4.3410   -6.4360   -3.0420 ha        1 931      0.158000
     55 H11C        7.7390   -0.5280    1.2300 h1        1 931      0.050700
     56 H32        -1.9940   -0.8990   -4.1480 hn        1 931      0.413300
     57 H12C        8.4040    0.5000    2.5710 h1        1 931      0.050700
@<TRIPOS>BOND
     1    1    2 1   
     2    2    3 ar  
     3    2    9 ar  
     4    3    6 ar  
     5    3   34 1   
     6    4    5 1   
     7    4   22 1   
     8    4   55 1   
     9    4   57 1   
    10    5   33 1   
    11    5   35 1   
    12    6    7 ar  
    13    6   33 1   
    14    7    8 ar  
    15    7   39 1   
    16    8    9 ar  
    17    8   40 1   
    18    9   10 1   
    19   10   11 1   
    20   10   13 1   
    21   11   12 2   
    22   11   15 1   
    23   13   14 1   
    24   13   41 1   
    25   13   42 1   
    26   14   15 1   
    27   14   44 1   
    28   14   45 1   
    29   15   16 1   
    30   15   43 1   
    31   16   46 1   
    32   16   56 1   
    33   17   19 1   
    34   17   20 1   
    35   17   21 1   
    36   18   22 1   
    37   18   33 1   
    38   18   47 1   
    39   18   48 1   
    40   21   23 ar  
    41   21   24 ar  
    42   22   36 1   
    43   22   37 1   
    44   23   30 ar  
    45   23   49 1   
    46   24   25 ar  
    47   24   50 1   
    48   25   26 ar  
    49   25   51 1   
    50   26   27 ar  
    51   26   30 ar  
    52   27   28 ar  
    53   27   52 1   
    54   28   29 1   
    55   28   32 ar  
    56   30   31 ar  
    57   31   32 ar  
    58   31   54 1   
    59   32   53 1   
    60   33   38 1   
@<TRIPOS>SUBSTRUCTURE
     1 931         1 TEMP              0 ****  ****    0 ROOT
