@<TRIPOS>MOLECULE
931
   56    60     1     0     0
SMALL
bcc


@<TRIPOS>ATOM
      1 F1          3.3490    2.7580    2.4120 f         1 931     -0.146900
      2 C7          3.7010    2.0520    1.3080 ca        1 931      0.087900
      3 C6          5.0090    1.5420    1.2380 ca        1 931     -0.148000
      4 C1          7.8480   -0.8310   -1.7580 c3        1 931      0.148800
      5 N1          7.4860    0.4610   -1.1860 n3        1 931     -0.803200
      6 C11         5.4230    0.7970    0.1360 ca        1 931     -0.060300
      7 C10         4.5240    0.5720   -0.9110 ca        1 931     -0.094000
      8 C9          3.2340    1.0830   -0.8660 ca        1 931     -0.131000
      9 C8          2.7820    1.8370    0.2400 ca        1 931      0.037600
     10 N2          1.4680    2.3390    0.2830 n         1 931     -0.376000
     11 C25         0.3780    1.8170   -0.4120 c         1 931      0.681500
     12 O3          0.3500    0.7460   -1.0340 o         1 931     -0.616500
     13 C12         1.1690    3.6410    0.8630 c3        1 931      0.084000
     14 C13        -0.2680    4.0120    0.4580 c3        1 931     -0.111400
     15 C14        -0.8360    2.7880   -0.2980 c3        1 931      0.169500
     16 N3         -1.9730    2.1750    0.3090 n3        1 931     -0.896100
     17 S1         -3.3880    1.9050   -0.4520 sy        1 931      1.520200
     18 C70         6.7990   -1.2870    0.3950 c3        1 931     -0.093400
     19 O2         -4.4370    2.4490    0.3190 o         1 931     -0.653300
     20 O1         -3.2950    2.3590   -1.7820 o         1 931     -0.653300
     21 C15        -3.5320    0.2290   -0.4050 ca        1 931     -0.390500
     22 C80         7.5960   -1.9410   -0.7260 c3        1 931     -0.102400
     23 C24        -4.6010   -0.3700    0.2340 ca        1 931      0.026000
     24 C16        -2.5780   -0.5940   -1.0600 ca        1 931     -0.031000
     25 C17        -2.7080   -1.9600   -1.0730 ca        1 931     -0.135000
     26 C18        -3.8060   -2.5860   -0.4240 ca        1 931      0.021000
     27 C19        -3.9650   -3.9990   -0.4220 ca        1 931     -0.131000
     28 C20        -5.0430   -4.5660    0.2200 ca        1 931      0.042400
     29 CL1        -5.2440   -6.2530    0.2300 cl        1 931     -0.084400
     30 C23        -4.7640   -1.7770    0.2390 ca        1 931     -0.080000
     31 C22        -5.8670   -2.3970    0.8920 ca        1 931     -0.088000
     32 C21        -6.0070   -3.7610    0.8850 ca        1 931     -0.134000
     33 C28         6.8210    0.2370    0.1070 c3        1 931      0.210800
     34 H6          5.6940    1.7400    2.0770 ha        1 931      0.147000
     35 H12C        8.9160   -0.8450   -2.1060 h1        1 931      0.046200
     36 H1          8.2940    1.0380   -1.0590 hn        1 931      0.358800
     37 H801        7.0300   -2.7860   -1.1870 hc        1 931      0.049200
     38 H802        8.5640   -2.3480   -0.3420 hc        1 931      0.049200
     39 H28         7.4090    0.7470    0.9290 h1        1 931      0.040700
     40 H10         4.8450   -0.0090   -1.7910 ha        1 931      0.152000
     41 H9          2.5460    0.8790   -1.7050 ha        1 931      0.164000
     42 H121        1.2580    3.5800    1.9830 h1        1 931      0.064200
     43 H122        1.9050    4.4070    0.4950 h1        1 931      0.064200
     44 H14        -1.1050    3.0860   -1.3580 h1        1 931      0.116700
     45 H131       -0.8680    4.2730    1.3640 hc        1 931      0.071200
     46 H132       -0.2650    4.9010   -0.2200 hc        1 931      0.071200
     47 H3         -1.8340    1.9230    1.2580 hn        1 931      0.449800
     48 H701        5.7480   -1.6670    0.4090 hc        1 931      0.055200
     49 H702        7.2530   -1.4950    1.3930 hc        1 931      0.055200
     50 H24        -5.3540    0.2540    0.7520 ha        1 931      0.162000
     51 H16        -1.7130   -0.1170   -1.5600 ha        1 931      0.169000
     52 H17        -1.9620   -2.5890   -1.5830 ha        1 931      0.147000
     53 H19        -3.2150   -4.6180   -0.9390 ha        1 931      0.154000
     54 H21        -6.8590   -4.2450    1.3880 ha        1 931      0.152000
     55 H22        -6.6060   -1.7600    1.4010 ha        1 931      0.144000
     56 H11C        7.1920   -0.9900   -2.6590 h1        1 931      0.046200
@<TRIPOS>BOND
     1    1    2 1   
     2    2    3 ar  
     3    2    9 ar  
     4    3    6 ar  
     5    3   34 1   
     6    4    5 1   
     7    4   22 1   
     8    4   35 1   
     9    4   56 1   
    10    5   33 1   
    11    5   36 1   
    12    6    7 ar  
    13    6   33 1   
    14    7    8 ar  
    15    7   40 1   
    16    8    9 ar  
    17    8   41 1   
    18    9   10 1   
    19   10   11 1   
    20   10   13 1   
    21   11   12 2   
    22   11   15 1   
    23   13   14 1   
    24   13   42 1   
    25   13   43 1   
    26   14   15 1   
    27   14   45 1   
    28   14   46 1   
    29   15   16 1   
    30   15   44 1   
    31   16   17 1   
    32   16   47 1   
    33   17   19 2   
    34   17   20 2   
    35   17   21 1   
    36   18   22 1   
    37   18   33 1   
    38   18   48 1   
    39   18   49 1   
    40   21   23 ar  
    41   21   24 ar  
    42   22   37 1   
    43   22   38 1   
    44   23   30 ar  
    45   23   50 1   
    46   24   25 ar  
    47   24   51 1   
    48   25   26 ar  
    49   25   52 1   
    50   26   27 ar  
    51   26   30 ar  
    52   27   28 ar  
    53   27   53 1   
    54   28   29 1   
    55   28   32 ar  
    56   30   31 ar  
    57   31   32 ar  
    58   31   55 1   
    59   32   54 1   
    60   33   39 1   
@<TRIPOS>SUBSTRUCTURE
     1 931         1 TEMP              0 ****  ****    0 ROOT
