@<TRIPOS>MOLECULE
932
   44    47     1     0     0
SMALL
bcc


@<TRIPOS>ATOM
      1 C1         -0.1190    0.1170   -0.2820 ca        1 932      0.034600
      2 N2          1.2320    0.2780   -0.7000 n         1 932     -0.394000
      3 C3          2.2780    0.2380    0.2390 c         1 932      0.719500
      4 C4          2.0060   -0.2870    1.6220 c3        1 932     -0.140400
      5 C5          0.6460    0.1220    2.1340 c3        1 932     -0.040100
      6 C6         -0.4160    0.0120    1.1000 ca        1 932     -0.108300
      7 C7         -1.1810    0.0900   -1.2100 ca        1 932     -0.164000
      8 C8         -2.4930   -0.0730   -0.7730 ca        1 932     -0.092000
      9 C9         -2.7790   -0.2030    0.5840 ca        1 932     -0.122000
     10 C10        -1.7420   -0.1540    1.5100 ca        1 932     -0.093000
     11 C11         1.5800    0.2820   -2.0890 c3        1 932      0.033000
     12 C12         1.7130    1.6870   -2.6910 c         1 932      0.542100
     13 O13         1.0440    2.1660   -3.5850 o         1 932     -0.393100
     14 N14         2.8360    2.5110   -2.0790 n4        1 932     -0.488200
     15 C15         3.2750    3.6300   -2.8640 cc        1 932     -0.125500
     16 S16         2.9010    5.2300   -2.5050 ss        1 932      0.213200
     17 C17         3.7360    5.8230   -3.7860 cc        1 932     -0.154100
     18 C18         4.3360    4.8370   -4.5620 cd        1 932     -0.071300
     19 C19         4.0690    3.5380   -4.0260 cd        1 932     -0.080500
     20 C20         4.5130    2.2790   -4.5800 cd        1 932      0.449000
     21 N21         5.5280    2.1080   -5.5430 na        1 932     -0.108400
     22 N22         5.6790    0.8250   -5.8430 nd        1 932     -0.475800
     23 C23         4.7580    0.1680   -5.0700 cc        1 932      0.527900
     24 N24         4.0160    1.0380   -4.2720 nc        1 932     -0.751000
     25 C25         5.1180    5.1350   -5.7710 c3        1 932     -0.058800
     26 O26         3.4030    0.6400   -0.1250 o         1 932     -0.675500
     27 H4          2.0880   -1.4090    1.5710 hc        1 932      0.101700
     28 H4A         2.8140    0.0830    2.3090 hc        1 932      0.101700
     29 H5          0.6800    1.1860    2.5000 hc        1 932      0.075200
     30 H5A         0.3880   -0.5180    3.0220 hc        1 932      0.075200
     31 H7         -1.0120    0.2090   -2.2900 ha        1 932      0.137000
     32 H8         -3.3090   -0.0980   -1.5140 ha        1 932      0.154000
     33 H9         -3.8180   -0.3410    0.9220 ha        1 932      0.157000
     34 H10        -1.9620   -0.2450    2.5870 ha        1 932      0.152000
     35 H11         0.8100   -0.2590   -2.7150 h1        1 932      0.128700
     36 H11A        2.5750   -0.2400   -2.2410 h1        1 932      0.128700
     37 HN14        3.6370    1.8660   -1.9110 hn        1 932      0.479300
     38 H17         3.8050    6.8940   -4.0070 h4        1 932      0.210000
     39 H23         4.6170   -0.9200   -5.0780 h5        1 932      0.089100
     40 H25         6.2050    4.9210   -5.6040 hc        1 932      0.067033
     41 H25A        5.0260    6.2200   -6.0370 hc        1 932      0.067033
     42 H25B        4.7500    4.5400   -6.6450 hc        1 932      0.067033
     43 HN21        6.0900    2.8100   -5.9760 hn        1 932      0.348700
     44 H142        2.5220    2.8370   -1.1560 hn        1 932      0.479300
@<TRIPOS>BOND
     1    1    2 1   
     2    1    6 ar  
     3    1    7 ar  
     4    2    3 1   
     5    2   11 1   
     6    3    4 1   
     7    3   26 2   
     8    4    5 1   
     9    4   27 1   
    10    4   28 1   
    11    5    6 1   
    12    5   29 1   
    13    5   30 1   
    14    6   10 ar  
    15    7    8 ar  
    16    7   31 1   
    17    8    9 ar  
    18    8   32 1   
    19    9   10 ar  
    20    9   33 1   
    21   10   34 1   
    22   11   12 1   
    23   11   35 1   
    24   11   36 1   
    25   12   13 2   
    26   12   14 1   
    27   14   15 1   
    28   14   37 1   
    29   14   44 1   
    30   15   16 1   
    31   15   19 2   
    32   16   17 1   
    33   17   18 2   
    34   17   38 1   
    35   18   19 1   
    36   18   25 1   
    37   19   20 1   
    38   20   21 1   
    39   20   24 2   
    40   21   22 1   
    41   21   43 1   
    42   22   23 2   
    43   23   24 1   
    44   23   39 1   
    45   25   40 1   
    46   25   41 1   
    47   25   42 1   
@<TRIPOS>SUBSTRUCTURE
     1 932         1 TEMP              0 ****  ****    0 ROOT
