@<TRIPOS>MOLECULE
932
   43    46     1     0     0
SMALL
bcc


@<TRIPOS>ATOM
      1 C1          0.2890    0.0700   -0.0230 ca        1 932      0.074600
      2 N2          1.6660   -0.0360    0.2890 n         1 932     -0.365000
      3 C3          2.0880   -0.1590    1.6240 c         1 932      0.711500
      4 C4          1.0370   -0.3180    2.6980 c3        1 932     -0.143400
      5 C5         -0.2010    0.4990    2.4070 c3        1 932     -0.034100
      6 C6         -0.6590    0.3030    1.0070 ca        1 932     -0.114300
      7 C7         -0.1780   -0.0790   -1.3470 ca        1 932     -0.165000
      8 C8         -1.5390   -0.0010   -1.6270 ca        1 932     -0.101000
      9 C9         -2.4630    0.2230   -0.6100 ca        1 932     -0.148000
     10 C10        -2.0180    0.3730    0.7010 ca        1 932     -0.099000
     11 C11         2.6520    0.2030   -0.7310 c3        1 932      0.028000
     12 C12         2.7430    1.6640   -1.2020 c         1 932      0.630100
     13 O13         2.4250    2.6350   -0.4930 o         1 932     -0.575100
     14 N14         3.2600    1.8530   -2.4800 n         1 932     -0.435100
     15 C15         3.4210    3.0960   -3.0650 cc        1 932      0.079500
     16 S16         3.0510    4.5610   -2.2950 ss        1 932      0.157200
     17 C17         3.4990    5.4810   -3.5950 cc        1 932     -0.242100
     18 C18         3.9490    4.7320   -4.6640 cd        1 932     -0.060300
     19 C19         3.9160    3.3290   -4.3630 cd        1 932     -0.251500
     20 C20         4.3260    2.2810   -5.2680 cd        1 932      0.518000
     21 N21         5.3180    2.4350   -6.2640 na        1 932     -0.153400
     22 N22         5.4880    1.3000   -6.9410 nd        1 932     -0.527800
     23 C23         4.6160    0.4200   -6.3670 cc        1 932      0.506900
     24 N24         3.8760    0.9920   -5.3240 nc        1 932     -0.728000
     25 C25         4.3750    5.3220   -5.9420 c3        1 932     -0.041800
     26 O26         3.3030   -0.1970    1.8910 o         1 932     -0.621500
     27 H4          1.4910   -0.0070    3.6760 hc        1 932      0.082700
     28 H4A         0.7830   -1.4090    2.7660 hc        1 932      0.082700
     29 H5          0.0180    1.5910    2.5670 hc        1 932      0.064200
     30 H5A        -1.0100    0.2130    3.1300 hc        1 932      0.064200
     31 H7          0.5190   -0.2540   -2.1800 ha        1 932      0.136000
     32 H8         -1.8810   -0.1170   -2.6670 ha        1 932      0.137000
     33 H9         -3.5370    0.2830   -0.8390 ha        1 932      0.137000
     34 H10        -2.7420    0.5530    1.5090 ha        1 932      0.135000
     35 H11         3.6740   -0.0560   -0.3160 h1        1 932      0.096200
     36 H11A        2.4450   -0.4790   -1.6050 h1        1 932      0.096200
     37 HN14        3.4830    1.0520   -3.0310 hn        1 932      0.352500
     38 H17         3.4320    6.5690   -3.5930 h4        1 932      0.176000
     39 H23         4.4950   -0.6200   -6.6810 h5        1 932      0.069100
     40 H25         5.4920    5.3280   -6.0220 hc        1 932      0.047033
     41 H25A        3.9490    4.7580   -6.8090 hc        1 932      0.047033
     42 H25B        4.0250    6.3830   -6.0170 hc        1 932      0.047033
     43 HN21        5.8270    3.2560   -6.4940 hn        1 932      0.329700
@<TRIPOS>BOND
     1    1    2 1   
     2    1    6 ar  
     3    1    7 ar  
     4    2    3 1   
     5    2   11 1   
     6    3    4 1   
     7    3   26 2   
     8    4    5 1   
     9    4   27 1   
    10    4   28 1   
    11    5    6 1   
    12    5   29 1   
    13    5   30 1   
    14    6   10 ar  
    15    7    8 ar  
    16    7   31 1   
    17    8    9 ar  
    18    8   32 1   
    19    9   10 ar  
    20    9   33 1   
    21   10   34 1   
    22   11   12 1   
    23   11   35 1   
    24   11   36 1   
    25   12   13 2   
    26   12   14 1   
    27   14   15 1   
    28   14   37 1   
    29   15   16 1   
    30   15   19 2   
    31   16   17 1   
    32   17   18 2   
    33   17   38 1   
    34   18   19 1   
    35   18   25 1   
    36   19   20 1   
    37   20   21 1   
    38   20   24 2   
    39   21   22 1   
    40   21   43 1   
    41   22   23 2   
    42   23   24 1   
    43   23   39 1   
    44   25   40 1   
    45   25   41 1   
    46   25   42 1   
@<TRIPOS>SUBSTRUCTURE
     1 932         1 TEMP              0 ****  ****    0 ROOT
