@<TRIPOS>MOLECULE
932
   43    39     1     0     0
SMALL
bcc


@<TRIPOS>ATOM
      1 C1         -2.8100   -1.9370    1.0380 c1        1 932      0.083000
      2 N2         -1.3180   -1.7650    1.0650 n2        1 932     -0.268000
      3 C3         -0.7170   -1.5730    2.2870 c2        1 932      0.319000
      4 C4         -1.2290   -2.3380    3.4460 c3        1 932     -0.172000
      5 C5         -2.6430   -2.1910    3.6210 c3        1 932     -0.120000
      6 C6         -3.5080   -2.0610    2.3130 c2        1 932     -0.107000
      7 C7         -3.5230   -2.0000   -0.1470 c1        1 932     -0.165000
      8 C8         -4.9220   -2.1840   -0.1190 c1        1 932     -0.124500
      9 C9         -5.6030   -2.3050    1.1280 c1        1 932     -0.124500
     10 C10        -4.8820   -2.2410    2.3340 c1        1 932     -0.099000
     11 C11        -0.5960   -1.4500   -0.1660 c3        1 932     -0.038000
     12 C12        -0.0320   -0.0460   -0.0750 c2        1 932      0.274000
     13 O13        -0.5740    0.7740    0.6090 o         1 932     -0.336000
     14 N14         1.1120    0.3190   -0.8590 n         1 932     -0.289000
     15 C15         1.6100    1.6710   -0.8240 c2        1 932     -0.184000
     16 S16         0.9750    2.8610   -0.0440 ss        1 932      0.698000
     17 C17         1.8030    4.1440   -0.3830 c1        1 932     -0.513000
     18 C18         2.8600    3.7630   -1.2980 c1        1 932     -0.053000
     19 C19         2.7390    2.1850   -1.5800 c2        1 932     -0.143000
     20 C20         3.5750    1.4430   -2.3880 c2        1 932      0.060000
     21 N21         3.4280    1.2500   -3.7130 n2        1 932     -0.186000
     22 N22         4.4700    0.5140   -4.1430 n2        1 932     -0.096000
     23 C23         5.2650    0.2500   -3.0760 c1        1 932     -0.155000
     24 N24         4.7150    0.8210   -1.9980 n2        1 932     -0.203000
     25 C25         3.9400    4.6780   -1.8350 c2        1 932     -0.167000
     26 O26         0.3700   -1.0220    2.3520 o         1 932     -0.344000
     27 H4         -1.0540   -3.3070    3.4230 hc        1 932      0.122000
     28 H4A        -0.7240   -2.0390    4.2320 hc        1 932      0.122000
     29 H5         -2.7910   -1.3740    4.1540 hc        1 932      0.103500
     30 H5A        -2.9650   -2.9910    4.1110 hc        1 932      0.103500
     31 H7         -3.0580   -1.9170   -1.0030 ha        1 932      0.134000
     32 H8         -5.4260   -2.2290   -0.9550 ha        1 932      0.136500
     33 H9         -6.5780   -2.4330    1.1450 ha        1 932      0.136500
     34 H10        -5.3530   -2.3250    3.1940 ha        1 932      0.135000
     35 H11        -1.2090   -1.5070   -0.9270 h1        1 932      0.135500
     36 H11A        0.1380   -2.0910   -0.2880 h1        1 932      0.135500
     37 HN14        1.5110   -0.3040   -1.4100 hn        1 932      0.268000
     38 H17         1.6380    5.0410   -0.0400 DU        1 932      0.220667
     39 H23         6.0950   -0.2680   -3.0920 DU        1 932      0.220667
     40 H25         4.8220    4.3630   -1.5280 ha        1 932      0.086000
     41 H25A        3.9150    4.6740   -2.8190 ha        1 932      0.086000
     42 H25B        3.7900    5.5810   -1.5110 ha        1 932      0.086000
     43 HN21        2.7440    1.5640   -4.2290 DU        1 932      0.220667
@<TRIPOS>BOND
     1    1    6 1   
     2    1    7 1   
     3    2    3 1   
     4    2   11 1   
     5    3    4 1   
     6    3   26 1   
     7    4    5 1   
     8    4   27 1   
     9    4   28 1   
    10    5    6 1   
    11    5   29 1   
    12    5   30 1   
    13    6   10 1   
    14    7   31 1   
    15    8    9 1   
    16    8   32 1   
    17    9   33 1   
    18   10   34 1   
    19   11   12 1   
    20   11   35 1   
    21   11   36 1   
    22   12   13 1   
    23   12   14 1   
    24   14   15 1   
    25   14   37 1   
    26   15   16 1   
    27   15   19 1   
    28   16   17 1   
    29   17   18 1   
    30   18   19 1   
    31   19   20 1   
    32   20   21 1   
    33   20   24 1   
    34   21   22 1   
    35   22   23 1   
    36   23   24 1   
    37   25   40 1   
    38   25   41 1   
    39   25   42 1   
@<TRIPOS>SUBSTRUCTURE
     1 932         1 TEMP              0 ****  ****    0 ROOT
