@<TRIPOS>MOLECULE
932
   43    46     1     0     0
SMALL
bcc


@<TRIPOS>ATOM
      1 C1          0.3010    0.0690   -0.0180 ca        1 932      0.074600
      2 N2          1.6770   -0.0270    0.2990 n         1 932     -0.365000
      3 C3          2.0960   -0.1430    1.6360 c         1 932      0.711500
      4 C4          1.0420   -0.3040    2.7070 c3        1 932     -0.143400
      5 C5         -0.2000    0.5030    2.4090 c3        1 932     -0.034100
      6 C6         -0.6520    0.3000    1.0080 ca        1 932     -0.114300
      7 C7         -0.1600   -0.0870   -1.3430 ca        1 932     -0.165000
      8 C8         -1.5210   -0.0180   -1.6290 ca        1 932     -0.101000
      9 C9         -2.4500    0.2020   -0.6160 ca        1 932     -0.148000
     10 C10        -2.0100    0.3590    0.6960 ca        1 932     -0.099000
     11 C11         2.6650    0.2140   -0.7190 c3        1 932      0.028000
     12 C12         2.7480    1.6730   -1.1970 c         1 932      0.630100
     13 O13         2.4260    2.6450   -0.4910 o         1 932     -0.575100
     14 N14         3.2610    1.8580   -2.4770 ns        1 932     -0.435100
     15 C15         3.4150    3.1000   -3.0670 cc        1 932      0.079500
     16 S16         3.0400    4.5660   -2.3040 ss        1 932      0.157200
     17 C17         3.4810    5.4830   -3.6090 cc        1 932     -0.242100
     18 C18         3.9310    4.7310   -4.6750 cd        1 932     -0.060300
     19 C19         3.9060    3.3290   -4.3670 cd        1 932     -0.251500
     20 C20         4.3180    2.2790   -5.2690 cd        1 932      0.518000
     21 N21         5.3070    2.4330   -6.2690 na        1 932     -0.153400
     22 N22         5.4810    1.2950   -6.9410 nd        1 932     -0.527800
     23 C23         4.6140    0.4150   -6.3600 cc        1 932      0.506900
     24 N24         3.8740    0.9880   -5.3180 nc        1 932     -0.728000
     25 C25         4.3520    5.3170   -5.9570 c3        1 932     -0.041800
     26 O26         3.3090   -0.1720    1.9070 o         1 932     -0.621500
     27 H4          1.4900    0.0130    3.6850 hc        1 932      0.082700
     28 H4A         0.7940   -1.3970    2.7780 hc        1 932      0.082700
     29 H5         -1.0110    0.2140    3.1300 hc        1 932      0.064200
     30 H5A         0.0110    1.5970    2.5650 hc        1 932      0.064200
     31 H7          0.5400   -0.2600   -2.1740 ha        1 932      0.136000
     32 H8         -1.8590   -0.1400   -2.6700 ha        1 932      0.137000
     33 H9         -3.5230    0.2550   -0.8490 ha        1 932      0.137000
     34 H10        -2.7390    0.5380    1.5020 ha        1 932      0.135000
     35 H11         2.4660   -0.4740   -1.5900 h1        1 932      0.096200
     36 H11A        3.6870   -0.0360   -0.2980 h1        1 932      0.096200
     37 HN14        3.4870    1.0560   -3.0250 hn        1 932      0.352500
     38 H17         3.4090    6.5710   -3.6110 h4        1 932      0.176000
     39 H23         4.4960   -0.6280   -6.6700 h5        1 932      0.069100
     40 H25         3.9980    6.3760   -6.0350 hc        1 932      0.047033
     41 H25A        3.9270    4.7480   -6.8210 hc        1 932      0.047033
     42 H25B        5.4690    5.3280   -6.0400 hc        1 932      0.047033
     43 HN21        5.8120    3.2560   -6.5030 hn        1 932      0.329700
@<TRIPOS>BOND
     1    1    2 1   
     2    1    6 ar  
     3    1    7 ar  
     4    2    3 1   
     5    2   11 1   
     6    3    4 1   
     7    3   26 2   
     8    4    5 1   
     9    4   27 1   
    10    4   28 1   
    11    5    6 1   
    12    5   29 1   
    13    5   30 1   
    14    6   10 ar  
    15    7    8 ar  
    16    7   31 1   
    17    8    9 ar  
    18    8   32 1   
    19    9   10 ar  
    20    9   33 1   
    21   10   34 1   
    22   11   12 1   
    23   11   35 1   
    24   11   36 1   
    25   12   13 2   
    26   12   14 1   
    27   14   15 1   
    28   14   37 1   
    29   15   16 1   
    30   15   19 2   
    31   16   17 1   
    32   17   18 2   
    33   17   38 1   
    34   18   19 1   
    35   18   25 1   
    36   19   20 1   
    37   20   21 1   
    38   20   24 2   
    39   21   22 1   
    40   21   43 1   
    41   22   23 2   
    42   23   24 1   
    43   23   39 1   
    44   25   40 1   
    45   25   41 1   
    46   25   42 1   
@<TRIPOS>SUBSTRUCTURE
     1 932         1 TEMP              0 ****  ****    0 ROOT
