@<TRIPOS>MOLECULE
932
   43    46     1     0     0
SMALL
bcc


@<TRIPOS>ATOM
      1 C1         -3.2380    0.4930    0.2390 ca        1 932      0.074600
      2 N2         -2.6990    0.8310   -1.0250 n         1 932     -0.365000
      3 C3         -3.4690    0.6820   -2.1930 c         1 932      0.711500
      4 C4         -4.9200    0.2890   -2.0500 c3        1 932     -0.143400
      5 C5         -5.1380   -0.6850   -0.9160 c3        1 932     -0.034100
      6 C6         -4.4570   -0.2290    0.3240 ca        1 932     -0.114300
      7 C7         -2.6010    0.8810    1.4380 ca        1 932     -0.165000
      8 C8         -3.1630    0.5640    2.6700 ca        1 932     -0.101000
      9 C9         -4.3630   -0.1390    2.7450 ca        1 932     -0.148000
     10 C10        -5.0030   -0.5300    1.5720 ca        1 932     -0.099000
     11 C11        -1.2960    1.1220   -1.1510 c3        1 932      0.028000
     12 C12        -0.3720   -0.0880   -0.9360 c         1 932      0.630100
     13 O13        -0.7160   -1.2620   -1.1610 o         1 932     -0.575100
     14 N14         0.9200    0.2080   -0.5130 n         1 932     -0.435100
     15 C15         1.8870   -0.7520   -0.2770 cc        1 932      0.079500
     16 S16         1.6500   -2.4150   -0.5080 ss        1 932      0.157200
     17 C17         3.1830   -2.8100   -0.0280 cc        1 932     -0.242100
     18 C18         3.9430   -1.7130    0.3260 cd        1 932     -0.060300
     19 C19         3.1970   -0.4960    0.1760 cd        1 932     -0.251500
     20 C20         3.7070    0.8250    0.4590 cd        1 932      0.518000
     21 N21         5.0670    1.1940    0.3390 na        1 932     -0.153400
     22 N22         5.2390    2.4760    0.6600 nd        1 932     -0.527800
     23 C23         3.9880    2.9250    0.9690 cc        1 932      0.506900
     24 N24         3.0090    1.9310    0.8570 nc        1 932     -0.728000
     25 C25         5.3280   -1.8120    0.8140 c3        1 932     -0.041800
     26 O26        -2.9670    0.9320   -3.3030 o         1 932     -0.621500
     27 H4         -5.5120    1.2280   -1.8830 hc        1 932      0.082700
     28 H4A        -5.2540   -0.1610   -3.0220 hc        1 932      0.082700
     29 H5         -6.2400   -0.8060   -0.7390 hc        1 932      0.064200
     30 H5A        -4.7330   -1.6960   -1.1990 hc        1 932      0.064200
     31 H7         -1.6510    1.4350    1.4230 ha        1 932      0.136000
     32 H8         -2.6480    0.8750    3.5920 ha        1 932      0.137000
     33 H9         -4.8020   -0.3860    3.7230 ha        1 932      0.137000
     34 H10        -5.9490   -1.0900    1.6230 ha        1 932      0.135000
     35 H11        -1.0940    1.4860   -2.2050 h1        1 932      0.096200
     36 H11A       -1.0300    1.9520   -0.4360 h1        1 932      0.096200
     37 HN14        1.1560    1.1580   -0.3180 hn        1 932      0.352500
     38 H17         3.5380   -3.8410    0.0070 h4        1 932      0.176000
     39 H23         3.7610    3.9500    1.2790 h5        1 932      0.069100
     40 H25         6.0520   -1.5230    0.0100 hc        1 932      0.047033
     41 H25A        5.4890   -1.1560    1.7050 hc        1 932      0.047033
     42 H25B        5.5590   -2.8650    1.1140 hc        1 932      0.047033
     43 HN21        5.8330    0.6150    0.0860 hn        1 932      0.329700
@<TRIPOS>BOND
     1    1    2 1   
     2    1    6 ar  
     3    1    7 ar  
     4    2    3 1   
     5    2   11 1   
     6    3    4 1   
     7    3   26 2   
     8    4    5 1   
     9    4   27 1   
    10    4   28 1   
    11    5    6 1   
    12    5   29 1   
    13    5   30 1   
    14    6   10 ar  
    15    7    8 ar  
    16    7   31 1   
    17    8    9 ar  
    18    8   32 1   
    19    9   10 ar  
    20    9   33 1   
    21   10   34 1   
    22   11   12 1   
    23   11   35 1   
    24   11   36 1   
    25   12   13 2   
    26   12   14 1   
    27   14   15 1   
    28   14   37 1   
    29   15   16 1   
    30   15   19 2   
    31   16   17 1   
    32   17   18 2   
    33   17   38 1   
    34   18   19 1   
    35   18   25 1   
    36   19   20 1   
    37   20   21 1   
    38   20   24 2   
    39   21   22 1   
    40   21   43 1   
    41   22   23 2   
    42   23   24 1   
    43   23   39 1   
    44   25   40 1   
    45   25   41 1   
    46   25   42 1   
@<TRIPOS>SUBSTRUCTURE
     1 932         1 TEMP              0 ****  ****    0 ROOT
