@<TRIPOS>MOLECULE
933
   44    46     1     0     0
SMALL
bcc


@<TRIPOS>ATOM
      1 N1          0.0410    0.9780    0.1350 nb        1 933     -0.589000
      2 C2          1.3460    0.7400    0.2610 ca        1 933      0.310900
      3 C3          1.9560    0.0830    1.4030 ca        1 933      0.379300
      4 N4          1.2200   -0.3490    2.4480 nb        1 933     -0.598000
      5 C5         -0.7060    0.5360    1.1940 ca        1 933      0.283500
      6 C6         -0.1120   -0.1320    2.3460 ca        1 933      0.364800
      7 C7         -1.2170   -0.4400    3.2390 cc        1 933     -0.396000
      8 C8         -2.3930    0.0370    2.6120 cd        1 933     -0.011100
      9 N9         -2.0970    0.6160    1.4030 na        1 933     -0.214100
     10 C10         3.4190   -0.1190    1.4250 cx        1 933     -0.210000
     11 C11         4.1620   -0.4130    0.1420 cx        1 933     -0.109900
     12 C12         4.3370    0.9130    0.8110 cx        1 933     -0.109900
     13 C13        -1.0510   -1.1510    4.4690 c         1 933      0.612300
     14 N14        -2.1370   -0.9180    5.5200 n4        1 933     -0.687800
     15 O15        -0.1680   -1.9220    4.8160 o         1 933     -0.412100
     16 C16        -1.5660   -0.3810    6.8120 c3        1 933      0.134500
     17 C17        -2.5930   -0.5140    7.9680 c3        1 933     -0.071000
     18 C18        -2.8200   -1.9890    8.2800 c3        1 933     -0.106433
     19 C19        -2.0040    0.1570    9.2040 c3        1 933     -0.106433
     20 C20        -3.9210    0.1410    7.6250 c3        1 933     -0.106433
     21 C21        -1.0580    1.0410    6.6250 c3        1 933     -0.129100
     22 H1          1.9790    1.0820   -0.5810 h4        1 933      0.059100
     23 H2         -3.4320   -0.0270    2.9540 h4        1 933      0.179000
     24 H3         -2.7460    1.0010    0.7570 hn        1 933      0.341700
     25 H4          3.7770   -0.6320    2.3450 hc        1 933      0.117700
     26 H5          4.9840   -1.1530    0.1780 hc        1 933      0.085700
     27 H6          3.6020   -0.4720   -0.8090 hc        1 933      0.085700
     28 H7          5.2860    1.1370    1.3330 hc        1 933      0.085700
     29 H8          3.9040    1.8170    0.3450 hc        1 933      0.085700
     30 H9         -2.5950   -1.8130    5.7240 hn        1 933      0.446800
     31 H10        -0.6820   -1.0510    7.0550 hx        1 933      0.119700
     32 H11        -3.3990   -2.5020    7.4740 hc        1 933      0.054589
     33 H12        -1.8470   -2.5180    8.4250 hc        1 933      0.054589
     34 H13        -3.4120   -2.0840    9.2250 hc        1 933      0.054589
     35 H14        -1.9930    1.2670    9.0840 hc        1 933      0.054589
     36 H15        -0.9650   -0.2040    9.3910 hc        1 933      0.054589
     37 H16        -2.6290   -0.0890   10.0970 hc        1 933      0.054589
     38 H17        -3.7740    1.1850    7.2580 hc        1 933      0.054589
     39 H18        -4.5590    0.1860    8.5440 hc        1 933      0.054589
     40 H19        -4.4820   -0.4430    6.8570 hc        1 933      0.054589
     41 H20        -1.8950    1.7720    6.5220 hc        1 933      0.075033
     42 H21        -0.3930    1.1190    5.7280 hc        1 933      0.075033
     43 H22        -0.4500    1.3230    7.5220 hc        1 933      0.075033
     44 H142       -2.8360   -0.2580    5.1720 hn        1 933      0.446800
@<TRIPOS>BOND
     1    1    2 ar  
     2    1    5 ar  
     3    2    3 ar  
     4    2   22 1   
     5    3    4 ar  
     6    3   10 1   
     7    4    6 ar  
     8    5    6 ar  
     9    5    9 1   
    10    6    7 1   
    11    7    8 2   
    12    7   13 1   
    13    8    9 1   
    14    8   23 1   
    15    9   24 1   
    16   10   11 1   
    17   10   12 1   
    18   10   25 1   
    19   11   12 1   
    20   11   26 1   
    21   11   27 1   
    22   12   28 1   
    23   12   29 1   
    24   13   14 1   
    25   13   15 2   
    26   14   16 1   
    27   14   30 1   
    28   14   44 1   
    29   16   17 1   
    30   16   21 1   
    31   16   31 1   
    32   17   18 1   
    33   17   19 1   
    34   17   20 1   
    35   18   32 1   
    36   18   33 1   
    37   18   34 1   
    38   19   35 1   
    39   19   36 1   
    40   19   37 1   
    41   20   38 1   
    42   20   39 1   
    43   20   40 1   
    44   21   41 1   
    45   21   42 1   
    46   21   43 1   
@<TRIPOS>SUBSTRUCTURE
     1 933         1 TEMP              0 ****  ****    0 ROOT
